MODEL 1
REMARK VINA RESULT:      -7.7      0.000      0.000
REMARK  Name = 40533563
REMARK  2 active torsions:
REMARK  status: ('A' for Active; 'I' for Inactive)
REMARK    1  A    between atoms: N_6  and  C_21
REMARK    2  A    between atoms: C_18  and  C_20
REMARK                            x       y       z     vdW  Elec       q    Type
REMARK                         _______ _______ _______ _____ _____    ______ ____
ROOT
ATOM      2  O   UNL     1      10.868   7.119   2.243  0.00  0.00    -0.267 OA
ATOM      3  O   UNL     1      13.375   6.325   7.419  0.00  0.00    -0.252 OA
ATOM      4  N   UNL     1      11.511   7.677   7.191  0.00  0.00    -0.284 N 
ATOM      5  N   UNL     1      10.154   6.790   4.438  0.00  0.00    -0.311 N 
ATOM      6  N   UNL     1      13.649   8.474   6.591  0.00  0.00    -0.269 N 
ATOM      8  C   UNL     1       9.572   8.731   6.002  0.00  0.00    +0.027 C 
ATOM      9  C   UNL     1       9.396   6.419   6.812  0.00  0.00    +0.054 C 
ATOM     10  C   UNL     1       8.636   7.734   6.673  0.00  0.00    +0.018 C 
ATOM     11  C   UNL     1      10.849   8.944   6.840  0.00  0.00    +0.114 C 
ATOM     12  C   UNL     1       9.893   8.229   4.589  0.00  0.00    +0.130 C 
ATOM     13  C   UNL     1      10.621   6.636   7.718  0.00  0.00    +0.119 C 
ATOM     14  C   UNL     1       9.844   5.891   5.461  0.00  0.00    +0.027 A 
ATOM     15  C   UNL     1       9.976   4.571   5.259  0.00  0.00    +0.022 A 
ATOM     16  C   UNL     1      10.621   6.360   3.181  0.00  0.00    +0.259 A 
ATOM     17  C   UNL     1      12.894   7.410   7.082  0.00  0.00    +0.306 C 
ATOM     18  C   UNL     1      10.797   4.877   2.999  0.00  0.00    +0.048 A 
ATOM     19  C   UNL     1      10.464   4.060   4.011  0.00  0.00    +0.015 A 
ATOM     31  H   UNL     1      13.333   9.417   6.795  0.00  0.00    +0.156 HD
ENDROOT
BRANCH   6  21
ATOM      1 CL   UNL     1      18.656   8.165   3.434  0.00  0.00    -0.084 Cl
ATOM     21  C   UNL     1      14.846   8.400   5.837  0.00  0.00    +0.035 A 
ATOM     24  C   UNL     1      16.001   9.035   6.296  0.00  0.00    +0.025 A 
ATOM     25  C   UNL     1      14.869   7.693   4.635  0.00  0.00    +0.025 A 
ATOM     28  C   UNL     1      17.178   8.962   5.553  0.00  0.00    +0.022 A 
ATOM     29  C   UNL     1      16.048   7.620   3.892  0.00  0.00    +0.022 A 
ATOM     30  C   UNL     1      17.202   8.255   4.351  0.00  0.00    +0.041 A 
ENDBRANCH   6  21
BRANCH  18  20
ATOM      7  N   UNL     1      10.996   3.813  -0.597  0.00  0.00    -0.263 NA
ATOM     20  C   UNL     1      11.331   4.321   1.743  0.00  0.00    +0.005 A 
ATOM     22  C   UNL     1      12.615   3.792   1.682  0.00  0.00    +0.011 A 
ATOM     23  C   UNL     1      10.568   4.308   0.586  0.00  0.00    +0.119 A 
ATOM     26  C   UNL     1      13.092   3.275   0.482  0.00  0.00    +0.020 A 
ATOM     27  C   UNL     1      12.250   3.308  -0.618  0.00  0.00    +0.111 A 
ENDBRANCH  18  20
TORSDOF 2
ENDMDL
MODEL 2
REMARK VINA RESULT:      -7.6     13.946     16.082
REMARK  Name = 40533563
REMARK  2 active torsions:
REMARK  status: ('A' for Active; 'I' for Inactive)
REMARK    1  A    between atoms: N_6  and  C_21
REMARK    2  A    between atoms: C_18  and  C_20
REMARK                            x       y       z     vdW  Elec       q    Type
REMARK                         _______ _______ _______ _____ _____    ______ ____
ROOT
ATOM      2  O   UNL     1      14.303  12.086  19.685  0.00  0.00    -0.267 OA
ATOM      3  O   UNL     1      15.348   6.393  19.235  0.00  0.00    -0.252 OA
ATOM      4  N   UNL     1      13.553   7.183  20.463  0.00  0.00    -0.284 N 
ATOM      5  N   UNL     1      13.036  10.150  19.395  0.00  0.00    -0.311 N 
ATOM      6  N   UNL     1      15.732   7.226  21.365  0.00  0.00    -0.269 N 
ATOM      8  C   UNL     1      11.961   8.902  21.354  0.00  0.00    +0.027 C 
ATOM      9  C   UNL     1      11.683   8.051  19.067  0.00  0.00    +0.054 C 
ATOM     10  C   UNL     1      10.927   8.456  20.328  0.00  0.00    +0.018 C 
ATOM     11  C   UNL     1      12.951   7.764  21.674  0.00  0.00    +0.114 C 
ATOM     12  C   UNL     1      12.676  10.149  20.820  0.00  0.00    +0.130 C 
ATOM     13  C   UNL     1      12.603   6.861  19.390  0.00  0.00    +0.119 C 
ATOM     14  C   UNL     1      12.504   9.202  18.518  0.00  0.00    +0.027 A 
ATOM     15  C   UNL     1      12.749   9.293  17.201  0.00  0.00    +0.022 A 
ATOM     16  C   UNL     1      13.847  11.211  18.947  0.00  0.00    +0.259 A 
ATOM     17  C   UNL     1      14.924   6.902  20.276  0.00  0.00    +0.306 C 
ATOM     18  C   UNL     1      14.137  11.262  17.472  0.00  0.00    +0.048 A 
ATOM     19  C   UNL     1      13.582  10.336  16.675  0.00  0.00    +0.015 A 
ATOM     31  H   UNL     1      15.328   7.164  22.294  0.00  0.00    +0.156 HD
ENDROOT
BRANCH   6  21
ATOM      1 CL   UNL     1      21.417   8.901  21.240  0.00  0.00    -0.084 Cl
ATOM     21  C   UNL     1      17.091   7.627  21.334  0.00  0.00    +0.035 A 
ATOM     24  C   UNL     1      18.100   6.666  21.257  0.00  0.00    +0.025 A 
ATOM     25  C   UNL     1      17.420   8.981  21.383  0.00  0.00    +0.025 A 
ATOM     28  C   UNL     1      19.437   7.060  21.228  0.00  0.00    +0.022 A 
ATOM     29  C   UNL     1      18.758   9.375  21.353  0.00  0.00    +0.022 A 
ATOM     30  C   UNL     1      19.766   8.415  21.276  0.00  0.00    +0.041 A 
ENDBRANCH   6  21
BRANCH  18  20
ATOM      7  N   UNL     1      15.243  14.375  15.686  0.00  0.00    -0.263 NA
ATOM     20  C   UNL     1      15.017  12.297  16.903  0.00  0.00    +0.005 A 
ATOM     22  C   UNL     1      16.399  12.208  17.021  0.00  0.00    +0.011 A 
ATOM     23  C   UNL     1      14.493  13.391  16.232  0.00  0.00    +0.119 A 
ATOM     26  C   UNL     1      17.204  13.201  16.474  0.00  0.00    +0.020 A 
ATOM     27  C   UNL     1      16.583  14.253  15.822  0.00  0.00    +0.111 A 
ENDBRANCH  18  20
TORSDOF 2
ENDMDL
MODEL 3
REMARK VINA RESULT:      -7.0      2.062      6.095
REMARK  Name = 40533563
REMARK  2 active torsions:
REMARK  status: ('A' for Active; 'I' for Inactive)
REMARK    1  A    between atoms: N_6  and  C_21
REMARK    2  A    between atoms: C_18  and  C_20
REMARK                            x       y       z     vdW  Elec       q    Type
REMARK                         _______ _______ _______ _____ _____    ______ ____
ROOT
ATOM      2  O   UNL     1      13.897   7.265   6.978  0.00  0.00    -0.267 OA
ATOM      3  O   UNL     1       9.601   6.787   3.103  0.00  0.00    -0.252 OA
ATOM      4  N   UNL     1       9.345   6.014   5.268  0.00  0.00    -0.284 N 
ATOM      5  N   UNL     1      11.580   7.529   6.977  0.00  0.00    -0.311 N 
ATOM      6  N   UNL     1      10.542   4.748   3.678  0.00  0.00    -0.269 N 
ATOM      8  C   UNL     1       9.981   5.652   7.666  0.00  0.00    +0.027 C 
ATOM      9  C   UNL     1       9.078   7.824   6.958  0.00  0.00    +0.054 C 
ATOM     10  C   UNL     1       9.043   6.781   8.071  0.00  0.00    +0.018 C 
ATOM     11  C   UNL     1       9.540   5.016   6.332  0.00  0.00    +0.114 C 
ATOM     12  C   UNL     1      11.410   6.203   7.591  0.00  0.00    +0.130 C 
ATOM     13  C   UNL     1       8.556   7.190   5.656  0.00  0.00    +0.119 C 
ATOM     14  C   UNL     1      10.482   8.359   6.742  0.00  0.00    +0.027 A 
ATOM     15  C   UNL     1      10.669   9.610   6.294  0.00  0.00    +0.022 A 
ATOM     16  C   UNL     1      12.902   7.955   6.747  0.00  0.00    +0.259 A 
ATOM     17  C   UNL     1       9.825   5.914   3.944  0.00  0.00    +0.306 C 
ATOM     18  C   UNL     1      13.077   9.348   6.207  0.00  0.00    +0.048 A 
ATOM     19  C   UNL     1      11.986  10.107   6.019  0.00  0.00    +0.015 A 
ATOM     31  H   UNL     1      10.290   3.907   4.187  0.00  0.00    +0.156 HD
ENDROOT
BRANCH   6  21
ATOM      1 CL   UNL     1      14.955   4.063  -0.220  0.00  0.00    -0.084 Cl
ATOM     21  C   UNL     1      11.597   4.584   2.747  0.00  0.00    +0.035 A 
ATOM     24  C   UNL     1      12.469   5.642   2.487  0.00  0.00    +0.025 A 
ATOM     25  C   UNL     1      11.764   3.365   2.090  0.00  0.00    +0.025 A 
ATOM     28  C   UNL     1      13.507   5.481   1.570  0.00  0.00    +0.022 A 
ATOM     29  C   UNL     1      12.803   3.203   1.173  0.00  0.00    +0.022 A 
ATOM     30  C   UNL     1      13.674   4.261   0.913  0.00  0.00    +0.041 A 
ENDBRANCH   6  21
BRANCH  18  20
ATOM      7  N   UNL     1      16.248  10.018   4.311  0.00  0.00    -0.263 NA
ATOM     20  C   UNL     1      14.412   9.877   5.878  0.00  0.00    +0.005 A 
ATOM     22  C   UNL     1      15.096  10.700   6.765  0.00  0.00    +0.011 A 
ATOM     23  C   UNL     1      15.027   9.568   4.674  0.00  0.00    +0.119 A 
ATOM     26  C   UNL     1      16.355  11.184   6.426  0.00  0.00    +0.020 A 
ATOM     27  C   UNL     1      16.883  10.816   5.199  0.00  0.00    +0.111 A 
ENDBRANCH  18  20
TORSDOF 2
ENDMDL
MODEL 4
REMARK VINA RESULT:      -6.9     24.358     26.918
REMARK  Name = 40533563
REMARK  2 active torsions:
REMARK  status: ('A' for Active; 'I' for Inactive)
REMARK    1  A    between atoms: N_6  and  C_21
REMARK    2  A    between atoms: C_18  and  C_20
REMARK                            x       y       z     vdW  Elec       q    Type
REMARK                         _______ _______ _______ _____ _____    ______ ____
ROOT
ATOM      2  O   UNL     1      -1.722 -12.113  12.611  0.00  0.00    -0.267 OA
ATOM      3  O   UNL     1      -7.447 -11.168  12.808  0.00  0.00    -0.252 OA
ATOM      4  N   UNL     1      -6.072  -9.885  11.460  0.00  0.00    -0.284 N 
ATOM      5  N   UNL     1      -3.409 -11.609  11.082  0.00  0.00    -0.311 N 
ATOM      6  N   UNL     1      -6.207  -9.466  13.778  0.00  0.00    -0.269 N 
ATOM      8  C   UNL     1      -3.930  -9.214  10.346  0.00  0.00    +0.027 C 
ATOM      9  C   UNL     1      -5.244 -11.080   9.439  0.00  0.00    +0.054 C 
ATOM     10  C   UNL     1      -4.416  -9.858   9.054  0.00  0.00    +0.018 C 
ATOM     11  C   UNL     1      -5.116  -8.789  11.234  0.00  0.00    +0.114 C 
ATOM     12  C   UNL     1      -3.000 -10.197  11.066  0.00  0.00    +0.130 C 
ATOM     13  C   UNL     1      -6.467 -10.624  10.255  0.00  0.00    +0.119 C 
ATOM     14  C   UNL     1      -4.429 -12.072  10.246  0.00  0.00    +0.027 A 
ATOM     15  C   UNL     1      -4.705 -13.384  10.187  0.00  0.00    +0.022 A 
ATOM     16  C   UNL     1      -2.653 -12.479  11.891  0.00  0.00    +0.259 A 
ATOM     17  C   UNL     1      -6.634 -10.247  12.705  0.00  0.00    +0.306 C 
ATOM     18  C   UNL     1      -3.014 -13.938  11.833  0.00  0.00    +0.048 A 
ATOM     19  C   UNL     1      -3.989 -14.328  10.997  0.00  0.00    +0.015 A 
ATOM     31  H   UNL     1      -5.969  -8.496  13.597  0.00  0.00    +0.156 HD
ENDROOT
BRANCH   6  21
ATOM      1 CL   UNL     1      -5.670 -11.141  19.439  0.00  0.00    -0.084 Cl
ATOM     21  C   UNL     1      -6.079  -9.866  15.131  0.00  0.00    +0.035 A 
ATOM     24  C   UNL     1      -4.855 -10.337  15.606  0.00  0.00    +0.025 A 
ATOM     25  C   UNL     1      -7.177  -9.788  15.988  0.00  0.00    +0.025 A 
ATOM     28  C   UNL     1      -4.729 -10.732  16.938  0.00  0.00    +0.022 A 
ATOM     29  C   UNL     1      -7.050 -10.182  17.321  0.00  0.00    +0.022 A 
ATOM     30  C   UNL     1      -5.826 -10.654  17.795  0.00  0.00    +0.041 A 
ENDBRANCH   6  21
BRANCH  18  20
ATOM      7  N   UNL     1      -1.997 -15.904  14.867  0.00  0.00    -0.263 NA
ATOM     20  C   UNL     1      -2.324 -14.929  12.678  0.00  0.00    +0.005 A 
ATOM     22  C   UNL     1      -1.384 -15.800  12.141  0.00  0.00    +0.011 A 
ATOM     23  C   UNL     1      -2.593 -15.020  14.035  0.00  0.00    +0.119 A 
ATOM     26  C   UNL     1      -0.749 -16.723  12.965  0.00  0.00    +0.020 A 
ATOM     27  C   UNL     1      -1.087 -16.735  14.308  0.00  0.00    +0.111 A 
ENDBRANCH  18  20
TORSDOF 2
ENDMDL
MODEL 5
REMARK VINA RESULT:      -6.7     25.874     28.505
REMARK  Name = 40533563
REMARK  2 active torsions:
REMARK  status: ('A' for Active; 'I' for Inactive)
REMARK    1  A    between atoms: N_6  and  C_21
REMARK    2  A    between atoms: C_18  and  C_20
REMARK                            x       y       z     vdW  Elec       q    Type
REMARK                         _______ _______ _______ _____ _____    ______ ____
ROOT
ATOM      2  O   UNL     1      -7.654  -8.857  17.046  0.00  0.00    -0.267 OA
ATOM      3  O   UNL     1      -5.356 -13.047  13.748  0.00  0.00    -0.252 OA
ATOM      4  N   UNL     1      -4.382 -12.441  15.757  0.00  0.00    -0.284 N 
ATOM      5  N   UNL     1      -6.683 -10.948  17.397  0.00  0.00    -0.311 N 
ATOM      6  N   UNL     1      -4.055 -11.128  13.825  0.00  0.00    -0.269 N 
ATOM      8  C   UNL     1      -4.200 -11.237  17.948  0.00  0.00    +0.027 C 
ATOM      9  C   UNL     1      -5.645 -13.214  17.760  0.00  0.00    +0.054 C 
ATOM     10  C   UNL     1      -4.644 -12.504  18.667  0.00  0.00    +0.018 C 
ATOM     11  C   UNL     1      -3.542 -11.568  16.594  0.00  0.00    +0.114 C 
ATOM     12  C   UNL     1      -5.413 -10.315  17.784  0.00  0.00    +0.130 C 
ATOM     13  C   UNL     1      -4.945 -13.609  16.448  0.00  0.00    +0.119 C 
ATOM     14  C   UNL     1      -6.843 -12.334  17.459  0.00  0.00    +0.027 A 
ATOM     15  C   UNL     1      -8.044 -12.883  17.219  0.00  0.00    +0.022 A 
ATOM     16  C   UNL     1      -7.748 -10.086  17.073  0.00  0.00    +0.259 A 
ATOM     17  C   UNL     1      -4.657 -12.255  14.385  0.00  0.00    +0.306 C 
ATOM     18  C   UNL     1      -9.071 -10.734  16.769  0.00  0.00    +0.048 A 
ATOM     19  C   UNL     1      -9.171 -12.069  16.864  0.00  0.00    +0.015 A 
ATOM     31  H   UNL     1      -3.165 -10.825  14.206  0.00  0.00    +0.156 HD
ENDROOT
BRANCH   6  21
ATOM      1 CL   UNL     1      -6.079  -7.849   9.321  0.00  0.00    -0.084 Cl
ATOM     21  C   UNL     1      -4.538 -10.345  12.749  0.00  0.00    +0.035 A 
ATOM     24  C   UNL     1      -5.790  -9.734  12.837  0.00  0.00    +0.025 A 
ATOM     25  C   UNL     1      -3.763 -10.183  11.601  0.00  0.00    +0.025 A 
ATOM     28  C   UNL     1      -6.266  -8.963  11.777  0.00  0.00    +0.022 A 
ATOM     29  C   UNL     1      -4.239  -9.410  10.541  0.00  0.00    +0.022 A 
ATOM     30  C   UNL     1      -5.491  -8.801  10.629  0.00  0.00    +0.041 A 
ENDBRANCH   6  21
BRANCH  18  20
ATOM      7  N   UNL     1     -11.526  -8.903  14.595  0.00  0.00    -0.263 NA
ATOM     20  C   UNL     1     -10.239  -9.930  16.366  0.00  0.00    +0.005 A 
ATOM     22  C   UNL     1     -11.137  -9.446  17.309  0.00  0.00    +0.011 A 
ATOM     23  C   UNL     1     -10.476  -9.634  15.033  0.00  0.00    +0.119 A 
ATOM     26  C   UNL     1     -12.229  -8.691  16.898  0.00  0.00    +0.020 A 
ATOM     27  C   UNL     1     -12.377  -8.449  15.542  0.00  0.00    +0.111 A 
ENDBRANCH  18  20
TORSDOF 2
ENDMDL
MODEL 6
REMARK VINA RESULT:      -6.6     25.649     28.230
REMARK  Name = 40533563
REMARK  2 active torsions:
REMARK  status: ('A' for Active; 'I' for Inactive)
REMARK    1  A    between atoms: N_6  and  C_21
REMARK    2  A    between atoms: C_18  and  C_20
REMARK                            x       y       z     vdW  Elec       q    Type
REMARK                         _______ _______ _______ _____ _____    ______ ____
ROOT
ATOM      2  O   UNL     1      -6.593 -11.976  12.794  0.00  0.00    -0.267 OA
ATOM      3  O   UNL     1      -6.789  -9.550  18.066  0.00  0.00    -0.252 OA
ATOM      4  N   UNL     1      -6.924 -11.845  17.803  0.00  0.00    -0.284 N 
ATOM      5  N   UNL     1      -5.715 -12.437  14.905  0.00  0.00    -0.311 N 
ATOM      6  N   UNL     1      -8.810 -10.482  17.414  0.00  0.00    -0.269 N 
ATOM      8  C   UNL     1      -6.863 -14.019  16.557  0.00  0.00    +0.027 C 
ATOM      9  C   UNL     1      -4.762 -12.915  17.187  0.00  0.00    +0.054 C 
ATOM     10  C   UNL     1      -5.458 -14.269  17.089  0.00  0.00    +0.018 C 
ATOM     11  C   UNL     1      -7.654 -13.086  17.496  0.00  0.00    +0.114 C 
ATOM     12  C   UNL     1      -6.758 -13.447  15.139  0.00  0.00    +0.130 C 
ATOM     13  C   UNL     1      -5.520 -12.029  18.191  0.00  0.00    +0.119 C 
ATOM     14  C   UNL     1      -4.698 -12.224  15.838  0.00  0.00    +0.027 A 
ATOM     15  C   UNL     1      -3.689 -11.386  15.553  0.00  0.00    +0.022 A 
ATOM     16  C   UNL     1      -5.734 -11.785  13.657  0.00  0.00    +0.259 A 
ATOM     17  C   UNL     1      -7.464 -10.540  17.774  0.00  0.00    +0.306 C 
ATOM     18  C   UNL     1      -4.612 -10.821  13.384  0.00  0.00    +0.048 A 
ATOM     19  C   UNL     1      -3.651 -10.672  14.309  0.00  0.00    +0.015 A 
ATOM     31  H   UNL     1      -9.404 -11.268  17.661  0.00  0.00    +0.156 HD
ENDROOT
BRANCH   6  21
ATOM      1 CL   UNL     1     -11.586  -6.061  14.606  0.00  0.00    -0.084 Cl
ATOM     21  C   UNL     1      -9.473  -9.426  16.743  0.00  0.00    +0.035 A 
ATOM     24  C   UNL     1      -9.944  -8.327  17.464  0.00  0.00    +0.025 A 
ATOM     25  C   UNL     1      -9.655  -9.483  15.361  0.00  0.00    +0.025 A 
ATOM     28  C   UNL     1     -10.597  -7.288  16.803  0.00  0.00    +0.022 A 
ATOM     29  C   UNL     1     -10.308  -8.442  14.700  0.00  0.00    +0.022 A 
ATOM     30  C   UNL     1     -10.779  -7.345  15.421  0.00  0.00    +0.041 A 
ENDBRANCH   6  21
BRANCH  18  20
ATOM      7  N   UNL     1      -5.597  -8.422  10.668  0.00  0.00    -0.263 NA
ATOM     20  C   UNL     1      -4.562 -10.043  12.133  0.00  0.00    +0.005 A 
ATOM     22  C   UNL     1      -3.495 -10.169  11.252  0.00  0.00    +0.011 A 
ATOM     23  C   UNL     1      -5.580  -9.164  11.797  0.00  0.00    +0.119 A 
ATOM     26  C   UNL     1      -3.476  -9.422  10.079  0.00  0.00    +0.020 A 
ATOM     27  C   UNL     1      -4.542  -8.571   9.835  0.00  0.00    +0.111 A 
ENDBRANCH  18  20
TORSDOF 2
ENDMDL
MODEL 7
REMARK VINA RESULT:      -6.5     25.813     28.303
REMARK  Name = 40533563
REMARK  2 active torsions:
REMARK  status: ('A' for Active; 'I' for Inactive)
REMARK    1  A    between atoms: N_6  and  C_21
REMARK    2  A    between atoms: C_18  and  C_20
REMARK                            x       y       z     vdW  Elec       q    Type
REMARK                         _______ _______ _______ _____ _____    ______ ____
ROOT
ATOM      2  O   UNL     1      -8.159  -8.841  16.108  0.00  0.00    -0.267 OA
ATOM      3  O   UNL     1      -4.851 -13.305  14.423  0.00  0.00    -0.252 OA
ATOM      4  N   UNL     1      -4.615 -12.373  16.528  0.00  0.00    -0.284 N 
ATOM      5  N   UNL     1      -7.345 -10.804  17.069  0.00  0.00    -0.311 N 
ATOM      6  N   UNL     1      -3.667 -11.323  14.640  0.00  0.00    -0.269 N 
ATOM      8  C   UNL     1      -5.190 -10.870  18.449  0.00  0.00    +0.027 C 
ATOM      9  C   UNL     1      -6.471 -12.935  18.090  0.00  0.00    +0.054 C 
ATOM     10  C   UNL     1      -5.840 -12.050  19.160  0.00  0.00    +0.018 C 
ATOM     11  C   UNL     1      -4.113 -11.346  17.455  0.00  0.00    +0.114 C 
ATOM     12  C   UNL     1      -6.285 -10.051  17.756  0.00  0.00    +0.130 C 
ATOM     13  C   UNL     1      -5.367 -13.465  17.158  0.00  0.00    +0.119 C 
ATOM     14  C   UNL     1      -7.506 -12.175  17.281  0.00  0.00    +0.027 A 
ATOM     15  C   UNL     1      -8.551 -12.821  16.741  0.00  0.00    +0.022 A 
ATOM     16  C   UNL     1      -8.246 -10.058  16.285  0.00  0.00    +0.259 A 
ATOM     17  C   UNL     1      -4.413 -12.395  15.130  0.00  0.00    +0.306 C 
ATOM     18  C   UNL     1      -9.385 -10.817  15.660  0.00  0.00    +0.048 A 
ATOM     19  C   UNL     1      -9.500 -12.130  15.915  0.00  0.00    +0.015 A 
ATOM     31  H   UNL     1      -2.960 -10.918  15.245  0.00  0.00    +0.156 HD
ENDROOT
BRANCH   6  21
ATOM      1 CL   UNL     1      -4.084  -8.819   9.283  0.00  0.00    -0.084 Cl
ATOM     21  C   UNL     1      -3.767 -10.724  13.360  0.00  0.00    +0.035 A 
ATOM     24  C   UNL     1      -4.989 -10.213  12.922  0.00  0.00    +0.025 A 
ATOM     25  C   UNL     1      -2.643 -10.646  12.538  0.00  0.00    +0.025 A 
ATOM     28  C   UNL     1      -5.087  -9.625  11.662  0.00  0.00    +0.022 A 
ATOM     29  C   UNL     1      -2.741 -10.056  11.277  0.00  0.00    +0.022 A 
ATOM     30  C   UNL     1      -3.963  -9.546  10.839  0.00  0.00    +0.041 A 
ENDBRANCH   6  21
BRANCH  18  20
ATOM      7  N   UNL     1     -10.950  -9.395  12.558  0.00  0.00    -0.263 NA
ATOM     20  C   UNL     1     -10.355 -10.147  14.777  0.00  0.00    +0.005 A 
ATOM     22  C   UNL     1     -11.550  -9.641  15.277  0.00  0.00    +0.011 A 
ATOM     23  C   UNL     1     -10.105  -9.999  13.422  0.00  0.00    +0.119 A 
ATOM     26  C   UNL     1     -12.446  -9.013  14.418  0.00  0.00    +0.020 A 
ATOM     27  C   UNL     1     -12.102  -8.916  13.080  0.00  0.00    +0.111 A 
ENDBRANCH  18  20
TORSDOF 2
ENDMDL
MODEL 8
REMARK VINA RESULT:      -6.5     16.303     18.869
REMARK  Name = 40533563
REMARK  2 active torsions:
REMARK  status: ('A' for Active; 'I' for Inactive)
REMARK    1  A    between atoms: N_6  and  C_21
REMARK    2  A    between atoms: C_18  and  C_20
REMARK                            x       y       z     vdW  Elec       q    Type
REMARK                         _______ _______ _______ _____ _____    ______ ____
ROOT
ATOM      2  O   UNL     1      12.631  11.927  20.146  0.00  0.00    -0.267 OA
ATOM      3  O   UNL     1      14.162  11.416  25.723  0.00  0.00    -0.252 OA
ATOM      4  N   UNL     1      12.867  13.192  24.999  0.00  0.00    -0.284 N 
ATOM      5  N   UNL     1      11.610  12.245  22.218  0.00  0.00    -0.311 N 
ATOM      6  N   UNL     1      15.200  13.191  24.650  0.00  0.00    -0.269 N 
ATOM      8  C   UNL     1      11.512  14.529  23.369  0.00  0.00    +0.027 C 
ATOM      9  C   UNL     1      10.516  12.569  24.464  0.00  0.00    +0.054 C 
ATOM     10  C   UNL     1      10.238  14.000  24.014  0.00  0.00    +0.018 C 
ATOM     11  C   UNL     1      12.689  14.508  24.365  0.00  0.00    +0.114 C 
ATOM     12  C   UNL     1      11.809  13.698  22.115  0.00  0.00    +0.130 C 
ATOM     13  C   UNL     1      11.637  12.580  25.518  0.00  0.00    +0.119 C 
ATOM     14  C   UNL     1      10.917  11.688  23.296  0.00  0.00    +0.027 A 
ATOM     15  C   UNL     1      10.641  10.375  23.311  0.00  0.00    +0.022 A 
ATOM     16  C   UNL     1      12.051  11.466  21.131  0.00  0.00    +0.259 A 
ATOM     17  C   UNL     1      14.094  12.511  25.159  0.00  0.00    +0.306 C 
ATOM     18  C   UNL     1      11.762   9.991  21.197  0.00  0.00    +0.048 A 
ATOM     19  C   UNL     1      11.075   9.516  22.247  0.00  0.00    +0.015 A 
ATOM     31  H   UNL     1      15.182  14.206  24.661  0.00  0.00    +0.156 HD
ENDROOT
BRANCH   6  21
ATOM      1 CL   UNL     1      20.161  10.821  22.436  0.00  0.00    -0.084 Cl
ATOM     21  C   UNL     1      16.385  12.624  24.121  0.00  0.00    +0.035 A 
ATOM     24  C   UNL     1      17.592  12.763  24.808  0.00  0.00    +0.025 A 
ATOM     25  C   UNL     1      16.346  11.927  22.913  0.00  0.00    +0.025 A 
ATOM     28  C   UNL     1      18.759  12.206  24.287  0.00  0.00    +0.022 A 
ATOM     29  C   UNL     1      17.514  11.369  22.393  0.00  0.00    +0.022 A 
ATOM     30  C   UNL     1      18.720  11.509  23.079  0.00  0.00    +0.041 A 
ENDBRANCH   6  21
BRANCH  18  20
ATOM      7  N   UNL     1      11.717   7.778  18.163  0.00  0.00    -0.263 NA
ATOM     20  C   UNL     1      12.226   9.075  20.139  0.00  0.00    +0.005 A 
ATOM     22  C   UNL     1      13.546   8.643  20.093  0.00  0.00    +0.011 A 
ATOM     23  C   UNL     1      11.358   8.618  19.159  0.00  0.00    +0.119 A 
ATOM     26  C   UNL     1      13.953   7.778  19.083  0.00  0.00    +0.020 A 
ATOM     27  C   UNL     1      13.010   7.378  18.151  0.00  0.00    +0.111 A 
ENDBRANCH  18  20
TORSDOF 2
ENDMDL
MODEL 9
REMARK VINA RESULT:      -6.3     42.295     43.973
REMARK  Name = 40533563
REMARK  2 active torsions:
REMARK  status: ('A' for Active; 'I' for Inactive)
REMARK    1  A    between atoms: N_6  and  C_21
REMARK    2  A    between atoms: C_18  and  C_20
REMARK                            x       y       z     vdW  Elec       q    Type
REMARK                         _______ _______ _______ _____ _____    ______ ____
ROOT
ATOM      2  O   UNL     1      -6.795  -5.666  38.817  0.00  0.00    -0.267 OA
ATOM      3  O   UNL     1      -8.523 -10.309  41.843  0.00  0.00    -0.252 OA
ATOM      4  N   UNL     1      -6.278  -9.903  41.461  0.00  0.00    -0.284 N 
ATOM      5  N   UNL     1      -6.092  -6.798  40.731  0.00  0.00    -0.311 N 
ATOM      6  N   UNL     1      -7.627 -10.850  39.774  0.00  0.00    -0.269 N 
ATOM      8  C   UNL     1      -4.282  -8.607  40.673  0.00  0.00    +0.027 C 
ATOM      9  C   UNL     1      -5.353  -8.021  42.804  0.00  0.00    +0.054 C 
ATOM     10  C   UNL     1      -4.004  -8.186  42.110  0.00  0.00    +0.018 C 
ATOM     11  C   UNL     1      -5.067  -9.933  40.624  0.00  0.00    +0.114 C 
ATOM     12  C   UNL     1      -5.032  -7.472  39.966  0.00  0.00    +0.130 C 
ATOM     13  C   UNL     1      -6.083  -9.376  42.817  0.00  0.00    +0.119 C 
ATOM     14  C   UNL     1      -6.211  -6.981  42.110  0.00  0.00    +0.027 A 
ATOM     15  C   UNL     1      -7.106  -6.265  42.808  0.00  0.00    +0.022 A 
ATOM     16  C   UNL     1      -6.897  -5.882  40.026  0.00  0.00    +0.259 A 
ATOM     17  C   UNL     1      -7.560 -10.349  41.073  0.00  0.00    +0.306 C 
ATOM     18  C   UNL     1      -7.918  -5.124  40.830  0.00  0.00    +0.048 A 
ATOM     19  C   UNL     1      -7.973  -5.327  42.155  0.00  0.00    +0.015 A 
ATOM     31  H   UNL     1      -6.801 -11.300  39.393  0.00  0.00    +0.156 HD
ENDROOT
BRANCH   6  21
ATOM      1 CL   UNL     1     -12.294 -10.732  36.120  0.00  0.00    -0.084 Cl
ATOM     21  C   UNL     1      -8.743 -10.821  38.901  0.00  0.00    +0.035 A 
ATOM     24  C   UNL     1      -9.378 -12.011  38.541  0.00  0.00    +0.025 A 
ATOM     25  C   UNL     1      -9.206  -9.604  38.401  0.00  0.00    +0.025 A 
ATOM     28  C   UNL     1     -10.475 -11.983  37.682  0.00  0.00    +0.022 A 
ATOM     29  C   UNL     1     -10.305  -9.577  37.541  0.00  0.00    +0.022 A 
ATOM     30  C   UNL     1     -10.938 -10.766  37.182  0.00  0.00    +0.041 A 
ENDBRANCH   6  21
BRANCH  18  20
ATOM      7  N   UNL     1     -10.838  -3.829  38.856  0.00  0.00    -0.263 NA
ATOM     20  C   UNL     1      -8.849  -4.181  40.185  0.00  0.00    +0.005 A 
ATOM     22  C   UNL     1      -8.656  -2.808  40.274  0.00  0.00    +0.011 A 
ATOM     23  C   UNL     1      -9.946  -4.637  39.471  0.00  0.00    +0.119 A 
ATOM     26  C   UNL     1      -9.552  -1.944  39.655  0.00  0.00    +0.020 A 
ATOM     27  C   UNL     1     -10.617  -2.499  38.964  0.00  0.00    +0.111 A 
ENDBRANCH  18  20
TORSDOF 2
ENDMDL
MODEL 10
REMARK VINA RESULT:      -6.3     24.839     26.999
REMARK  Name = 40533563
REMARK  2 active torsions:
REMARK  status: ('A' for Active; 'I' for Inactive)
REMARK    1  A    between atoms: N_6  and  C_21
REMARK    2  A    between atoms: C_18  and  C_20
REMARK                            x       y       z     vdW  Elec       q    Type
REMARK                         _______ _______ _______ _____ _____    ______ ____
ROOT
ATOM      2  O   UNL     1      -6.347 -12.331  11.251  0.00  0.00    -0.267 OA
ATOM      3  O   UNL     1      -3.293 -10.271  15.738  0.00  0.00    -0.252 OA
ATOM      4  N   UNL     1      -3.106 -12.482  15.082  0.00  0.00    -0.284 N 
ATOM      5  N   UNL     1      -4.178 -12.566  12.074  0.00  0.00    -0.311 N 
ATOM      6  N   UNL     1      -4.949 -11.766  16.370  0.00  0.00    -0.269 N 
ATOM      8  C   UNL     1      -3.496 -14.484  13.625  0.00  0.00    +0.027 C 
ATOM      9  C   UNL     1      -1.834 -12.800  12.966  0.00  0.00    +0.054 C 
ATOM     10  C   UNL     1      -2.108 -14.299  13.024  0.00  0.00    +0.018 C 
ATOM     11  C   UNL     1      -3.572 -13.878  15.041  0.00  0.00    +0.114 C 
ATOM     12  C   UNL     1      -4.528 -13.859  12.680  0.00  0.00    +0.130 C 
ATOM     13  C   UNL     1      -1.833 -12.231  14.395  0.00  0.00    +0.119 C 
ATOM     14  C   UNL     1      -2.871 -12.078  12.126  0.00  0.00    +0.027 A 
ATOM     15  C   UNL     1      -2.545 -10.957  11.464  0.00  0.00    +0.022 A 
ATOM     16  C   UNL     1      -5.193 -11.910  11.351  0.00  0.00    +0.259 A 
ATOM     17  C   UNL     1      -3.761 -11.412  15.731  0.00  0.00    +0.306 C 
ATOM     18  C   UNL     1      -4.807 -10.635  10.653  0.00  0.00    +0.048 A 
ATOM     19  C   UNL     1      -3.531 -10.224  10.722  0.00  0.00    +0.015 A 
ATOM     31  H   UNL     1      -5.026 -12.706  16.746  0.00  0.00    +0.156 HD
ENDROOT
BRANCH   6  21
ATOM      1 CL   UNL     1      -9.705  -8.339  17.248  0.00  0.00    -0.084 Cl
ATOM     21  C   UNL     1      -6.086 -10.948  16.580  0.00  0.00    +0.035 A 
ATOM     24  C   UNL     1      -6.867 -10.547  15.495  0.00  0.00    +0.025 A 
ATOM     25  C   UNL     1      -6.424 -10.541  17.871  0.00  0.00    +0.025 A 
ATOM     28  C   UNL     1      -7.986  -9.741  15.702  0.00  0.00    +0.022 A 
ATOM     29  C   UNL     1      -7.544  -9.735  18.077  0.00  0.00    +0.022 A 
ATOM     30  C   UNL     1      -8.324  -9.335  16.993  0.00  0.00    +0.041 A 
ENDBRANCH   6  21
BRANCH  18  20
ATOM      7  N   UNL     1      -7.761  -8.422   9.963  0.00  0.00    -0.263 NA
ATOM     20  C   UNL     1      -5.802  -9.838   9.914  0.00  0.00    +0.005 A 
ATOM     22  C   UNL     1      -5.754  -9.736   8.529  0.00  0.00    +0.011 A 
ATOM     23  C   UNL     1      -6.817  -9.168  10.578  0.00  0.00    +0.119 A 
ATOM     26  C   UNL     1      -6.707  -8.977   7.859  0.00  0.00    +0.020 A 
ATOM     27  C   UNL     1      -7.682  -8.346   8.615  0.00  0.00    +0.111 A 
ENDBRANCH  18  20
TORSDOF 2
ENDMDL
