REMARK  Name = 11912821
REMARK  6 active torsions:
REMARK  status: ('A' for Active; 'I' for Inactive)
REMARK    1  A    between atoms: O_5  and  C_30
REMARK    2  A    between atoms: O_5  and  C_31
REMARK    3  A    between atoms: N_6  and  C_12
REMARK    4  A    between atoms: N_7  and  C_13
REMARK    5  A    between atoms: C_17  and  C_18
REMARK    6  A    between atoms: C_19  and  C_23
REMARK                            x       y       z     vdW  Elec       q    Type
REMARK                         _______ _______ _______ _____ _____    ______ ____
ROOT
ATOM      2  O   UNL     1      -2.278   2.953   1.456  0.00  0.00    -0.370 OA
ATOM      3  O   UNL     1      -0.869   0.240   2.078  0.00  0.00    -0.370 OA
ATOM     10  C   UNL     1      -0.912   1.082   0.914  0.00  0.00    +0.171 C 
ATOM     11  C   UNL     1      -2.311   1.661   0.829  0.00  0.00    +0.171 C 
ATOM     12  C   UNL     1      -0.024   2.289   1.109  0.00  0.00    +0.130 C 
ATOM     13  C   UNL     1      -3.155   0.704   1.639  0.00  0.00    +0.130 C 
ATOM     14  C   UNL     1      -0.931   3.253   1.851  0.00  0.00    +0.185 C 
ATOM     15  C   UNL     1      -2.171   0.206   2.683  0.00  0.00    +0.185 C 
ENDROOT
BRANCH  12   6
ATOM      6  N   UNL     1       0.349   2.841  -0.175  0.00  0.00    -0.306 N 
ATOM      8  N   UNL     1       2.159   1.365  -0.407  0.00  0.00    -0.214 NA
ATOM      9  N   UNL     1       1.663   2.992  -2.114  0.00  0.00    -0.223 NA
ATOM     16  C   UNL     1       1.422   2.385  -0.921  0.00  0.00    +0.216 A 
ATOM     19  C   UNL     1       3.197   0.946  -1.160  0.00  0.00    +0.076 A 
ATOM     21  C   UNL     1       2.716   2.523  -2.814  0.00  0.00    +0.116 A 
ATOM     22  C   UNL     1       3.526   1.492  -2.383  0.00  0.00    +0.048 A 
ATOM     32  H   UNL     1      -0.224   3.566  -0.592  0.00  0.00    +0.149 HD
BRANCH  19  23
ATOM     23  C   UNL     1       3.965  -0.139  -0.596  0.00  0.00    +0.001 A 
ATOM     26  C   UNL     1       5.326  -0.258  -0.884  0.00  0.00    +0.013 A 
ATOM     27  C   UNL     1       3.348  -1.074   0.238  0.00  0.00    +0.013 A 
ATOM     28  C   UNL     1       6.067  -1.306  -0.340  0.00  0.00    +0.046 A 
ATOM     29  C   UNL     1       4.090  -2.122   0.783  0.00  0.00    +0.046 A 
ATOM     30  C   UNL     1       5.449  -2.239   0.493  0.00  0.00    +0.120 A 
BRANCH  30   5
ATOM      5  O   UNL     1       6.172  -3.263   1.023  0.00  0.00    -0.495 OA
ATOM     31  C   UNL     1       5.477  -4.180   1.867  0.00  0.00    +0.277 C 
ENDBRANCH  30   5
ENDBRANCH  19  23
ENDBRANCH  12   6
BRANCH  13   7
ATOM      4  O   UNL     1      -5.665   0.608   0.356  0.00  0.00    -0.270 OA
ATOM      7  N   UNL     1      -3.644  -0.381   0.823  0.00  0.00    -0.303 N 
ATOM     17  C   UNL     1      -4.902  -0.350   0.222  0.00  0.00    +0.251 C 
ATOM     33  H   UNL     1      -3.011  -1.155   0.656  0.00  0.00    +0.149 HD
BRANCH  17  18
ATOM      1  S   UNL     1      -6.759  -1.532  -1.360  0.00  0.00    -0.092 S 
ATOM     18  C   UNL     1      -5.245  -1.516  -0.606  0.00  0.00    +0.074 A 
ATOM     20  C   UNL     1      -4.481  -2.604  -0.848  0.00  0.00    +0.021 A 
ATOM     24  C   UNL     1      -5.165  -3.518  -1.701  0.00  0.00    +0.008 A 
ATOM     25  C   UNL     1      -6.415  -3.059  -2.055  0.00  0.00    +0.046 A 
ENDBRANCH  17  18
ENDBRANCH  13   7
TORSDOF 5
