REMARK  Name = 11886497
REMARK  6 active torsions:
REMARK  status: ('A' for Active; 'I' for Inactive)
REMARK    1  A    between atoms: O_6  and  C_13
REMARK    2  A    between atoms: O_6  and  C_16
REMARK    3  A    between atoms: N_8  and  C_12
REMARK    4  A    between atoms: N_9  and  C_19
REMARK    5  A    between atoms: C_16  and  C_18
REMARK    6  A    between atoms: C_27  and  C_30
REMARK                            x       y       z     vdW  Elec       q    Type
REMARK                         _______ _______ _______ _____ _____    ______ ____
ROOT
ATOM      7  O   UNL     1      -2.204  -2.566  -0.209  0.00  0.00    -0.252 OA
ATOM      8  N   UNL     1      -0.631  -0.966  -0.767  0.00  0.00    -0.292 N 
ATOM      9  N   UNL     1      -2.800  -0.303  -0.401  0.00  0.00    -0.269 N 
ATOM     17  C   UNL     1      -1.923  -1.391  -0.434  0.00  0.00    +0.304 C 
ATOM     31  H   UNL     1      -0.464   0.030  -0.872  0.00  0.00    +0.151 HD
ATOM     32  H   UNL     1      -2.403   0.608  -0.615  0.00  0.00    +0.156 HD
ENDROOT
BRANCH   8  12
ATOM      4  O   UNL     1       2.448  -0.535  -1.112  0.00  0.00    -0.369 OA
ATOM      5  O   UNL     1       2.057  -3.137   0.462  0.00  0.00    -0.369 OA
ATOM     10  C   UNL     1       1.277  -1.924   0.411  0.00  0.00    +0.172 C 
ATOM     11  C   UNL     1       2.258  -0.776   0.292  0.00  0.00    +0.180 C 
ATOM     12  C   UNL     1       0.492  -1.865  -0.878  0.00  0.00    +0.131 C 
ATOM     13  C   UNL     1       3.502  -1.341   0.936  0.00  0.00    +0.175 C 
ATOM     14  C   UNL     1       1.525  -1.341  -1.861  0.00  0.00    +0.185 C 
ATOM     15  C   UNL     1       3.449  -2.792   0.513  0.00  0.00    +0.194 C 
BRANCH  13   6
ATOM      6  O   UNL     1       4.689  -0.709   0.516  0.00  0.00    -0.367 OA
BRANCH   6  16
ATOM     16  C   UNL     1       4.736   0.659   0.916  0.00  0.00    +0.195 C 
BRANCH  16  18
ATOM     18  C   UNL     1       6.023   1.265   0.437  0.00  0.00    -0.022 A 
ATOM     20  C   UNL     1       7.149   1.222   1.252  0.00  0.00    +0.006 A 
ATOM     21  C   UNL     1       6.077   1.864  -0.816  0.00  0.00    +0.006 A 
ATOM     22  C   UNL     1       8.345   1.786   0.806  0.00  0.00    +0.000 A 
ATOM     23  C   UNL     1       7.273   2.428  -1.261  0.00  0.00    +0.000 A 
ATOM     26  C   UNL     1       8.407   2.389  -0.450  0.00  0.00    +0.000 A 
ENDBRANCH  16  18
ENDBRANCH   6  16
ENDBRANCH  13   6
ENDBRANCH   8  12
BRANCH   9  19
ATOM     19  C   UNL     1      -4.183  -0.312  -0.107  0.00  0.00    +0.035 A 
ATOM     24  C   UNL     1      -4.889   0.880  -0.126  0.00  0.00    +0.035 A 
ATOM     25  C   UNL     1      -4.804  -1.513   0.195  0.00  0.00    +0.023 A 
ATOM     27  C   UNL     1      -6.254   0.870   0.165  0.00  0.00    +0.057 A 
ATOM     28  C   UNL     1      -6.168  -1.523   0.485  0.00  0.00    +0.002 A 
ATOM     29  C   UNL     1      -6.893  -0.331   0.470  0.00  0.00    +0.012 A 
BRANCH  27  30
ATOM      1  F   UNL     1      -6.571   3.075   1.037  0.00  0.00    -0.166 F 
ATOM      2  F   UNL     1      -8.351   1.984   0.450  0.00  0.00    -0.166 F 
ATOM      3  F   UNL     1      -7.003   2.759  -1.071  0.00  0.00    -0.166 F 
ATOM     30  C   UNL     1      -7.029   2.144   0.148  0.00  0.00    +0.417 C 
ENDBRANCH  27  30
ENDBRANCH   9  19
TORSDOF 6
