MODEL 1
REMARK VINA RESULT:      -6.3      0.000      0.000
REMARK  Name = 75537077
REMARK  4 active torsions:
REMARK  status: ('A' for Active; 'I' for Inactive)
REMARK    1  A    between atoms: N_4  and  C_14
REMARK    2  A    between atoms: N_5  and  C_15
REMARK    3  A    between atoms: C_14  and  C_16
REMARK    4  A    between atoms: C_15  and  C_17
REMARK                            x       y       z     vdW  Elec       q    Type
REMARK                         _______ _______ _______ _____ _____    ______ ____
ROOT
ATOM      2  O   UNL     1      15.772   9.618  20.455  0.00  0.00    -0.252 OA
ATOM      3  N   UNL     1      17.241   7.828  20.849  0.00  0.00    -0.278 N 
ATOM      4  N   UNL     1      19.671   6.444  21.146  0.00  0.00    -0.293 NA
ATOM      5  N   UNL     1      15.460   7.470  19.529  0.00  0.00    -0.278 N 
ATOM      8  C   UNL     1      17.282   6.409  20.561  0.00  0.00    +0.109 C 
ATOM      9  C   UNL     1      18.690   5.991  20.140  0.00  0.00    +0.109 C 
ATOM     10  C   UNL     1      16.210   6.227  19.488  0.00  0.00    +0.133 C 
ATOM     11  C   UNL     1      18.253   8.405  21.710  0.00  0.00    +0.125 C 
ATOM     12  C   UNL     1      19.640   7.912  21.290  0.00  0.00    +0.104 C 
ATOM     13  C   UNL     1      16.112   8.452  20.302  0.00  0.00    +0.306 C 
ENDROOT
BRANCH   4  14
ATOM     14  C   UNL     1      21.016   5.995  20.783  0.00  0.00    +0.147 C 
BRANCH  14  16
ATOM      1  S   UNL     1      22.035   3.473  21.335  0.00  0.00    -0.079 S 
ATOM      6  N   UNL     1      21.792   5.375  23.069  0.00  0.00    -0.251 NA
ATOM     16  C   UNL     1      21.594   5.062  21.808  0.00  0.00    +0.092 A 
ATOM     19  C   UNL     1      22.539   3.161  22.944  0.00  0.00    +0.066 A 
ATOM     20  C   UNL     1      22.335   4.283  23.719  0.00  0.00    +0.119 A 
ENDBRANCH  14  16
ENDBRANCH   4  14
BRANCH   5  15
ATOM     15  C   UNL     1      14.270   7.675  18.733  0.00  0.00    +0.164 C 
BRANCH  15  17
ATOM      7  N   UNL     1      12.854   6.648  20.419  0.00  0.00    -0.258 NA
ATOM     17  C   UNL     1      13.027   7.690  19.574  0.00  0.00    +0.059 A 
ATOM     18  C   UNL     1      12.137   8.744  19.451  0.00  0.00    +0.025 A 
ATOM     21  C   UNL     1      10.995   8.728  20.246  0.00  0.00    +0.003 A 
ATOM     22  C   UNL     1      11.734   6.667  21.175  0.00  0.00    +0.111 A 
ATOM     23  C   UNL     1      10.783   7.673  21.127  0.00  0.00    +0.020 A 
ENDBRANCH  15  17
ENDBRANCH   5  15
TORSDOF 4
ENDMDL
MODEL 2
REMARK VINA RESULT:      -5.8     31.097     33.692
REMARK  Name = 75537077
REMARK  4 active torsions:
REMARK  status: ('A' for Active; 'I' for Inactive)
REMARK    1  A    between atoms: N_4  and  C_14
REMARK    2  A    between atoms: N_5  and  C_15
REMARK    3  A    between atoms: C_14  and  C_16
REMARK    4  A    between atoms: C_15  and  C_17
REMARK                            x       y       z     vdW  Elec       q    Type
REMARK                         _______ _______ _______ _____ _____    ______ ____
ROOT
ATOM      2  O   UNL     1     -17.136   2.097  22.504  0.00  0.00    -0.252 OA
ATOM      3  N   UNL     1     -16.452   2.315  24.741  0.00  0.00    -0.278 N 
ATOM      4  N   UNL     1     -16.494   2.024  27.538  0.00  0.00    -0.293 NA
ATOM      5  N   UNL     1     -16.359   4.128  23.420  0.00  0.00    -0.278 N 
ATOM      8  C   UNL     1     -15.827   3.330  25.563  0.00  0.00    +0.109 C 
ATOM      9  C   UNL     1     -16.482   3.375  26.943  0.00  0.00    +0.109 C 
ATOM     10  C   UNL     1     -15.980   4.608  24.738  0.00  0.00    +0.133 C 
ATOM     11  C   UNL     1     -16.650   0.987  25.285  0.00  0.00    +0.125 C 
ATOM     12  C   UNL     1     -17.250   1.082  26.690  0.00  0.00    +0.104 C 
ATOM     13  C   UNL     1     -16.700   2.761  23.436  0.00  0.00    +0.306 C 
ENDROOT
BRANCH   4  14
ATOM     14  C   UNL     1     -17.062   2.066  28.885  0.00  0.00    +0.147 C 
BRANCH  14  16
ATOM      1  S   UNL     1     -15.334   2.331  31.041  0.00  0.00    -0.079 S 
ATOM      6  N   UNL     1     -16.004   0.081  29.958  0.00  0.00    -0.251 NA
ATOM     16  C   UNL     1     -16.181   1.382  29.890  0.00  0.00    +0.092 A 
ATOM     19  C   UNL     1     -14.667   0.893  31.697  0.00  0.00    +0.066 A 
ATOM     20  C   UNL     1     -15.135  -0.197  30.995  0.00  0.00    +0.119 A 
ENDBRANCH  14  16
ENDBRANCH   4  14
BRANCH   5  15
ATOM     15  C   UNL     1     -16.501   5.021  22.291  0.00  0.00    +0.164 C 
BRANCH  15  17
ATOM      7  N   UNL     1     -15.241   6.820  21.252  0.00  0.00    -0.258 NA
ATOM     17  C   UNL     1     -15.188   5.627  21.887  0.00  0.00    +0.059 A 
ATOM     18  C   UNL     1     -14.012   4.955  22.176  0.00  0.00    +0.025 A 
ATOM     21  C   UNL     1     -12.813   5.544  21.788  0.00  0.00    +0.003 A 
ATOM     22  C   UNL     1     -14.057   7.362  20.891  0.00  0.00    +0.111 A 
ATOM     23  C   UNL     1     -12.828   6.771  21.133  0.00  0.00    +0.020 A 
ENDBRANCH  15  17
ENDBRANCH   5  15
TORSDOF 4
ENDMDL
MODEL 3
REMARK VINA RESULT:      -5.6      5.289      9.093
REMARK  Name = 75537077
REMARK  4 active torsions:
REMARK  status: ('A' for Active; 'I' for Inactive)
REMARK    1  A    between atoms: N_4  and  C_14
REMARK    2  A    between atoms: N_5  and  C_15
REMARK    3  A    between atoms: C_14  and  C_16
REMARK    4  A    between atoms: C_15  and  C_17
REMARK                            x       y       z     vdW  Elec       q    Type
REMARK                         _______ _______ _______ _____ _____    ______ ____
ROOT
ATOM      2  O   UNL     1      13.605  10.173  19.225  0.00  0.00    -0.252 OA
ATOM      3  N   UNL     1      12.053  10.514  20.955  0.00  0.00    -0.278 N 
ATOM      4  N   UNL     1      10.973  11.511  23.353  0.00  0.00    -0.293 NA
ATOM      5  N   UNL     1      12.362   8.422  20.202  0.00  0.00    -0.278 N 
ATOM      8  C   UNL     1      11.068   9.725  21.664  0.00  0.00    +0.109 C 
ATOM      9  C   UNL     1      11.096  10.053  23.156  0.00  0.00    +0.109 C 
ATOM     10  C   UNL     1      11.441   8.284  21.317  0.00  0.00    +0.133 C 
ATOM     11  C   UNL     1      12.118  11.942  21.190  0.00  0.00    +0.125 C 
ATOM     12  C   UNL     1      12.083  12.227  22.693  0.00  0.00    +0.104 C 
ATOM     13  C   UNL     1      12.775   9.757  20.023  0.00  0.00    +0.306 C 
ENDROOT
BRANCH   4  14
ATOM     14  C   UNL     1      10.937  11.831  24.780  0.00  0.00    +0.147 C 
BRANCH  14  16
ATOM      1  S   UNL     1      12.393  13.929  25.868  0.00  0.00    -0.079 S 
ATOM      6  N   UNL     1      10.131  14.185  24.643  0.00  0.00    -0.251 NA
ATOM     16  C   UNL     1      11.031  13.309  25.028  0.00  0.00    +0.092 A 
ATOM     19  C   UNL     1      11.739  15.507  25.712  0.00  0.00    +0.066 A 
ATOM     20  C   UNL     1      10.538  15.445  25.037  0.00  0.00    +0.119 A 
ENDBRANCH  14  16
ENDBRANCH   4  14
BRANCH   5  15
ATOM     15  C   UNL     1      12.879   7.274  19.489  0.00  0.00    +0.164 C 
BRANCH  15  17
ATOM      7  N   UNL     1      14.602   6.930  21.167  0.00  0.00    -0.258 NA
ATOM     17  C   UNL     1      14.309   6.988  19.848  0.00  0.00    +0.059 A 
ATOM     18  C   UNL     1      15.238   6.801  18.839  0.00  0.00    +0.025 A 
ATOM     21  C   UNL     1      16.553   6.536  19.205  0.00  0.00    +0.003 A 
ATOM     22  C   UNL     1      15.889   6.670  21.485  0.00  0.00    +0.111 A 
ATOM     23  C   UNL     1      16.893   6.468  20.553  0.00  0.00    +0.020 A 
ENDBRANCH  15  17
ENDBRANCH   5  15
TORSDOF 4
ENDMDL
MODEL 4
REMARK VINA RESULT:      -5.6      5.242      8.405
REMARK  Name = 75537077
REMARK  4 active torsions:
REMARK  status: ('A' for Active; 'I' for Inactive)
REMARK    1  A    between atoms: N_4  and  C_14
REMARK    2  A    between atoms: N_5  and  C_15
REMARK    3  A    between atoms: C_14  and  C_16
REMARK    4  A    between atoms: C_15  and  C_17
REMARK                            x       y       z     vdW  Elec       q    Type
REMARK                         _______ _______ _______ _____ _____    ______ ____
ROOT
ATOM      2  O   UNL     1      12.568  10.124  19.670  0.00  0.00    -0.252 OA
ATOM      3  N   UNL     1      11.420  10.723  21.630  0.00  0.00    -0.278 N 
ATOM      4  N   UNL     1      10.823  12.114  24.000  0.00  0.00    -0.293 NA
ATOM      5  N   UNL     1      11.734   8.540  21.208  0.00  0.00    -0.278 N 
ATOM      8  C   UNL     1      10.693  10.042  22.681  0.00  0.00    +0.109 C 
ATOM      9  C   UNL     1      11.026  10.652  24.042  0.00  0.00    +0.109 C 
ATOM     10  C   UNL     1      11.103   8.579  22.516  0.00  0.00    +0.133 C 
ATOM     11  C   UNL     1      11.411  12.170  21.586  0.00  0.00    +0.125 C 
ATOM     12  C   UNL     1      11.689  12.738  22.981  0.00  0.00    +0.104 C 
ATOM     13  C   UNL     1      11.978   9.833  20.703  0.00  0.00    +0.306 C 
ENDROOT
BRANCH   4  14
ATOM     14  C   UNL     1      11.080  12.701  25.316  0.00  0.00    +0.147 C 
BRANCH  14  16
ATOM      1  S   UNL     1      13.262  14.391  25.605  0.00  0.00    -0.079 S 
ATOM      6  N   UNL     1      13.351  11.818  25.842  0.00  0.00    -0.251 NA
ATOM     16  C   UNL     1      12.549  12.830  25.596  0.00  0.00    +0.092 A 
ATOM     19  C   UNL     1      14.776  13.670  25.968  0.00  0.00    +0.066 A 
ATOM     20  C   UNL     1      14.627  12.302  26.055  0.00  0.00    +0.119 A 
ENDBRANCH  14  16
ENDBRANCH   4  14
BRANCH   5  15
ATOM     15  C   UNL     1      12.177   7.301  20.608  0.00  0.00    +0.164 C 
BRANCH  15  17
ATOM      7  N   UNL     1      14.182   7.012  19.267  0.00  0.00    -0.258 NA
ATOM     17  C   UNL     1      13.673   7.232  20.500  0.00  0.00    +0.059 A 
ATOM     18  C   UNL     1      14.444   7.393  21.639  0.00  0.00    +0.025 A 
ATOM     21  C   UNL     1      15.827   7.325  21.505  0.00  0.00    +0.003 A 
ATOM     22  C   UNL     1      15.529   6.952  19.175  0.00  0.00    +0.111 A 
ATOM     23  C   UNL     1      16.387   7.101  20.252  0.00  0.00    +0.020 A 
ENDBRANCH  15  17
ENDBRANCH   5  15
TORSDOF 4
ENDMDL
MODEL 5
REMARK VINA RESULT:      -5.6      3.150      8.405
REMARK  Name = 75537077
REMARK  4 active torsions:
REMARK  status: ('A' for Active; 'I' for Inactive)
REMARK    1  A    between atoms: N_4  and  C_14
REMARK    2  A    between atoms: N_5  and  C_15
REMARK    3  A    between atoms: C_14  and  C_16
REMARK    4  A    between atoms: C_15  and  C_17
REMARK                            x       y       z     vdW  Elec       q    Type
REMARK                         _______ _______ _______ _____ _____    ______ ____
ROOT
ATOM      2  O   UNL     1      18.429   5.236  19.303  0.00  0.00    -0.252 OA
ATOM      3  N   UNL     1      17.050   6.721  20.491  0.00  0.00    -0.278 N 
ATOM      4  N   UNL     1      14.923   8.489  21.002  0.00  0.00    -0.293 NA
ATOM      5  N   UNL     1      19.275   6.952  20.684  0.00  0.00    -0.278 N 
ATOM      8  C   UNL     1      17.222   7.759  21.486  0.00  0.00    +0.109 C 
ATOM      9  C   UNL     1      16.315   8.949  21.176  0.00  0.00    +0.109 C 
ATOM     10  C   UNL     1      18.719   8.062  21.437  0.00  0.00    +0.133 C 
ATOM     11  C   UNL     1      15.712   6.298  20.133  0.00  0.00    +0.125 C 
ATOM     12  C   UNL     1      14.824   7.521  19.891  0.00  0.00    +0.104 C 
ATOM     13  C   UNL     1      18.271   6.180  20.066  0.00  0.00    +0.306 C 
ENDROOT
BRANCH   4  14
ATOM     14  C   UNL     1      14.036   9.628  20.766  0.00  0.00    +0.147 C 
BRANCH  14  16
ATOM      1  S   UNL     1      12.361  10.976  22.522  0.00  0.00    -0.079 S 
ATOM      6  N   UNL     1      12.042   8.523  21.773  0.00  0.00    -0.251 NA
ATOM     16  C   UNL     1      12.813   9.579  21.635  0.00  0.00    +0.092 A 
ATOM     19  C   UNL     1      11.019  10.114  23.150  0.00  0.00    +0.066 A 
ATOM     20  C   UNL     1      11.014   8.832  22.642  0.00  0.00    +0.119 A 
ENDBRANCH  14  16
ENDBRANCH   4  14
BRANCH   5  15
ATOM     15  C   UNL     1      20.700   6.791  20.495  0.00  0.00    +0.164 C 
BRANCH  15  17
ATOM      7  N   UNL     1      21.661   6.065  22.605  0.00  0.00    -0.258 NA
ATOM     17  C   UNL     1      21.262   5.704  21.364  0.00  0.00    +0.059 A 
ATOM     18  C   UNL     1      21.344   4.414  20.869  0.00  0.00    +0.025 A 
ATOM     21  C   UNL     1      21.869   3.429  21.700  0.00  0.00    +0.003 A 
ATOM     22  C   UNL     1      22.165   5.083  23.384  0.00  0.00    +0.111 A 
ATOM     23  C   UNL     1      22.290   3.763  22.984  0.00  0.00    +0.020 A 
ENDBRANCH  15  17
ENDBRANCH   5  15
TORSDOF 4
ENDMDL
MODEL 6
REMARK VINA RESULT:      -5.5     28.740     31.596
REMARK  Name = 75537077
REMARK  4 active torsions:
REMARK  status: ('A' for Active; 'I' for Inactive)
REMARK    1  A    between atoms: N_4  and  C_14
REMARK    2  A    between atoms: N_5  and  C_15
REMARK    3  A    between atoms: C_14  and  C_16
REMARK    4  A    between atoms: C_15  and  C_17
REMARK                            x       y       z     vdW  Elec       q    Type
REMARK                         _______ _______ _______ _____ _____    ______ ____
ROOT
ATOM      2  O   UNL     1     -12.679  -8.196  13.245  0.00  0.00    -0.252 OA
ATOM      3  N   UNL     1     -10.812  -8.070  14.665  0.00  0.00    -0.278 N 
ATOM      4  N   UNL     1      -8.811  -8.917  16.450  0.00  0.00    -0.293 NA
ATOM      5  N   UNL     1     -12.364  -6.454  14.804  0.00  0.00    -0.278 N 
ATOM      8  C   UNL     1     -10.260  -7.118  15.605  0.00  0.00    +0.109 C 
ATOM      9  C   UNL     1      -9.737  -7.837  16.847  0.00  0.00    +0.109 C 
ATOM     10  C   UNL     1     -11.416  -6.151  15.862  0.00  0.00    +0.133 C 
ATOM     11  C   UNL     1     -10.046  -9.250  14.319  0.00  0.00    +0.125 C 
ATOM     12  C   UNL     1      -9.491  -9.903  15.588  0.00  0.00    +0.104 C 
ATOM     13  C   UNL     1     -12.031  -7.642  14.123  0.00  0.00    +0.306 C 
ENDROOT
BRANCH   4  14
ATOM     14  C   UNL     1      -8.257  -9.573  17.635  0.00  0.00    +0.147 C 
BRANCH  14  16
ATOM      1  S   UNL     1      -6.087 -11.031  18.567  0.00  0.00    -0.079 S 
ATOM      6  N   UNL     1      -6.063  -9.544  16.452  0.00  0.00    -0.251 NA
ATOM     16  C   UNL     1      -6.820  -9.965  17.441  0.00  0.00    +0.092 A 
ATOM     19  C   UNL     1      -4.628 -10.935  17.670  0.00  0.00    +0.066 A 
ATOM     20  C   UNL     1      -4.806 -10.102  16.586  0.00  0.00    +0.119 A 
ENDBRANCH  14  16
ENDBRANCH   4  14
BRANCH   5  15
ATOM     15  C   UNL     1     -13.571  -5.680  14.613  0.00  0.00    +0.164 C 
BRANCH  15  17
ATOM      7  N   UNL     1     -14.650  -4.853  12.600  0.00  0.00    -0.258 NA
ATOM     17  C   UNL     1     -13.525  -4.869  13.351  0.00  0.00    +0.059 A 
ATOM     18  C   UNL     1     -12.363  -4.193  13.021  0.00  0.00    +0.025 A 
ATOM     21  C   UNL     1     -12.354  -3.450  11.845  0.00  0.00    +0.003 A 
ATOM     22  C   UNL     1     -14.604  -4.121  11.465  0.00  0.00    +0.111 A 
ATOM     23  C   UNL     1     -13.493  -3.408  11.046  0.00  0.00    +0.020 A 
ENDBRANCH  15  17
ENDBRANCH   5  15
TORSDOF 4
ENDMDL
MODEL 7
REMARK VINA RESULT:      -5.5     27.794     29.949
REMARK  Name = 75537077
REMARK  4 active torsions:
REMARK  status: ('A' for Active; 'I' for Inactive)
REMARK    1  A    between atoms: N_4  and  C_14
REMARK    2  A    between atoms: N_5  and  C_15
REMARK    3  A    between atoms: C_14  and  C_16
REMARK    4  A    between atoms: C_15  and  C_17
REMARK                            x       y       z     vdW  Elec       q    Type
REMARK                         _______ _______ _______ _____ _____    ______ ____
ROOT
ATOM      2  O   UNL     1      -3.809 -14.084  14.317  0.00  0.00    -0.252 OA
ATOM      3  N   UNL     1      -4.387 -12.506  15.958  0.00  0.00    -0.278 N 
ATOM      4  N   UNL     1      -6.013 -10.920  17.616  0.00  0.00    -0.293 NA
ATOM      5  N   UNL     1      -2.755 -11.982  14.508  0.00  0.00    -0.278 N 
ATOM      8  C   UNL     1      -3.883 -11.231  16.425  0.00  0.00    +0.109 C 
ATOM      9  C   UNL     1      -5.040 -10.275  16.712  0.00  0.00    +0.109 C 
ATOM     10  C   UNL     1      -2.942 -10.783  15.307  0.00  0.00    +0.133 C 
ATOM     11  C   UNL     1      -5.453 -13.157  16.691  0.00  0.00    +0.125 C 
ATOM     12  C   UNL     1      -6.560 -12.149  17.010  0.00  0.00    +0.104 C 
ATOM     13  C   UNL     1      -3.666 -12.997  14.862  0.00  0.00    +0.306 C 
ENDROOT
BRANCH   4  14
ATOM     14  C   UNL     1      -7.093  -9.990  17.947  0.00  0.00    +0.147 C 
BRANCH  14  16
ATOM      1  S   UNL     1      -9.762 -10.717  17.707  0.00  0.00    -0.079 S 
ATOM      6  N   UNL     1      -8.252 -11.302  19.722  0.00  0.00    -0.251 NA
ATOM     16  C   UNL     1      -8.272 -10.692  18.558  0.00  0.00    +0.092 A 
ATOM     19  C   UNL     1     -10.451 -11.620  18.991  0.00  0.00    +0.066 A 
ATOM     20  C   UNL     1      -9.502 -11.834  19.968  0.00  0.00    +0.119 A 
ENDBRANCH  14  16
ENDBRANCH   4  14
BRANCH   5  15
ATOM     15  C   UNL     1      -1.834 -12.023  13.394  0.00  0.00    +0.164 C 
BRANCH  15  17
ATOM      7  N   UNL     1      -3.407 -11.659  11.579  0.00  0.00    -0.258 NA
ATOM     17  C   UNL     1      -2.317 -11.200  12.235  0.00  0.00    +0.059 A 
ATOM     18  C   UNL     1      -1.642 -10.039  11.899  0.00  0.00    +0.025 A 
ATOM     21  C   UNL     1      -2.116  -9.299  10.821  0.00  0.00    +0.003 A 
ATOM     22  C   UNL     1      -3.839 -10.914  10.537  0.00  0.00    +0.111 A 
ATOM     23  C   UNL     1      -3.236  -9.738  10.121  0.00  0.00    +0.020 A 
ENDBRANCH  15  17
ENDBRANCH   5  15
TORSDOF 4
ENDMDL
MODEL 8
REMARK VINA RESULT:      -5.3     28.616     31.058
REMARK  Name = 75537077
REMARK  4 active torsions:
REMARK  status: ('A' for Active; 'I' for Inactive)
REMARK    1  A    between atoms: N_4  and  C_14
REMARK    2  A    between atoms: N_5  and  C_15
REMARK    3  A    between atoms: C_14  and  C_16
REMARK    4  A    between atoms: C_15  and  C_17
REMARK                            x       y       z     vdW  Elec       q    Type
REMARK                         _______ _______ _______ _____ _____    ______ ____
ROOT
ATOM      2  O   UNL     1     -13.129  10.230  20.693  0.00  0.00    -0.252 OA
ATOM      3  N   UNL     1     -13.596   7.970  21.132  0.00  0.00    -0.278 N 
ATOM      4  N   UNL     1     -14.429   5.691  22.554  0.00  0.00    -0.293 NA
ATOM      5  N   UNL     1     -11.666   8.476  20.101  0.00  0.00    -0.278 N 
ATOM      8  C   UNL     1     -13.012   6.686  20.806  0.00  0.00    +0.109 C 
ATOM      9  C   UNL     1     -13.054   5.758  22.020  0.00  0.00    +0.109 C 
ATOM     10  C   UNL     1     -11.607   7.041  20.318  0.00  0.00    +0.133 C 
ATOM     11  C   UNL     1     -14.881   8.015  21.797  0.00  0.00    +0.125 C 
ATOM     12  C   UNL     1     -14.900   7.027  22.967  0.00  0.00    +0.104 C 
ATOM     13  C   UNL     1     -12.837   9.042  20.644  0.00  0.00    +0.306 C 
ENDROOT
BRANCH   4  14
ATOM     14  C   UNL     1     -14.493   4.757  23.678  0.00  0.00    +0.147 C 
BRANCH  14  16
ATOM      1  S   UNL     1     -16.171   2.984  24.999  0.00  0.00    -0.079 S 
ATOM      6  N   UNL     1     -16.458   3.728  22.540  0.00  0.00    -0.251 NA
ATOM     16  C   UNL     1     -15.706   3.875  23.608  0.00  0.00    +0.092 A 
ATOM     19  C   UNL     1     -17.492   2.340  24.115  0.00  0.00    +0.066 A 
ATOM     20  C   UNL     1     -17.481   2.848  22.833  0.00  0.00    +0.119 A 
ENDBRANCH  14  16
ENDBRANCH   4  14
BRANCH   5  15
ATOM     15  C   UNL     1     -10.560   9.210  19.526  0.00  0.00    +0.164 C 
BRANCH  15  17
ATOM      7  N   UNL     1     -11.026  10.593  17.584  0.00  0.00    -0.258 NA
ATOM     17  C   UNL     1     -10.700   9.362  18.039  0.00  0.00    +0.059 A 
ATOM     18  C   UNL     1     -10.493   8.263  17.222  0.00  0.00    +0.025 A 
ATOM     21  C   UNL     1     -10.628   8.438  15.849  0.00  0.00    +0.003 A 
ATOM     22  C   UNL     1     -11.149  10.725  16.245  0.00  0.00    +0.111 A 
ATOM     23  C   UNL     1     -10.963   9.690  15.343  0.00  0.00    +0.020 A 
ENDBRANCH  15  17
ENDBRANCH   5  15
TORSDOF 4
ENDMDL
MODEL 9
REMARK VINA RESULT:      -5.3      3.542      7.973
REMARK  Name = 75537077
REMARK  4 active torsions:
REMARK  status: ('A' for Active; 'I' for Inactive)
REMARK    1  A    between atoms: N_4  and  C_14
REMARK    2  A    between atoms: N_5  and  C_15
REMARK    3  A    between atoms: C_14  and  C_16
REMARK    4  A    between atoms: C_15  and  C_17
REMARK                            x       y       z     vdW  Elec       q    Type
REMARK                         _______ _______ _______ _____ _____    ______ ____
ROOT
ATOM      2  O   UNL     1      20.598   6.157  20.479  0.00  0.00    -0.252 OA
ATOM      3  N   UNL     1      18.278   6.519  20.420  0.00  0.00    -0.278 N 
ATOM      4  N   UNL     1      15.692   6.804  19.351  0.00  0.00    -0.293 NA
ATOM      5  N   UNL     1      19.532   7.873  21.700  0.00  0.00    -0.278 N 
ATOM      8  C   UNL     1      17.319   7.356  21.112  0.00  0.00    +0.109 C 
ATOM      9  C   UNL     1      16.288   7.908  20.129  0.00  0.00    +0.109 C 
ATOM     10  C   UNL     1      18.187   8.413  21.794  0.00  0.00    +0.133 C 
ATOM     11  C   UNL     1      17.800   5.497  19.512  0.00  0.00    +0.125 C 
ATOM     12  C   UNL     1      16.727   6.079  18.588  0.00  0.00    +0.104 C 
ATOM     13  C   UNL     1      19.596   6.769  20.826  0.00  0.00    +0.306 C 
ENDROOT
BRANCH   4  14
ATOM     14  C   UNL     1      14.660   7.316  18.450  0.00  0.00    +0.147 C 
BRANCH  14  16
ATOM      1  S   UNL     1      12.435   8.952  18.732  0.00  0.00    -0.079 S 
ATOM      6  N   UNL     1      12.882   6.821  20.126  0.00  0.00    -0.251 NA
ATOM     16  C   UNL     1      13.367   7.578  19.167  0.00  0.00    +0.092 A 
ATOM     19  C   UNL     1      11.277   8.511  19.918  0.00  0.00    +0.066 A 
ATOM     20  C   UNL     1      11.684   7.357  20.554  0.00  0.00    +0.119 A 
ENDBRANCH  14  16
ENDBRANCH   4  14
BRANCH   5  15
ATOM     15  C   UNL     1      20.663   8.520  22.327  0.00  0.00    +0.164 C 
BRANCH  15  17
ATOM      7  N   UNL     1      20.594   9.653  24.475  0.00  0.00    -0.258 NA
ATOM     17  C   UNL     1      20.580   8.467  23.825  0.00  0.00    +0.059 A 
ATOM     18  C   UNL     1      20.496   7.238  24.457  0.00  0.00    +0.025 A 
ATOM     21  C   UNL     1      20.419   7.224  25.846  0.00  0.00    +0.003 A 
ATOM     22  C   UNL     1      20.518   9.600  25.823  0.00  0.00    +0.111 A 
ATOM     23  C   UNL     1      20.430   8.425  26.550  0.00  0.00    +0.020 A 
ENDBRANCH  15  17
ENDBRANCH   5  15
TORSDOF 4
ENDMDL
MODEL 10
REMARK VINA RESULT:      -5.3     27.628     29.620
REMARK  Name = 75537077
REMARK  4 active torsions:
REMARK  status: ('A' for Active; 'I' for Inactive)
REMARK    1  A    between atoms: N_4  and  C_14
REMARK    2  A    between atoms: N_5  and  C_15
REMARK    3  A    between atoms: C_14  and  C_16
REMARK    4  A    between atoms: C_15  and  C_17
REMARK                            x       y       z     vdW  Elec       q    Type
REMARK                         _______ _______ _______ _____ _____    ______ ____
ROOT
ATOM      2  O   UNL     1      -1.441 -10.841  15.202  0.00  0.00    -0.252 OA
ATOM      3  N   UNL     1      -2.786 -10.749  13.278  0.00  0.00    -0.278 N 
ATOM      4  N   UNL     1      -3.640  -9.997  10.706  0.00  0.00    -0.293 NA
ATOM      5  N   UNL     1      -3.792 -10.654  15.283  0.00  0.00    -0.278 N 
ATOM      8  C   UNL     1      -4.202 -10.766  12.974  0.00  0.00    +0.109 C 
ATOM      9  C   UNL     1      -4.521  -9.762  11.867  0.00  0.00    +0.109 C 
ATOM     10  C   UNL     1      -4.864 -10.470  14.319  0.00  0.00    +0.133 C 
ATOM     11  C   UNL     1      -1.829 -10.824  12.193  0.00  0.00    +0.125 C 
ATOM     12  C   UNL     1      -2.221  -9.846  11.082  0.00  0.00    +0.104 C 
ATOM     13  C   UNL     1      -2.535 -10.763  14.656  0.00  0.00    +0.306 C 
ENDROOT
BRANCH   4  14
ATOM     14  C   UNL     1      -3.979  -9.081   9.617  0.00  0.00    +0.147 C 
BRANCH  14  16
ATOM      1  S   UNL     1      -4.837 -11.096   7.911  0.00  0.00    -0.079 S 
ATOM      6  N   UNL     1      -6.246  -9.035   8.580  0.00  0.00    -0.251 NA
ATOM     16  C   UNL     1      -5.081  -9.620   8.751  0.00  0.00    +0.092 A 
ATOM     19  C   UNL     1      -6.417 -10.958   7.259  0.00  0.00    +0.066 A 
ATOM     20  C   UNL     1      -7.010  -9.804   7.725  0.00  0.00    +0.119 A 
ENDBRANCH  14  16
ENDBRANCH   4  14
BRANCH   5  15
ATOM     15  C   UNL     1      -4.022 -10.574  16.709  0.00  0.00    +0.164 C 
BRANCH  15  17
ATOM      7  N   UNL     1      -5.030 -12.774  16.924  0.00  0.00    -0.258 NA
ATOM     17  C   UNL     1      -5.164 -11.446  17.143  0.00  0.00    +0.059 A 
ATOM     18  C   UNL     1      -6.274 -10.866  17.733  0.00  0.00    +0.025 A 
ATOM     21  C   UNL     1      -7.315 -11.702  18.125  0.00  0.00    +0.003 A 
ATOM     22  C   UNL     1      -6.060 -13.555  17.318  0.00  0.00    +0.111 A 
ATOM     23  C   UNL     1      -7.213 -13.074  17.917  0.00  0.00    +0.020 A 
ENDBRANCH  15  17
ENDBRANCH   5  15
TORSDOF 4
ENDMDL
