MODEL 1
REMARK VINA RESULT:      -8.5      0.000      0.000
REMARK  Name = 11883406
REMARK  8 active torsions:
REMARK  status: ('A' for Active; 'I' for Inactive)
REMARK    1  A    between atoms: O_6  and  C_16
REMARK    2  A    between atoms: O_6  and  C_20
REMARK    3  A    between atoms: N_10  and  C_15
REMARK    4  A    between atoms: N_11  and  C_21
REMARK    5  A    between atoms: N_12  and  C_22
REMARK    6  A    between atoms: C_29  and  C_33
REMARK    7  A    between atoms: C_30  and  C_34
REMARK    8  A    between atoms: C_34  and  C_35
REMARK                            x       y       z     vdW  Elec       q    Type
REMARK                         _______ _______ _______ _____ _____    ______ ____
ROOT
ATOM      4  O   UNL     1     -15.789   2.497  24.668  0.00  0.00    -0.368 OA
ATOM      5  O   UNL     1     -18.296   4.065  25.480  0.00  0.00    -0.368 OA
ATOM     13  C   UNL     1     -16.948   4.497  25.197  0.00  0.00    +0.173 C 
ATOM     14  C   UNL     1     -16.021   3.427  25.738  0.00  0.00    +0.192 C 
ATOM     15  C   UNL     1     -16.698   4.471  23.707  0.00  0.00    +0.131 C 
ATOM     16  C   UNL     1     -16.844   2.812  26.845  0.00  0.00    +0.235 C 
ATOM     17  C   UNL     1     -16.371   3.010  23.459  0.00  0.00    +0.185 C 
ATOM     18  C   UNL     1     -18.243   2.870  26.273  0.00  0.00    +0.207 C 
ENDROOT
BRANCH  15  10
ATOM      7  O   UNL     1     -15.819   5.116  21.057  0.00  0.00    -0.252 OA
ATOM     10  N   UNL     1     -15.592   5.326  23.348  0.00  0.00    -0.292 N 
ATOM     11  N   UNL     1     -14.123   6.447  21.984  0.00  0.00    -0.269 N 
ATOM     19  C   UNL     1     -15.226   5.590  22.022  0.00  0.00    +0.304 C 
ATOM     36  H   UNL     1     -15.094   5.809  24.090  0.00  0.00    +0.151 HD
ATOM     37  H   UNL     1     -13.747   6.749  22.880  0.00  0.00    +0.156 HD
BRANCH  11  21
ATOM     21  C   UNL     1     -13.454   6.949  20.844  0.00  0.00    +0.035 A 
ATOM     23  C   UNL     1     -12.065   6.853  20.751  0.00  0.00    +0.024 A 
ATOM     24  C   UNL     1     -14.182   7.543  19.812  0.00  0.00    +0.024 A 
ATOM     27  C   UNL     1     -11.405   7.349  19.627  0.00  0.00    +0.013 A 
ATOM     28  C   UNL     1     -13.522   8.040  18.689  0.00  0.00    +0.013 A 
ATOM     30  C   UNL     1     -12.134   7.943  18.595  0.00  0.00    +0.017 A 
BRANCH  30  34
ATOM      9  O   UNL     1     -11.947   8.381  16.286  0.00  0.00    -0.292 OA
ATOM     34  C   UNL     1     -11.445   8.461  17.424  0.00  0.00    +0.160 C 
ATOM     35  C   UNL     1     -10.076   9.119  17.565  0.00  0.00    +0.091 C 
ENDBRANCH  30  34
ENDBRANCH  11  21
ENDBRANCH  15  10
BRANCH  16   6
ATOM      6  O   UNL     1     -16.456   1.496  27.169  0.00  0.00    -0.442 OA
BRANCH   6  20
ATOM      8  O   UNL     1     -17.003   0.237  28.998  0.00  0.00    -0.226 OA
ATOM     12  N   UNL     1     -15.551   2.066  29.155  0.00  0.00    -0.251 N 
ATOM     20  C   UNL     1     -16.390   1.177  28.509  0.00  0.00    +0.405 C 
ATOM     38  H   UNL     1     -15.129   2.787  28.576  0.00  0.00    +0.158 HD
BRANCH  12  22
ATOM     22  C   UNL     1     -15.207   2.098  30.525  0.00  0.00    +0.037 A 
ATOM     25  C   UNL     1     -15.009   3.322  31.167  0.00  0.00    +0.035 A 
ATOM     26  C   UNL     1     -15.063   0.907  31.237  0.00  0.00    +0.023 A 
ATOM     29  C   UNL     1     -14.667   3.353  32.519  0.00  0.00    +0.057 A 
ATOM     31  C   UNL     1     -14.722   0.939  32.588  0.00  0.00    +0.002 A 
ATOM     32  C   UNL     1     -14.525   2.161  33.230  0.00  0.00    +0.012 A 
BRANCH  29  33
ATOM      1  F   UNL     1     -13.676   5.529  32.493  0.00  0.00    -0.166 F 
ATOM      2  F   UNL     1     -13.843   4.547  34.420  0.00  0.00    -0.166 F 
ATOM      3  F   UNL     1     -15.622   5.325  33.442  0.00  0.00    -0.166 F 
ATOM     33  C   UNL     1     -14.454   4.660  33.204  0.00  0.00    +0.417 C 
ENDBRANCH  29  33
ENDBRANCH  12  22
ENDBRANCH   6  20
ENDBRANCH  16   6
TORSDOF 7
ENDMDL
MODEL 2
REMARK VINA RESULT:      -8.0     28.519     31.809
REMARK  Name = 11883406
REMARK  8 active torsions:
REMARK  status: ('A' for Active; 'I' for Inactive)
REMARK    1  A    between atoms: O_6  and  C_16
REMARK    2  A    between atoms: O_6  and  C_20
REMARK    3  A    between atoms: N_10  and  C_15
REMARK    4  A    between atoms: N_11  and  C_21
REMARK    5  A    between atoms: N_12  and  C_22
REMARK    6  A    between atoms: C_29  and  C_33
REMARK    7  A    between atoms: C_30  and  C_34
REMARK    8  A    between atoms: C_34  and  C_35
REMARK                            x       y       z     vdW  Elec       q    Type
REMARK                         _______ _______ _______ _____ _____    ______ ____
ROOT
ATOM      4  O   UNL     1      13.882   7.950  19.207  0.00  0.00    -0.368 OA
ATOM      5  O   UNL     1      10.863   8.056  19.738  0.00  0.00    -0.368 OA
ATOM     13  C   UNL     1      11.784   9.055  19.253  0.00  0.00    +0.173 C 
ATOM     14  C   UNL     1      13.088   8.850  19.998  0.00  0.00    +0.192 C 
ATOM     15  C   UNL     1      12.142   8.775  17.812  0.00  0.00    +0.131 C 
ATOM     16  C   UNL     1      12.630   8.207  21.286  0.00  0.00    +0.235 C 
ATOM     17  C   UNL     1      13.227   7.721  17.949  0.00  0.00    +0.185 C 
ATOM     18  C   UNL     1      11.480   7.343  20.820  0.00  0.00    +0.207 C 
ENDROOT
BRANCH  15  10
ATOM      7  O   UNL     1      13.004   8.994  15.089  0.00  0.00    -0.252 OA
ATOM     10  N   UNL     1      12.640   9.960  17.158  0.00  0.00    -0.292 N 
ATOM     11  N   UNL     1      13.478  11.263  15.461  0.00  0.00    -0.269 N 
ATOM     19  C   UNL     1      13.044   9.983  15.816  0.00  0.00    +0.304 C 
ATOM     36  H   UNL     1      12.640  10.834  17.675  0.00  0.00    +0.151 HD
ATOM     37  H   UNL     1      13.448  11.974  16.188  0.00  0.00    +0.156 HD
BRANCH  11  21
ATOM     21  C   UNL     1      13.961  11.697  14.205  0.00  0.00    +0.035 A 
ATOM     23  C   UNL     1      13.110  12.364  13.322  0.00  0.00    +0.024 A 
ATOM     24  C   UNL     1      15.288  11.458  13.847  0.00  0.00    +0.024 A 
ATOM     27  C   UNL     1      13.586  12.792  12.083  0.00  0.00    +0.013 A 
ATOM     28  C   UNL     1      15.764  11.886  12.608  0.00  0.00    +0.013 A 
ATOM     30  C   UNL     1      14.914  12.553  11.726  0.00  0.00    +0.017 A 
BRANCH  30  34
ATOM      9  O   UNL     1      14.701  13.672   9.662  0.00  0.00    -0.292 OA
ATOM     34  C   UNL     1      15.410  12.999  10.434  0.00  0.00    +0.160 C 
ATOM     35  C   UNL     1      16.827  12.646   9.990  0.00  0.00    +0.091 C 
ENDBRANCH  30  34
ENDBRANCH  11  21
ENDBRANCH  15  10
BRANCH  16   6
ATOM      6  O   UNL     1      13.634   7.455  21.927  0.00  0.00    -0.442 OA
BRANCH   6  20
ATOM      8  O   UNL     1      15.004   9.118  22.693  0.00  0.00    -0.226 OA
ATOM     12  N   UNL     1      15.839   7.301  21.477  0.00  0.00    -0.251 N 
ATOM     20  C   UNL     1      14.862   8.063  22.089  0.00  0.00    +0.405 C 
ATOM     38  H   UNL     1      15.525   6.448  21.021  0.00  0.00    +0.158 HD
BRANCH  12  22
ATOM     22  C   UNL     1      17.227   7.561  21.404  0.00  0.00    +0.037 A 
ATOM     25  C   UNL     1      18.120   6.519  21.151  0.00  0.00    +0.035 A 
ATOM     26  C   UNL     1      17.704   8.859  21.588  0.00  0.00    +0.023 A 
ATOM     29  C   UNL     1      19.489   6.775  21.082  0.00  0.00    +0.057 A 
ATOM     31  C   UNL     1      19.073   9.115  21.518  0.00  0.00    +0.002 A 
ATOM     32  C   UNL     1      19.965   8.074  21.264  0.00  0.00    +0.012 A 
BRANCH  29  33
ATOM      1  F   UNL     1      20.913   5.059  21.946  0.00  0.00    -0.166 F 
ATOM      2  F   UNL     1      21.559   6.050  20.128  0.00  0.00    -0.166 F 
ATOM      3  F   UNL     1      19.887   4.661  20.070  0.00  0.00    -0.166 F 
ATOM     33  C   UNL     1      20.443   5.662  20.813  0.00  0.00    +0.417 C 
ENDBRANCH  29  33
ENDBRANCH  12  22
ENDBRANCH   6  20
ENDBRANCH  16   6
TORSDOF 7
ENDMDL
MODEL 3
REMARK VINA RESULT:      -7.9      5.925     12.645
REMARK  Name = 11883406
REMARK  8 active torsions:
REMARK  status: ('A' for Active; 'I' for Inactive)
REMARK    1  A    between atoms: O_6  and  C_16
REMARK    2  A    between atoms: O_6  and  C_20
REMARK    3  A    between atoms: N_10  and  C_15
REMARK    4  A    between atoms: N_11  and  C_21
REMARK    5  A    between atoms: N_12  and  C_22
REMARK    6  A    between atoms: C_29  and  C_33
REMARK    7  A    between atoms: C_30  and  C_34
REMARK    8  A    between atoms: C_34  and  C_35
REMARK                            x       y       z     vdW  Elec       q    Type
REMARK                         _______ _______ _______ _____ _____    ______ ____
ROOT
ATOM      4  O   UNL     1     -15.885   7.395  23.169  0.00  0.00    -0.368 OA
ATOM      5  O   UNL     1     -15.860   4.724  21.661  0.00  0.00    -0.368 OA
ATOM     13  C   UNL     1     -15.639   5.039  23.052  0.00  0.00    +0.173 C 
ATOM     14  C   UNL     1     -14.893   6.358  23.092  0.00  0.00    +0.192 C 
ATOM     15  C   UNL     1     -16.955   5.347  23.728  0.00  0.00    +0.131 C 
ATOM     16  C   UNL     1     -14.176   6.367  21.762  0.00  0.00    +0.235 C 
ATOM     17  C   UNL     1     -17.180   6.800  23.349  0.00  0.00    +0.185 C 
ATOM     18  C   UNL     1     -15.182   5.698  20.853  0.00  0.00    +0.207 C 
ENDROOT
BRANCH  15  10
ATOM      7  O   UNL     1     -16.217   2.965  25.138  0.00  0.00    -0.252 OA
ATOM     10  N   UNL     1     -16.857   5.187  25.159  0.00  0.00    -0.292 N 
ATOM     11  N   UNL     1     -16.479   4.126  27.161  0.00  0.00    -0.269 N 
ATOM     19  C   UNL     1     -16.488   3.982  25.771  0.00  0.00    +0.304 C 
ATOM     36  H   UNL     1     -17.000   6.001  25.748  0.00  0.00    +0.151 HD
ATOM     37  H   UNL     1     -16.732   5.040  27.528  0.00  0.00    +0.156 HD
BRANCH  11  21
ATOM     21  C   UNL     1     -16.162   3.148  28.133  0.00  0.00    +0.035 A 
ATOM     23  C   UNL     1     -15.148   3.389  29.061  0.00  0.00    +0.024 A 
ATOM     24  C   UNL     1     -16.862   1.941  28.163  0.00  0.00    +0.024 A 
ATOM     27  C   UNL     1     -14.835   2.425  30.019  0.00  0.00    +0.013 A 
ATOM     28  C   UNL     1     -16.549   0.977  29.120  0.00  0.00    +0.013 A 
ATOM     30  C   UNL     1     -15.536   1.218  30.048  0.00  0.00    +0.017 A 
BRANCH  30  34
ATOM      9  O   UNL     1     -15.287  -1.006  30.793  0.00  0.00    -0.292 OA
ATOM     34  C   UNL     1     -15.209   0.213  31.046  0.00  0.00    +0.160 C 
ATOM     35  C   UNL     1     -14.759   0.632  32.442  0.00  0.00    +0.091 C 
ENDBRANCH  30  34
ENDBRANCH  11  21
ENDBRANCH  15  10
BRANCH  16   6
ATOM      6  O   UNL     1     -13.834   7.660  21.317  0.00  0.00    -0.442 OA
BRANCH   6  20
ATOM      8  O   UNL     1     -11.661   7.142  20.832  0.00  0.00    -0.226 OA
ATOM     12  N   UNL     1     -12.866   8.697  19.563  0.00  0.00    -0.251 N 
ATOM     20  C   UNL     1     -12.675   7.779  20.579  0.00  0.00    +0.405 C 
ATOM     38  H   UNL     1     -13.786   9.126  19.513  0.00  0.00    +0.158 HD
BRANCH  12  22
ATOM     22  C   UNL     1     -11.938   9.114  18.583  0.00  0.00    +0.037 A 
ATOM     25  C   UNL     1     -11.986   8.569  17.299  0.00  0.00    +0.035 A 
ATOM     26  C   UNL     1     -10.972  10.071  18.899  0.00  0.00    +0.023 A 
ATOM     29  C   UNL     1     -11.068   8.980  16.332  0.00  0.00    +0.057 A 
ATOM     31  C   UNL     1     -10.056  10.481  17.931  0.00  0.00    +0.002 A 
ATOM     32  C   UNL     1     -10.104   9.937  16.648  0.00  0.00    +0.012 A 
BRANCH  29  33
ATOM      1  F   UNL     1     -10.889   9.308  13.970  0.00  0.00    -0.166 F 
ATOM      2  F   UNL     1     -12.322   7.828  14.652  0.00  0.00    -0.166 F 
ATOM      3  F   UNL     1     -10.191   7.413  14.775  0.00  0.00    -0.166 F 
ATOM     33  C   UNL     1     -11.118   8.396  14.961  0.00  0.00    +0.417 C 
ENDBRANCH  29  33
ENDBRANCH  12  22
ENDBRANCH   6  20
ENDBRANCH  16   6
TORSDOF 7
ENDMDL
MODEL 4
REMARK VINA RESULT:      -7.9     16.737     17.958
REMARK  Name = 11883406
REMARK  8 active torsions:
REMARK  status: ('A' for Active; 'I' for Inactive)
REMARK    1  A    between atoms: O_6  and  C_16
REMARK    2  A    between atoms: O_6  and  C_20
REMARK    3  A    between atoms: N_10  and  C_15
REMARK    4  A    between atoms: N_11  and  C_21
REMARK    5  A    between atoms: N_12  and  C_22
REMARK    6  A    between atoms: C_29  and  C_33
REMARK    7  A    between atoms: C_30  and  C_34
REMARK    8  A    between atoms: C_34  and  C_35
REMARK                            x       y       z     vdW  Elec       q    Type
REMARK                         _______ _______ _______ _____ _____    ______ ____
ROOT
ATOM      4  O   UNL     1      -9.623  -8.491  17.618  0.00  0.00    -0.368 OA
ATOM      5  O   UNL     1     -11.358 -10.650  16.302  0.00  0.00    -0.368 OA
ATOM     13  C   UNL     1     -11.558  -9.230  16.464  0.00  0.00    +0.173 C 
ATOM     14  C   UNL     1     -10.997  -8.859  17.822  0.00  0.00    +0.192 C 
ATOM     15  C   UNL     1     -10.686  -8.470  15.492  0.00  0.00    +0.131 C 
ATOM     16  C   UNL     1     -11.121 -10.153  18.591  0.00  0.00    +0.235 C 
ATOM     17  C   UNL     1      -9.348  -8.448  16.209  0.00  0.00    +0.185 C 
ATOM     18  C   UNL     1     -10.833 -11.186  17.526  0.00  0.00    +0.207 C 
ENDROOT
BRANCH  15  10
ATOM      7  O   UNL     1     -12.151  -7.542  13.212  0.00  0.00    -0.252 OA
ATOM     10  N   UNL     1     -11.188  -7.135  15.274  0.00  0.00    -0.292 N 
ATOM     11  N   UNL     1     -12.254  -5.412  14.193  0.00  0.00    -0.269 N 
ATOM     19  C   UNL     1     -11.898  -6.761  14.126  0.00  0.00    +0.304 C 
ATOM     36  H   UNL     1     -11.076  -6.450  16.015  0.00  0.00    +0.151 HD
ATOM     37  H   UNL     1     -11.964  -4.902  15.024  0.00  0.00    +0.156 HD
BRANCH  11  21
ATOM     21  C   UNL     1     -12.974  -4.656  13.238  0.00  0.00    +0.035 A 
ATOM     23  C   UNL     1     -14.344  -4.446  13.403  0.00  0.00    +0.024 A 
ATOM     24  C   UNL     1     -12.316  -4.121  12.130  0.00  0.00    +0.024 A 
ATOM     27  C   UNL     1     -15.054  -3.702  12.461  0.00  0.00    +0.013 A 
ATOM     28  C   UNL     1     -13.026  -3.377  11.189  0.00  0.00    +0.013 A 
ATOM     30  C   UNL     1     -14.395  -3.167  11.353  0.00  0.00    +0.017 A 
BRANCH  30  34
ATOM      9  O   UNL     1     -16.104  -1.679  10.702  0.00  0.00    -0.292 OA
ATOM     34  C   UNL     1     -15.135  -2.392  10.372  0.00  0.00    +0.160 C 
ATOM     35  C   UNL     1     -14.739  -2.435   8.899  0.00  0.00    +0.091 C 
ENDBRANCH  30  34
ENDBRANCH  11  21
ENDBRANCH  15  10
BRANCH  16   6
ATOM      6  O   UNL     1     -10.230 -10.248  19.679  0.00  0.00    -0.442 OA
BRANCH   6  20
ATOM      8  O   UNL     1      -9.151 -12.264  19.702  0.00  0.00    -0.226 OA
ATOM     12  N   UNL     1      -8.048 -10.286  19.111  0.00  0.00    -0.251 N 
ATOM     20  C   UNL     1      -9.124 -11.055  19.511  0.00  0.00    +0.405 C 
ATOM     38  H   UNL     1      -8.222  -9.290  19.005  0.00  0.00    +0.158 HD
BRANCH  12  22
ATOM     22  C   UNL     1      -6.730 -10.714  18.831  0.00  0.00    +0.037 A 
ATOM     25  C   UNL     1      -6.196 -10.539  17.553  0.00  0.00    +0.035 A 
ATOM     26  C   UNL     1      -5.963 -11.313  19.831  0.00  0.00    +0.023 A 
ATOM     29  C   UNL     1      -4.896 -10.962  17.277  0.00  0.00    +0.057 A 
ATOM     31  C   UNL     1      -4.664 -11.735  19.554  0.00  0.00    +0.002 A 
ATOM     32  C   UNL     1      -4.130 -11.560  18.277  0.00  0.00    +0.012 A 
BRANCH  29  33
ATOM      1  F   UNL     1      -4.335 -11.915  15.157  0.00  0.00    -0.166 F 
ATOM      2  F   UNL     1      -3.026 -10.360  15.913  0.00  0.00    -0.166 F 
ATOM      3  F   UNL     1      -5.008  -9.848  15.180  0.00  0.00    -0.166 F 
ATOM     33  C   UNL     1      -4.327 -10.777  15.912  0.00  0.00    +0.417 C 
ENDBRANCH  29  33
ENDBRANCH  12  22
ENDBRANCH   6  20
ENDBRANCH  16   6
TORSDOF 7
ENDMDL
MODEL 5
REMARK VINA RESULT:      -7.8     31.626     35.054
REMARK  Name = 11883406
REMARK  8 active torsions:
REMARK  status: ('A' for Active; 'I' for Inactive)
REMARK    1  A    between atoms: O_6  and  C_16
REMARK    2  A    between atoms: O_6  and  C_20
REMARK    3  A    between atoms: N_10  and  C_15
REMARK    4  A    between atoms: N_11  and  C_21
REMARK    5  A    between atoms: N_12  and  C_22
REMARK    6  A    between atoms: C_29  and  C_33
REMARK    7  A    between atoms: C_30  and  C_34
REMARK    8  A    between atoms: C_34  and  C_35
REMARK                            x       y       z     vdW  Elec       q    Type
REMARK                         _______ _______ _______ _____ _____    ______ ____
ROOT
ATOM      4  O   UNL     1      21.251   5.093  22.694  0.00  0.00    -0.368 OA
ATOM      5  O   UNL     1      23.029   6.178  20.443  0.00  0.00    -0.368 OA
ATOM     13  C   UNL     1      21.750   5.510  20.413  0.00  0.00    +0.173 C 
ATOM     14  C   UNL     1      21.774   4.466  21.511  0.00  0.00    +0.192 C 
ATOM     15  C   UNL     1      20.658   6.462  20.843  0.00  0.00    +0.131 C 
ATOM     16  C   UNL     1      23.248   4.165  21.644  0.00  0.00    +0.235 C 
ATOM     17  C   UNL     1      20.751   6.397  22.357  0.00  0.00    +0.185 C 
ATOM     18  C   UNL     1      23.874   5.520  21.398  0.00  0.00    +0.207 C 
ENDROOT
BRANCH  15  10
ATOM      7  O   UNL     1      18.224   7.973  20.850  0.00  0.00    -0.252 OA
ATOM     10  N   UNL     1      19.367   6.020  20.376  0.00  0.00    -0.292 N 
ATOM     11  N   UNL     1      17.122   6.132  19.898  0.00  0.00    -0.269 N 
ATOM     19  C   UNL     1      18.221   6.825  20.415  0.00  0.00    +0.304 C 
ATOM     36  H   UNL     1      19.297   5.105  19.940  0.00  0.00    +0.151 HD
ATOM     37  H   UNL     1      17.290   5.181  19.580  0.00  0.00    +0.156 HD
BRANCH  11  21
ATOM     21  C   UNL     1      15.792   6.592  19.764  0.00  0.00    +0.035 A 
ATOM     23  C   UNL     1      14.922   6.539  20.854  0.00  0.00    +0.024 A 
ATOM     24  C   UNL     1      15.348   7.097  18.542  0.00  0.00    +0.024 A 
ATOM     27  C   UNL     1      13.610   6.992  20.722  0.00  0.00    +0.013 A 
ATOM     28  C   UNL     1      14.035   7.550  18.409  0.00  0.00    +0.013 A 
ATOM     30  C   UNL     1      13.166   7.497  19.499  0.00  0.00    +0.017 A 
BRANCH  30  34
ATOM      9  O   UNL     1      11.273   8.126  18.241  0.00  0.00    -0.292 OA
ATOM     34  C   UNL     1      11.797   7.969  19.361  0.00  0.00    +0.160 C 
ATOM     35  C   UNL     1      10.965   8.286  20.599  0.00  0.00    +0.091 C 
ENDBRANCH  30  34
ENDBRANCH  11  21
ENDBRANCH  15  10
BRANCH  16   6
ATOM      6  O   UNL     1      23.604   3.635  22.900  0.00  0.00    -0.442 OA
BRANCH   6  20
ATOM      8  O   UNL     1      23.822   1.479  22.170  0.00  0.00    -0.226 OA
ATOM     12  N   UNL     1      23.010   1.976  24.308  0.00  0.00    -0.251 N 
ATOM     20  C   UNL     1      23.505   2.268  23.051  0.00  0.00    +0.405 C 
ATOM     38  H   UNL     1      22.803   2.772  24.906  0.00  0.00    +0.158 HD
BRANCH  12  22
ATOM     22  C   UNL     1      22.755   0.704  24.869  0.00  0.00    +0.037 A 
ATOM     25  C   UNL     1      21.441   0.255  25.011  0.00  0.00    +0.035 A 
ATOM     26  C   UNL     1      23.816  -0.102  25.282  0.00  0.00    +0.023 A 
ATOM     29  C   UNL     1      21.190  -1.000  25.566  0.00  0.00    +0.057 A 
ATOM     31  C   UNL     1      23.564  -1.356  25.836  0.00  0.00    +0.002 A 
ATOM     32  C   UNL     1      22.251  -1.806  25.978  0.00  0.00    +0.012 A 
BRANCH  29  33
ATOM      1  F   UNL     1      18.854  -0.599  25.250  0.00  0.00    -0.166 F 
ATOM      2  F   UNL     1      19.429  -1.720  27.016  0.00  0.00    -0.166 F 
ATOM      3  F   UNL     1      19.554  -2.648  25.054  0.00  0.00    -0.166 F 
ATOM     33  C   UNL     1      19.787  -1.479  25.720  0.00  0.00    +0.417 C 
ENDBRANCH  29  33
ENDBRANCH  12  22
ENDBRANCH   6  20
ENDBRANCH  16   6
TORSDOF 7
ENDMDL
MODEL 6
REMARK VINA RESULT:      -7.8      4.192     10.102
REMARK  Name = 11883406
REMARK  8 active torsions:
REMARK  status: ('A' for Active; 'I' for Inactive)
REMARK    1  A    between atoms: O_6  and  C_16
REMARK    2  A    between atoms: O_6  and  C_20
REMARK    3  A    between atoms: N_10  and  C_15
REMARK    4  A    between atoms: N_11  and  C_21
REMARK    5  A    between atoms: N_12  and  C_22
REMARK    6  A    between atoms: C_29  and  C_33
REMARK    7  A    between atoms: C_30  and  C_34
REMARK    8  A    between atoms: C_34  and  C_35
REMARK                            x       y       z     vdW  Elec       q    Type
REMARK                         _______ _______ _______ _____ _____    ______ ____
ROOT
ATOM      4  O   UNL     1     -16.044   7.636  22.806  0.00  0.00    -0.368 OA
ATOM      5  O   UNL     1     -14.717   5.268  21.378  0.00  0.00    -0.368 OA
ATOM     13  C   UNL     1     -14.862   5.580  22.780  0.00  0.00    +0.173 C 
ATOM     14  C   UNL     1     -14.722   7.083  22.913  0.00  0.00    +0.192 C 
ATOM     15  C   UNL     1     -16.280   5.308  23.227  0.00  0.00    +0.131 C 
ATOM     16  C   UNL     1     -13.870   7.438  21.717  0.00  0.00    +0.235 C 
ATOM     17  C   UNL     1     -17.004   6.567  22.786  0.00  0.00    +0.185 C 
ATOM     18  C   UNL     1     -14.367   6.467  20.671  0.00  0.00    +0.207 C 
ENDROOT
BRANCH  15  10
ATOM      7  O   UNL     1     -15.807   2.887  24.684  0.00  0.00    -0.252 OA
ATOM     10  N   UNL     1     -16.352   5.134  24.658  0.00  0.00    -0.292 N 
ATOM     11  N   UNL     1     -16.248   4.044  26.677  0.00  0.00    -0.269 N 
ATOM     19  C   UNL     1     -16.105   3.910  25.294  0.00  0.00    +0.304 C 
ATOM     36  H   UNL     1     -16.527   5.950  25.236  0.00  0.00    +0.151 HD
ATOM     37  H   UNL     1     -16.503   4.966  27.024  0.00  0.00    +0.156 HD
BRANCH  11  21
ATOM     21  C   UNL     1     -16.085   3.047  27.667  0.00  0.00    +0.035 A 
ATOM     23  C   UNL     1     -15.305   3.305  28.795  0.00  0.00    +0.024 A 
ATOM     24  C   UNL     1     -16.703   1.805  27.516  0.00  0.00    +0.024 A 
ATOM     27  C   UNL     1     -15.144   2.322  29.771  0.00  0.00    +0.013 A 
ATOM     28  C   UNL     1     -16.541   0.822  28.491  0.00  0.00    +0.013 A 
ATOM     30  C   UNL     1     -15.762   1.080  29.619  0.00  0.00    +0.017 A 
BRANCH  30  34
ATOM      9  O   UNL     1     -16.085  -1.083  30.502  0.00  0.00    -0.292 OA
ATOM     34  C   UNL     1     -15.593   0.055  30.636  0.00  0.00    +0.160 C 
ATOM     35  C   UNL     1     -14.801   0.354  31.906  0.00  0.00    +0.091 C 
ENDBRANCH  30  34
ENDBRANCH  11  21
ENDBRANCH  15  10
BRANCH  16   6
ATOM      6  O   UNL     1     -14.008   8.779  21.307  0.00  0.00    -0.442 OA
BRANCH   6  20
ATOM      8  O   UNL     1     -12.326  10.323  21.432  0.00  0.00    -0.226 OA
ATOM     12  N   UNL     1     -13.684   9.833  23.274  0.00  0.00    -0.251 N 
ATOM     20  C   UNL     1     -13.243   9.717  21.970  0.00  0.00    +0.405 C 
ATOM     38  H   UNL     1     -14.467   9.241  23.539  0.00  0.00    +0.158 HD
BRANCH  12  22
ATOM     22  C   UNL     1     -13.180  10.676  24.291  0.00  0.00    +0.037 A 
ATOM     25  C   UNL     1     -12.252  10.184  25.210  0.00  0.00    +0.035 A 
ATOM     26  C   UNL     1     -13.611  12.000  24.377  0.00  0.00    +0.023 A 
ATOM     29  C   UNL     1     -11.756  11.016  26.214  0.00  0.00    +0.057 A 
ATOM     31  C   UNL     1     -13.115  12.831  25.380  0.00  0.00    +0.002 A 
ATOM     32  C   UNL     1     -12.187  12.340  26.298  0.00  0.00    +0.012 A 
BRANCH  29  33
ATOM      1  F   UNL     1     -11.044   9.223  27.627  0.00  0.00    -0.166 F 
ATOM      2  F   UNL     1     -10.671  11.241  28.333  0.00  0.00    -0.166 F 
ATOM      3  F   UNL     1      -9.500  10.433  26.688  0.00  0.00    -0.166 F 
ATOM     33  C   UNL     1     -10.766  10.490  27.196  0.00  0.00    +0.417 C 
ENDBRANCH  29  33
ENDBRANCH  12  22
ENDBRANCH   6  20
ENDBRANCH  16   6
TORSDOF 7
ENDMDL
MODEL 7
REMARK VINA RESULT:      -7.7     29.094     30.968
REMARK  Name = 11883406
REMARK  8 active torsions:
REMARK  status: ('A' for Active; 'I' for Inactive)
REMARK    1  A    between atoms: O_6  and  C_16
REMARK    2  A    between atoms: O_6  and  C_20
REMARK    3  A    between atoms: N_10  and  C_15
REMARK    4  A    between atoms: N_11  and  C_21
REMARK    5  A    between atoms: N_12  and  C_22
REMARK    6  A    between atoms: C_29  and  C_33
REMARK    7  A    between atoms: C_30  and  C_34
REMARK    8  A    between atoms: C_34  and  C_35
REMARK                            x       y       z     vdW  Elec       q    Type
REMARK                         _______ _______ _______ _____ _____    ______ ____
ROOT
ATOM      4  O   UNL     1       4.553  11.108   3.611  0.00  0.00    -0.368 OA
ATOM      5  O   UNL     1       6.250  11.010   1.058  0.00  0.00    -0.368 OA
ATOM     13  C   UNL     1       5.056  10.295   1.441  0.00  0.00    +0.173 C 
ATOM     14  C   UNL     1       5.172  10.008   2.925  0.00  0.00    +0.192 C 
ATOM     15  C   UNL     1       3.853  11.203   1.341  0.00  0.00    +0.131 C 
ATOM     16  C   UNL     1       6.667   9.987   3.137  0.00  0.00    +0.235 C 
ATOM     17  C   UNL     1       3.916  11.967   2.652  0.00  0.00    +0.185 C 
ATOM     18  C   UNL     1       7.140  11.061   2.183  0.00  0.00    +0.207 C 
ENDROOT
BRANCH  15  10
ATOM      7  O   UNL     1       1.576  11.836  -0.278  0.00  0.00    -0.252 OA
ATOM     10  N   UNL     1       2.631  10.442   1.234  0.00  0.00    -0.292 N 
ATOM     11  N   UNL     1       0.518   9.897   0.516  0.00  0.00    -0.269 N 
ATOM     19  C   UNL     1       1.560  10.823   0.416  0.00  0.00    +0.304 C 
ATOM     36  H   UNL     1       2.569   9.556   1.727  0.00  0.00    +0.151 HD
ATOM     37  H   UNL     1       0.666   9.108   1.142  0.00  0.00    +0.156 HD
BRANCH  11  21
ATOM     21  C   UNL     1      -0.730   9.920  -0.147  0.00  0.00    +0.035 A 
ATOM     23  C   UNL     1      -1.911   9.775   0.583  0.00  0.00    +0.024 A 
ATOM     24  C   UNL     1      -0.783  10.087  -1.531  0.00  0.00    +0.024 A 
ATOM     27  C   UNL     1      -3.142   9.797  -0.072  0.00  0.00    +0.013 A 
ATOM     28  C   UNL     1      -2.014  10.109  -2.185  0.00  0.00    +0.013 A 
ATOM     30  C   UNL     1      -3.194   9.964  -1.456  0.00  0.00    +0.017 A 
BRANCH  30  34
ATOM      9  O   UNL     1      -5.467   9.378  -1.684  0.00  0.00    -0.292 OA
ATOM     34  C   UNL     1      -4.478   9.987  -2.138  0.00  0.00    +0.160 C 
ATOM     35  C   UNL     1      -4.644  10.764  -3.440  0.00  0.00    +0.091 C 
ENDBRANCH  30  34
ENDBRANCH  11  21
ENDBRANCH  15  10
BRANCH  16   6
ATOM      6  O   UNL     1       7.050  10.252   4.467  0.00  0.00    -0.442 OA
BRANCH   6  20
ATOM      8  O   UNL     1       9.110   9.992   5.424  0.00  0.00    -0.226 OA
ATOM     12  N   UNL     1       7.755   8.155   4.908  0.00  0.00    -0.251 N 
ATOM     20  C   UNL     1       8.082   9.496   4.982  0.00  0.00    +0.405 C 
ATOM     38  H   UNL     1       6.847   7.936   4.506  0.00  0.00    +0.158 HD
BRANCH  12  22
ATOM     22  C   UNL     1       8.527   7.047   5.324  0.00  0.00    +0.037 A 
ATOM     25  C   UNL     1       8.636   6.742   6.681  0.00  0.00    +0.035 A 
ATOM     26  C   UNL     1       9.183   6.259   4.377  0.00  0.00    +0.023 A 
ATOM     29  C   UNL     1       9.400   5.649   7.091  0.00  0.00    +0.057 A 
ATOM     31  C   UNL     1       9.946   5.167   4.787  0.00  0.00    +0.002 A 
ATOM     32  C   UNL     1      10.054   4.861   6.144  0.00  0.00    +0.012 A 
BRANCH  29  33
ATOM      1  F   UNL     1      10.728   5.660   9.080  0.00  0.00    -0.166 F 
ATOM      2  F   UNL     1       9.361   3.996   8.819  0.00  0.00    -0.166 F 
ATOM      3  F   UNL     1       8.587   5.969   9.302  0.00  0.00    -0.166 F 
ATOM     33  C   UNL     1       9.518   5.324   8.541  0.00  0.00    +0.417 C 
ENDBRANCH  29  33
ENDBRANCH  12  22
ENDBRANCH   6  20
ENDBRANCH  16   6
TORSDOF 7
ENDMDL
MODEL 8
REMARK VINA RESULT:      -7.5     26.612     30.146
REMARK  Name = 11883406
REMARK  8 active torsions:
REMARK  status: ('A' for Active; 'I' for Inactive)
REMARK    1  A    between atoms: O_6  and  C_16
REMARK    2  A    between atoms: O_6  and  C_20
REMARK    3  A    between atoms: N_10  and  C_15
REMARK    4  A    between atoms: N_11  and  C_21
REMARK    5  A    between atoms: N_12  and  C_22
REMARK    6  A    between atoms: C_29  and  C_33
REMARK    7  A    between atoms: C_30  and  C_34
REMARK    8  A    between atoms: C_34  and  C_35
REMARK                            x       y       z     vdW  Elec       q    Type
REMARK                         _______ _______ _______ _____ _____    ______ ____
ROOT
ATOM      4  O   UNL     1       5.051  11.210   4.691  0.00  0.00    -0.368 OA
ATOM      5  O   UNL     1       6.368  11.589   1.947  0.00  0.00    -0.368 OA
ATOM     13  C   UNL     1       5.322  10.700   2.390  0.00  0.00    +0.173 C 
ATOM     14  C   UNL     1       5.677  10.271   3.800  0.00  0.00    +0.192 C 
ATOM     15  C   UNL     1       4.029  11.464   2.559  0.00  0.00    +0.131 C 
ATOM     16  C   UNL     1       7.181  10.406   3.812  0.00  0.00    +0.235 C 
ATOM     17  C   UNL     1       4.199  12.084   3.935  0.00  0.00    +0.185 C 
ATOM     18  C   UNL     1       7.400  11.624   2.943  0.00  0.00    +0.207 C 
ENDROOT
BRANCH  15  10
ATOM      7  O   UNL     1       1.291  12.211   2.167  0.00  0.00    -0.252 OA
ATOM     10  N   UNL     1       2.890  10.579   2.519  0.00  0.00    -0.292 N 
ATOM     11  N   UNL     1       0.689   9.949   2.332  0.00  0.00    -0.269 N 
ATOM     19  C   UNL     1       1.577  11.027   2.323  0.00  0.00    +0.304 C 
ATOM     36  H   UNL     1       3.054   9.578   2.573  0.00  0.00    +0.151 HD
ATOM     37  H   UNL     1       1.092   9.026   2.475  0.00  0.00    +0.156 HD
BRANCH  11  21
ATOM     21  C   UNL     1      -0.716   9.980   2.167  0.00  0.00    +0.035 A 
ATOM     23  C   UNL     1      -1.269   9.960   0.886  0.00  0.00    +0.024 A 
ATOM     24  C   UNL     1      -1.548  10.033   3.285  0.00  0.00    +0.024 A 
ATOM     27  C   UNL     1      -2.653   9.992   0.724  0.00  0.00    +0.013 A 
ATOM     28  C   UNL     1      -2.933  10.065   3.123  0.00  0.00    +0.013 A 
ATOM     30  C   UNL     1      -3.486  10.044   1.843  0.00  0.00    +0.017 A 
BRANCH  30  34
ATOM      9  O   UNL     1      -5.451  10.446   0.602  0.00  0.00    -0.292 OA
ATOM     34  C   UNL     1      -4.930  10.078   1.673  0.00  0.00    +0.160 C 
ATOM     35  C   UNL     1      -5.849   9.660   2.816  0.00  0.00    +0.091 C 
ENDBRANCH  30  34
ENDBRANCH  11  21
ENDBRANCH  15  10
BRANCH  16   6
ATOM      6  O   UNL     1       7.720  10.570   5.104  0.00  0.00    -0.442 OA
BRANCH   6  20
ATOM      8  O   UNL     1       9.771   9.923   5.880  0.00  0.00    -0.226 OA
ATOM     12  N   UNL     1       8.071   8.371   5.460  0.00  0.00    -0.251 N 
ATOM     20  C   UNL     1       8.638   9.629   5.521  0.00  0.00    +0.405 C 
ATOM     38  H   UNL     1       7.109   8.327   5.134  0.00  0.00    +0.158 HD
BRANCH  12  22
ATOM     22  C   UNL     1       8.663   7.132   5.796  0.00  0.00    +0.037 A 
ATOM     25  C   UNL     1       8.797   6.763   7.136  0.00  0.00    +0.035 A 
ATOM     26  C   UNL     1       9.116   6.279   4.789  0.00  0.00    +0.023 A 
ATOM     29  C   UNL     1       9.383   5.541   7.467  0.00  0.00    +0.057 A 
ATOM     31  C   UNL     1       9.702   5.058   5.122  0.00  0.00    +0.002 A 
ATOM     32  C   UNL     1       9.835   4.688   6.460  0.00  0.00    +0.012 A 
BRANCH  29  33
ATOM      1  F   UNL     1       8.560   5.668   9.708  0.00  0.00    -0.166 F 
ATOM      2  F   UNL     1      10.711   5.541   9.457  0.00  0.00    -0.166 F 
ATOM      3  F   UNL     1       9.469   3.796   9.080  0.00  0.00    -0.166 F 
ATOM     33  C   UNL     1       9.528   5.148   8.898  0.00  0.00    +0.417 C 
ENDBRANCH  29  33
ENDBRANCH  12  22
ENDBRANCH   6  20
ENDBRANCH  16   6
TORSDOF 7
ENDMDL
MODEL 9
REMARK VINA RESULT:      -7.4     25.837     30.068
REMARK  Name = 11883406
REMARK  8 active torsions:
REMARK  status: ('A' for Active; 'I' for Inactive)
REMARK    1  A    between atoms: O_6  and  C_16
REMARK    2  A    between atoms: O_6  and  C_20
REMARK    3  A    between atoms: N_10  and  C_15
REMARK    4  A    between atoms: N_11  and  C_21
REMARK    5  A    between atoms: N_12  and  C_22
REMARK    6  A    between atoms: C_29  and  C_33
REMARK    7  A    between atoms: C_30  and  C_34
REMARK    8  A    between atoms: C_34  and  C_35
REMARK                            x       y       z     vdW  Elec       q    Type
REMARK                         _______ _______ _______ _____ _____    ______ ____
ROOT
ATOM      4  O   UNL     1       4.251  10.896   1.279  0.00  0.00    -0.368 OA
ATOM      5  O   UNL     1       5.009  13.026   3.351  0.00  0.00    -0.368 OA
ATOM     13  C   UNL     1       5.062  11.585   3.399  0.00  0.00    +0.173 C 
ATOM     14  C   UNL     1       3.849  11.075   2.647  0.00  0.00    +0.192 C 
ATOM     15  C   UNL     1       6.231  11.082   2.583  0.00  0.00    +0.131 C 
ATOM     16  C   UNL     1       2.870  12.216   2.796  0.00  0.00    +0.235 C 
ATOM     17  C   UNL     1       5.670  11.098   1.172  0.00  0.00    +0.185 C 
ATOM     18  C   UNL     1       3.776  13.425   2.734  0.00  0.00    +0.207 C 
ENDROOT
BRANCH  15  10
ATOM      7  O   UNL     1       7.600  10.338   4.986  0.00  0.00    -0.252 OA
ATOM     10  N   UNL     1       6.611   9.748   2.982  0.00  0.00    -0.292 N 
ATOM     11  N   UNL     1       7.517   8.096   4.296  0.00  0.00    -0.269 N 
ATOM     19  C   UNL     1       7.282   9.469   4.180  0.00  0.00    +0.304 C 
ATOM     36  H   UNL     1       6.322   8.968   2.399  0.00  0.00    +0.151 HD
ATOM     37  H   UNL     1       7.188   7.510   3.533  0.00  0.00    +0.156 HD
BRANCH  11  21
ATOM     21  C   UNL     1       8.164   7.414   5.352  0.00  0.00    +0.035 A 
ATOM     23  C   UNL     1       8.236   7.995   6.619  0.00  0.00    +0.024 A 
ATOM     24  C   UNL     1       8.733   6.159   5.128  0.00  0.00    +0.024 A 
ATOM     27  C   UNL     1       8.875   7.323   7.660  0.00  0.00    +0.013 A 
ATOM     28  C   UNL     1       9.371   5.487   6.169  0.00  0.00    +0.013 A 
ATOM     30  C   UNL     1       9.443   6.068   7.435  0.00  0.00    +0.017 A 
BRANCH  30  34
ATOM      9  O   UNL     1      11.328   5.512   8.738  0.00  0.00    -0.292 OA
ATOM     34  C   UNL     1      10.109   5.367   8.521  0.00  0.00    +0.160 C 
ATOM     35  C   UNL     1       9.321   4.427   9.428  0.00  0.00    +0.091 C 
ENDBRANCH  30  34
ENDBRANCH  11  21
ENDBRANCH  15  10
BRANCH  16   6
ATOM      6  O   UNL     1       1.879  12.242   1.794  0.00  0.00    -0.442 OA
BRANCH   6  20
ATOM      8  O   UNL     1      -0.084  13.204   2.464  0.00  0.00    -0.226 OA
ATOM     12  N   UNL     1       0.150  10.882   2.291  0.00  0.00    -0.251 N 
ATOM     20  C   UNL     1       0.566  12.197   2.213  0.00  0.00    +0.405 C 
ATOM     38  H   UNL     1       0.838  10.177   2.041  0.00  0.00    +0.158 HD
BRANCH  12  22
ATOM     22  C   UNL     1      -1.118  10.392   2.678  0.00  0.00    +0.037 A 
ATOM     25  C   UNL     1      -1.257   9.678   3.869  0.00  0.00    +0.035 A 
ATOM     26  C   UNL     1      -2.231  10.622   1.869  0.00  0.00    +0.023 A 
ATOM     29  C   UNL     1      -2.509   9.193   4.250  0.00  0.00    +0.057 A 
ATOM     31  C   UNL     1      -3.482  10.137   2.250  0.00  0.00    +0.002 A 
ATOM     32  C   UNL     1      -3.621   9.424   3.440  0.00  0.00    +0.012 A 
BRANCH  29  33
ATOM      1  F   UNL     1      -1.519   8.397   6.275  0.00  0.00    -0.166 F 
ATOM      2  F   UNL     1      -2.999   7.119   5.335  0.00  0.00    -0.166 F 
ATOM      3  F   UNL     1      -3.622   8.946   6.336  0.00  0.00    -0.166 F 
ATOM     33  C   UNL     1      -2.657   8.429   5.521  0.00  0.00    +0.417 C 
ENDBRANCH  29  33
ENDBRANCH  12  22
ENDBRANCH   6  20
ENDBRANCH  16   6
TORSDOF 7
ENDMDL
MODEL 10
REMARK VINA RESULT:      -7.3     31.956     36.053
REMARK  Name = 11883406
REMARK  8 active torsions:
REMARK  status: ('A' for Active; 'I' for Inactive)
REMARK    1  A    between atoms: O_6  and  C_16
REMARK    2  A    between atoms: O_6  and  C_20
REMARK    3  A    between atoms: N_10  and  C_15
REMARK    4  A    between atoms: N_11  and  C_21
REMARK    5  A    between atoms: N_12  and  C_22
REMARK    6  A    between atoms: C_29  and  C_33
REMARK    7  A    between atoms: C_30  and  C_34
REMARK    8  A    between atoms: C_34  and  C_35
REMARK                            x       y       z     vdW  Elec       q    Type
REMARK                         _______ _______ _______ _____ _____    ______ ____
ROOT
ATOM      4  O   UNL     1      20.523   6.536  20.322  0.00  0.00    -0.368 OA
ATOM      5  O   UNL     1      21.121   7.606  23.134  0.00  0.00    -0.368 OA
ATOM     13  C   UNL     1      21.035   6.259  22.621  0.00  0.00    +0.173 C 
ATOM     14  C   UNL     1      19.920   6.249  21.595  0.00  0.00    +0.192 C 
ATOM     15  C   UNL     1      22.271   5.932  21.816  0.00  0.00    +0.131 C 
ATOM     16  C   UNL     1      19.036   7.381  22.062  0.00  0.00    +0.235 C 
ATOM     17  C   UNL     1      21.952   6.554  20.468  0.00  0.00    +0.185 C 
ATOM     18  C   UNL     1      20.046   8.380  22.582  0.00  0.00    +0.207 C 
ENDROOT
BRANCH  15  10
ATOM      7  O   UNL     1      24.221   4.349  23.195  0.00  0.00    -0.252 OA
ATOM     10  N   UNL     1      22.460   4.505  21.705  0.00  0.00    -0.292 N 
ATOM     11  N   UNL     1      23.387   2.443  22.109  0.00  0.00    -0.269 N 
ATOM     19  C   UNL     1      23.442   3.805  22.417  0.00  0.00    +0.304 C 
ATOM     36  H   UNL     1      21.810   3.975  21.133  0.00  0.00    +0.151 HD
ATOM     37  H   UNL     1      22.678   2.154  21.439  0.00  0.00    +0.156 HD
BRANCH  11  21
ATOM     21  C   UNL     1      24.204   1.405  22.614  0.00  0.00    +0.035 A 
ATOM     23  C   UNL     1      25.159   0.806  21.792  0.00  0.00    +0.024 A 
ATOM     24  C   UNL     1      24.054   0.979  23.934  0.00  0.00    +0.024 A 
ATOM     27  C   UNL     1      25.964  -0.218  22.290  0.00  0.00    +0.013 A 
ATOM     28  C   UNL     1      24.859  -0.045  24.432  0.00  0.00    +0.013 A 
ATOM     30  C   UNL     1      25.814  -0.644  23.611  0.00  0.00    +0.017 A 
BRANCH  30  34
ATOM      9  O   UNL     1      27.322  -1.566  25.172  0.00  0.00    -0.292 OA
ATOM     34  C   UNL     1      26.653  -1.712  24.130  0.00  0.00    +0.160 C 
ATOM     35  C   UNL     1      26.735  -3.049  23.401  0.00  0.00    +0.091 C 
ENDBRANCH  30  34
ENDBRANCH  11  21
ENDBRANCH  15  10
BRANCH  16   6
ATOM      6  O   UNL     1      18.229   7.923  21.042  0.00  0.00    -0.442 OA
BRANCH   6  20
ATOM      8  O   UNL     1      16.643   6.319  21.416  0.00  0.00    -0.226 OA
ATOM     12  N   UNL     1      16.237   8.144  20.008  0.00  0.00    -0.251 N 
ATOM     20  C   UNL     1      16.983   7.359  20.867  0.00  0.00    +0.405 C 
ATOM     38  H   UNL     1      16.694   8.979  19.650  0.00  0.00    +0.158 HD
BRANCH  12  22
ATOM     22  C   UNL     1      14.913   7.930  19.563  0.00  0.00    +0.037 A 
ATOM     25  C   UNL     1      13.885   7.749  20.490  0.00  0.00    +0.035 A 
ATOM     26  C   UNL     1      14.633   7.898  18.196  0.00  0.00    +0.023 A 
ATOM     29  C   UNL     1      12.578   7.537  20.050  0.00  0.00    +0.057 A 
ATOM     31  C   UNL     1      13.326   7.686  17.758  0.00  0.00    +0.002 A 
ATOM     32  C   UNL     1      12.299   7.506  18.684  0.00  0.00    +0.012 A 
BRANCH  29  33
ATOM      1  F   UNL     1      11.778   7.818  22.286  0.00  0.00    -0.166 F 
ATOM      2  F   UNL     1      11.143   6.032  21.231  0.00  0.00    -0.166 F 
ATOM      3  F   UNL     1      10.326   7.968  20.675  0.00  0.00    -0.166 F 
ATOM     33  C   UNL     1      11.482   7.342  21.040  0.00  0.00    +0.417 C 
ENDBRANCH  29  33
ENDBRANCH  12  22
ENDBRANCH   6  20
ENDBRANCH  16   6
TORSDOF 7
ENDMDL
