MODEL 1
REMARK VINA RESULT:      -6.5      0.000      0.000
REMARK  Name = 26763540
REMARK  9 active torsions:
REMARK  status: ('A' for Active; 'I' for Inactive)
REMARK    1  A    between atoms: O_2  and  C_15
REMARK    2  A    between atoms: O_3  and  C_20
REMARK    3  A    between atoms: N_8  and  C_26
REMARK    4  A    between atoms: C_10  and  C_18
REMARK    5  A    between atoms: C_12  and  C_20
REMARK    6  A    between atoms: C_12  and  C_21
REMARK    7  A    between atoms: C_13  and  C_23
REMARK    8  A    between atoms: C_23  and  C_24
REMARK    9  A    between atoms: C_29  and  C_30
REMARK                            x       y       z     vdW  Elec       q    Type
REMARK                         _______ _______ _______ _____ _____    ______ ____
ROOT
ATOM      1  S   UNL     1      17.667   5.862  19.706  0.00  0.00    -0.057 S 
ATOM      5  O   UNL     1      21.455   8.053  21.366  0.00  0.00    -0.266 OA
ATOM      7  N   UNL     1      18.479   8.009  20.898  0.00  0.00    -0.229 NA
ATOM      9  N   UNL     1      20.160   6.376  20.332  0.00  0.00    -0.258 N 
ATOM     10  C   UNL     1      14.889   9.380  20.596  0.00  0.00    -0.019 C 
ATOM     11  C   UNL     1      14.242   7.928  20.685  0.00  0.00    +0.011 C 
ATOM     12  C   UNL     1      12.680   7.826  20.490  0.00  0.00    +0.021 C 
ATOM     13  C   UNL     1      16.348   9.313  21.243  0.00  0.00    +0.054 C 
ATOM     14  C   UNL     1      14.034  10.376  21.422  0.00  0.00    +0.010 C 
ATOM     15  C   UNL     1      11.984   8.920  21.348  0.00  0.00    +0.123 C 
ATOM     16  C   UNL     1      15.049   6.895  19.845  0.00  0.00    +0.049 C 
ATOM     17  C   UNL     1      12.545  10.318  21.110  0.00  0.00    +0.032 C 
ATOM     18  C   UNL     1      14.994   9.902  19.142  0.00  0.00    +0.012 C 
ATOM     19  C   UNL     1      17.110   8.116  20.735  0.00  0.00    +0.058 A 
ATOM     21  C   UNL     1      12.194   6.446  21.016  0.00  0.00    +0.016 C 
ATOM     22  C   UNL     1      16.506   7.035  20.128  0.00  0.00    +0.015 A 
ATOM     25  C   UNL     1      18.882   6.866  20.386  0.00  0.00    +0.165 A 
ATOM     29  C   UNL     1      21.358   6.966  20.807  0.00  0.00    +0.285 C 
ATOM     37  H   UNL     1      20.240   5.463  19.891  0.00  0.00    +0.157 HD
ENDROOT
BRANCH  29  30
ATOM      6  O   UNL     1      22.477   4.820  20.507  0.00  0.00    -0.458 OA
ATOM     30  C   UNL     1      22.599   6.169  20.624  0.00  0.00    +0.189 A 
ATOM     31  C   UNL     1      23.921   6.543  20.545  0.00  0.00    +0.054 A 
ATOM     32  C   UNL     1      24.657   5.348  20.367  0.00  0.00    +0.042 A 
ATOM     33  C   UNL     1      23.734   4.328  20.351  0.00  0.00    +0.196 A 
ENDBRANCH  29  30
BRANCH  15   2
ATOM      2  O   UNL     1      10.580   8.940  21.094  0.00  0.00    -0.391 OA
ATOM     34  H   UNL     1      10.407   9.643  20.445  0.00  0.00    +0.210 HD
ENDBRANCH  15   2
BRANCH  12  20
ATOM     20  C   UNL     1      12.213   7.898  19.020  0.00  0.00    +0.165 C 
BRANCH  20   3
ATOM      3  O   UNL     1      12.072   6.577  18.546  0.00  0.00    -0.394 OA
ATOM     35  H   UNL     1      12.084   5.988  19.319  0.00  0.00    +0.209 HD
ENDBRANCH  20   3
ENDBRANCH  12  20
BRANCH  13  23
ATOM     23  C   UNL     1      17.168  10.602  21.104  0.00  0.00    +0.106 C 
BRANCH  23  24
ATOM      4  O   UNL     1      17.120  11.822  23.195  0.00  0.00    -0.276 OA
ATOM      8  N   UNL     1      18.976  10.533  22.667  0.00  0.00    -0.312 N 
ATOM     24  C   UNL     1      17.718  11.069  22.432  0.00  0.00    +0.214 C 
ATOM     36  H   UNL     1      19.402   9.919  21.976  0.00  0.00    +0.149 HD
BRANCH   8  26
ATOM     26  C   UNL     1      19.725  10.815  23.858  0.00  0.00    +0.073 C 
ATOM     27  C   UNL     1      20.559   9.757  24.520  0.00  0.00    +0.024 C 
ATOM     28  C   UNL     1      21.222  10.913  23.831  0.00  0.00    +0.024 C 
ENDBRANCH   8  26
ENDBRANCH  23  24
ENDBRANCH  13  23
TORSDOF 7
ENDMDL
MODEL 2
REMARK VINA RESULT:      -6.3     18.829     22.143
REMARK  Name = 26763540
REMARK  9 active torsions:
REMARK  status: ('A' for Active; 'I' for Inactive)
REMARK    1  A    between atoms: O_2  and  C_15
REMARK    2  A    between atoms: O_3  and  C_20
REMARK    3  A    between atoms: N_8  and  C_26
REMARK    4  A    between atoms: C_10  and  C_18
REMARK    5  A    between atoms: C_12  and  C_20
REMARK    6  A    between atoms: C_12  and  C_21
REMARK    7  A    between atoms: C_13  and  C_23
REMARK    8  A    between atoms: C_23  and  C_24
REMARK    9  A    between atoms: C_29  and  C_30
REMARK                            x       y       z     vdW  Elec       q    Type
REMARK                         _______ _______ _______ _____ _____    ______ ____
ROOT
ATOM      1  S   UNL     1      11.266   3.637   2.497  0.00  0.00    -0.057 S 
ATOM      5  O   UNL     1       9.214   6.952   5.087  0.00  0.00    -0.266 OA
ATOM      7  N   UNL     1      10.115   5.951   2.393  0.00  0.00    -0.229 NA
ATOM      9  N   UNL     1      10.312   4.932   4.568  0.00  0.00    -0.258 N 
ATOM     10  C   UNL     1      11.041   6.098  -1.347  0.00  0.00    -0.019 C 
ATOM     11  C   UNL     1      10.951   4.517  -1.513  0.00  0.00    +0.011 C 
ATOM     12  C   UNL     1      11.368   3.918  -2.911  0.00  0.00    +0.021 C 
ATOM     13  C   UNL     1      10.181   6.512  -0.066  0.00  0.00    +0.054 C 
ATOM     14  C   UNL     1      10.422   6.783  -2.593  0.00  0.00    +0.010 C 
ATOM     15  C   UNL     1      10.701   4.748  -4.044  0.00  0.00    +0.123 C 
ATOM     16  C   UNL     1      11.589   3.782  -0.298  0.00  0.00    +0.049 C 
ATOM     17  C   UNL     1      10.947   6.247  -3.917  0.00  0.00    +0.032 C 
ATOM     18  C   UNL     1      12.495   6.602  -1.175  0.00  0.00    +0.012 C 
ATOM     19  C   UNL     1      10.487   5.612   1.105  0.00  0.00    +0.058 A 
ATOM     21  C   UNL     1      10.829   2.465  -3.021  0.00  0.00    +0.016 C 
ATOM     22  C   UNL     1      11.102   4.385   0.976  0.00  0.00    +0.015 A 
ATOM     25  C   UNL     1      10.482   4.988   3.210  0.00  0.00    +0.165 A 
ATOM     29  C   UNL     1       9.705   5.881   5.427  0.00  0.00    +0.285 C 
ATOM     37  H   UNL     1      10.673   4.084   5.000  0.00  0.00    +0.157 HD
ENDROOT
BRANCH  29  30
ATOM      6  O   UNL     1       9.861   4.220   7.206  0.00  0.00    -0.458 OA
ATOM     30  C   UNL     1       9.646   5.519   6.867  0.00  0.00    +0.189 A 
ATOM     31  C   UNL     1       9.405   6.277   7.990  0.00  0.00    +0.054 A 
ATOM     32  C   UNL     1       9.477   5.387   9.088  0.00  0.00    +0.042 A 
ATOM     33  C   UNL     1       9.757   4.149   8.559  0.00  0.00    +0.196 A 
ENDBRANCH  29  30
BRANCH  15   2
ATOM      2  O   UNL     1      11.162   4.313  -5.323  0.00  0.00    -0.391 OA
ATOM     34  H   UNL     1      11.895   3.692  -5.177  0.00  0.00    +0.210 HD
ENDBRANCH  15   2
BRANCH  12  20
ATOM     20  C   UNL     1      12.894   3.812  -3.131  0.00  0.00    +0.165 C 
BRANCH  20   3
ATOM      3  O   UNL     1      13.134   2.699  -3.964  0.00  0.00    -0.394 OA
ATOM     35  H   UNL     1      13.127   3.017  -4.883  0.00  0.00    +0.209 HD
ENDBRANCH  20   3
ENDBRANCH  12  20
BRANCH  13  23
ATOM     23  C   UNL     1      10.284   7.993   0.322  0.00  0.00    +0.106 C 
BRANCH  23  24
ATOM      4  O   UNL     1       8.211   8.942  -0.494  0.00  0.00    -0.276 OA
ATOM      8  N   UNL     1       8.596   8.833   1.793  0.00  0.00    -0.312 N 
ATOM     24  C   UNL     1       8.924   8.637   0.458  0.00  0.00    +0.214 C 
ATOM     36  H   UNL     1       9.250   8.554   2.520  0.00  0.00    +0.149 HD
BRANCH   8  26
ATOM     26  C   UNL     1       7.357   9.428   2.203  0.00  0.00    +0.073 C 
ATOM     27  C   UNL     1       6.924   9.407   3.640  0.00  0.00    +0.024 C 
ATOM     28  C   UNL     1       7.332  10.701   2.998  0.00  0.00    +0.024 C 
ENDBRANCH   8  26
ENDBRANCH  23  24
ENDBRANCH  13  23
TORSDOF 7
ENDMDL
MODEL 3
REMARK VINA RESULT:      -6.3     28.801     33.047
REMARK  Name = 26763540
REMARK  9 active torsions:
REMARK  status: ('A' for Active; 'I' for Inactive)
REMARK    1  A    between atoms: O_2  and  C_15
REMARK    2  A    between atoms: O_3  and  C_20
REMARK    3  A    between atoms: N_8  and  C_26
REMARK    4  A    between atoms: C_10  and  C_18
REMARK    5  A    between atoms: C_12  and  C_20
REMARK    6  A    between atoms: C_12  and  C_21
REMARK    7  A    between atoms: C_13  and  C_23
REMARK    8  A    between atoms: C_23  and  C_24
REMARK    9  A    between atoms: C_29  and  C_30
REMARK                            x       y       z     vdW  Elec       q    Type
REMARK                         _______ _______ _______ _____ _____    ______ ____
ROOT
ATOM      1  S   UNL     1     -12.773   5.227  22.338  0.00  0.00    -0.057 S 
ATOM      5  O   UNL     1     -17.233   4.486  23.550  0.00  0.00    -0.266 OA
ATOM      7  N   UNL     1     -15.214   5.918  21.833  0.00  0.00    -0.229 NA
ATOM      9  N   UNL     1     -14.885   4.270  23.562  0.00  0.00    -0.258 N 
ATOM     10  C   UNL     1     -13.822   8.595  19.432  0.00  0.00    -0.019 C 
ATOM     11  C   UNL     1     -12.546   7.716  19.066  0.00  0.00    +0.011 C 
ATOM     12  C   UNL     1     -11.460   8.382  18.136  0.00  0.00    +0.021 C 
ATOM     13  C   UNL     1     -14.957   7.614  19.984  0.00  0.00    +0.054 C 
ATOM     14  C   UNL     1     -14.356   9.287  18.151  0.00  0.00    +0.010 C 
ATOM     15  C   UNL     1     -12.167   9.068  16.932  0.00  0.00    +0.123 C 
ATOM     16  C   UNL     1     -11.953   7.022  20.327  0.00  0.00    +0.049 C 
ATOM     17  C   UNL     1     -13.285  10.015  17.352  0.00  0.00    +0.032 C 
ATOM     18  C   UNL     1     -13.520   9.680  20.494  0.00  0.00    +0.012 C 
ATOM     19  C   UNL     1     -14.392   6.647  20.993  0.00  0.00    +0.058 A 
ATOM     21  C   UNL     1     -10.537   7.272  17.560  0.00  0.00    +0.016 C 
ATOM     22  C   UNL     1     -13.044   6.383  21.118  0.00  0.00    +0.015 A 
ATOM     25  C   UNL     1     -14.469   5.142  22.591  0.00  0.00    +0.165 A 
ATOM     29  C   UNL     1     -16.205   3.984  23.991  0.00  0.00    +0.285 C 
ATOM     37  H   UNL     1     -14.131   3.767  24.023  0.00  0.00    +0.157 HD
ENDROOT
BRANCH  29  30
ATOM      6  O   UNL     1     -16.538   1.668  24.680  0.00  0.00    -0.458 OA
ATOM     30  C   UNL     1     -16.339   2.957  25.058  0.00  0.00    +0.189 A 
ATOM     31  C   UNL     1     -16.297   3.057  26.430  0.00  0.00    +0.054 A 
ATOM     32  C   UNL     1     -16.483   1.744  26.925  0.00  0.00    +0.042 A 
ATOM     33  C   UNL     1     -16.625   0.936  25.821  0.00  0.00    +0.196 A 
ENDBRANCH  29  30
BRANCH  15   2
ATOM      2  O   UNL     1     -11.224   9.791  16.141  0.00  0.00    -0.391 OA
ATOM     34  H   UNL     1     -11.016  10.616  16.612  0.00  0.00    +0.210 HD
ENDBRANCH  15   2
BRANCH  12  20
ATOM     20  C   UNL     1     -10.520   9.371  18.859  0.00  0.00    +0.165 C 
BRANCH  20   3
ATOM      3  O   UNL     1      -9.341   9.486  18.092  0.00  0.00    -0.394 OA
ATOM     35  H   UNL     1      -8.603   9.183  18.648  0.00  0.00    +0.209 HD
ENDBRANCH  20   3
ENDBRANCH  12  20
BRANCH  13  23
ATOM     23  C   UNL     1     -16.207   8.323  20.522  0.00  0.00    +0.106 C 
BRANCH  23  24
ATOM      4  O   UNL     1     -18.133   8.675  19.096  0.00  0.00    -0.276 OA
ATOM      8  N   UNL     1     -17.726   6.562  19.967  0.00  0.00    -0.312 N 
ATOM     24  C   UNL     1     -17.455   7.910  19.778  0.00  0.00    +0.214 C 
ATOM     36  H   UNL     1     -17.114   6.000  20.553  0.00  0.00    +0.149 HD
BRANCH   8  26
ATOM     26  C   UNL     1     -18.857   5.911  19.369  0.00  0.00    +0.073 C 
ATOM     27  C   UNL     1     -18.753   5.254  18.024  0.00  0.00    +0.024 C 
ATOM     28  C   UNL     1     -18.924   4.416  19.257  0.00  0.00    +0.024 C 
ENDBRANCH   8  26
ENDBRANCH  23  24
ENDBRANCH  13  23
TORSDOF 7
ENDMDL
MODEL 4
REMARK VINA RESULT:      -6.3     29.035     31.473
REMARK  Name = 26763540
REMARK  9 active torsions:
REMARK  status: ('A' for Active; 'I' for Inactive)
REMARK    1  A    between atoms: O_2  and  C_15
REMARK    2  A    between atoms: O_3  and  C_20
REMARK    3  A    between atoms: N_8  and  C_26
REMARK    4  A    between atoms: C_10  and  C_18
REMARK    5  A    between atoms: C_12  and  C_20
REMARK    6  A    between atoms: C_12  and  C_21
REMARK    7  A    between atoms: C_13  and  C_23
REMARK    8  A    between atoms: C_23  and  C_24
REMARK    9  A    between atoms: C_29  and  C_30
REMARK                            x       y       z     vdW  Elec       q    Type
REMARK                         _______ _______ _______ _____ _____    ______ ____
ROOT
ATOM      1  S   UNL     1      -7.651 -10.686  12.542  0.00  0.00    -0.057 S 
ATOM      5  O   UNL     1      -3.793 -11.006   9.910  0.00  0.00    -0.266 OA
ATOM      7  N   UNL     1      -5.089 -11.033  12.630  0.00  0.00    -0.229 NA
ATOM      9  N   UNL     1      -6.072 -10.740  10.449  0.00  0.00    -0.258 N 
ATOM     10  C   UNL     1      -5.330 -10.880  16.474  0.00  0.00    -0.019 C 
ATOM     11  C   UNL     1      -6.795 -11.503  16.486  0.00  0.00    +0.011 C 
ATOM     12  C   UNL     1      -7.527 -11.588  17.881  0.00  0.00    +0.021 C 
ATOM     13  C   UNL     1      -4.630 -11.287  15.097  0.00  0.00    +0.054 C 
ATOM     14  C   UNL     1      -4.504 -11.485  17.639  0.00  0.00    +0.010 C 
ATOM     15  C   UNL     1      -6.546 -12.169  18.939  0.00  0.00    +0.123 C 
ATOM     16  C   UNL     1      -7.676 -10.903  15.351  0.00  0.00    +0.049 C 
ATOM     17  C   UNL     1      -5.210 -11.436  18.987  0.00  0.00    +0.032 C 
ATOM     18  C   UNL     1      -5.331  -9.338  16.615  0.00  0.00    +0.012 C 
ATOM     19  C   UNL     1      -5.557 -11.056  13.930  0.00  0.00    +0.058 A 
ATOM     21  C   UNL     1      -8.722 -12.575  17.766  0.00  0.00    +0.016 C 
ATOM     22  C   UNL     1      -6.921 -10.904  14.065  0.00  0.00    +0.015 A 
ATOM     25  C   UNL     1      -6.102 -10.837  11.814  0.00  0.00    +0.165 A 
ATOM     29  C   UNL     1      -4.959 -10.825   9.577  0.00  0.00    +0.285 C 
ATOM     37  H   UNL     1      -6.983 -10.590  10.020  0.00  0.00    +0.157 HD
ENDROOT
BRANCH  29  30
ATOM      6  O   UNL     1      -6.093  -9.716   7.724  0.00  0.00    -0.458 OA
ATOM     30  C   UNL     1      -5.253 -10.706   8.124  0.00  0.00    +0.189 A 
ATOM     31  C   UNL     1      -4.819 -11.438   7.042  0.00  0.00    +0.054 A 
ATOM     32  C   UNL     1      -5.432 -10.860   5.906  0.00  0.00    +0.042 A 
ATOM     33  C   UNL     1      -6.197  -9.817   6.373  0.00  0.00    +0.196 A 
ENDBRANCH  29  30
BRANCH  15   2
ATOM      2  O   UNL     1      -7.133 -12.138  20.239  0.00  0.00    -0.391 OA
ATOM     34  H   UNL     1      -7.850 -12.795  20.255  0.00  0.00    +0.210 HD
ENDBRANCH  15   2
BRANCH  12  20
ATOM     20  C   UNL     1      -8.135 -10.254  18.367  0.00  0.00    +0.165 C 
BRANCH  20   3
ATOM      3  O   UNL     1      -9.146 -10.556  19.304  0.00  0.00    -0.394 OA
ATOM     35  H   UNL     1      -9.338  -9.739  19.796  0.00  0.00    +0.209 HD
ENDBRANCH  20   3
ENDBRANCH  12  20
BRANCH  13  23
ATOM     23  C   UNL     1      -3.259 -10.640  14.862  0.00  0.00    +0.106 C 
BRANCH  23  24
ATOM      4  O   UNL     1      -1.065 -11.560  15.318  0.00  0.00    -0.276 OA
ATOM      8  N   UNL     1      -2.547 -12.746  13.982  0.00  0.00    -0.312 N 
ATOM     24  C   UNL     1      -2.157 -11.670  14.767  0.00  0.00    +0.214 C 
ATOM     36  H   UNL     1      -3.471 -12.754  13.557  0.00  0.00    +0.149 HD
BRANCH   8  26
ATOM     26  C   UNL     1      -1.687 -13.867  13.728  0.00  0.00    +0.073 C 
ATOM     27  C   UNL     1      -2.036 -15.240  14.222  0.00  0.00    +0.024 C 
ATOM     28  C   UNL     1      -2.076 -14.939  12.752  0.00  0.00    +0.024 C 
ENDBRANCH   8  26
ENDBRANCH  23  24
ENDBRANCH  13  23
TORSDOF 7
ENDMDL
MODEL 5
REMARK VINA RESULT:      -6.2     30.647     34.126
REMARK  Name = 26763540
REMARK  9 active torsions:
REMARK  status: ('A' for Active; 'I' for Inactive)
REMARK    1  A    between atoms: O_2  and  C_15
REMARK    2  A    between atoms: O_3  and  C_20
REMARK    3  A    between atoms: N_8  and  C_26
REMARK    4  A    between atoms: C_10  and  C_18
REMARK    5  A    between atoms: C_12  and  C_20
REMARK    6  A    between atoms: C_12  and  C_21
REMARK    7  A    between atoms: C_13  and  C_23
REMARK    8  A    between atoms: C_23  and  C_24
REMARK    9  A    between atoms: C_29  and  C_30
REMARK                            x       y       z     vdW  Elec       q    Type
REMARK                         _______ _______ _______ _____ _____    ______ ____
ROOT
ATOM      1  S   UNL     1     -10.076 -12.786  20.394  0.00  0.00    -0.057 S 
ATOM      5  O   UNL     1     -13.346  -9.492  19.792  0.00  0.00    -0.266 OA
ATOM      7  N   UNL     1     -10.645 -10.626  19.090  0.00  0.00    -0.229 NA
ATOM      9  N   UNL     1     -12.301 -11.422  20.651  0.00  0.00    -0.258 N 
ATOM     10  C   UNL     1      -7.073 -10.712  17.643  0.00  0.00    -0.019 C 
ATOM     11  C   UNL     1      -7.006 -12.303  17.692  0.00  0.00    +0.011 C 
ATOM     12  C   UNL     1      -5.635 -12.975  17.298  0.00  0.00    +0.021 C 
ATOM     13  C   UNL     1      -8.611 -10.281  17.639  0.00  0.00    +0.054 C 
ATOM     14  C   UNL     1      -6.421 -10.210  16.328  0.00  0.00    +0.010 C 
ATOM     15  C   UNL     1      -5.102 -12.325  15.991  0.00  0.00    +0.123 C 
ATOM     16  C   UNL     1      -7.622 -12.856  19.010  0.00  0.00    +0.049 C 
ATOM     17  C   UNL     1      -5.046 -10.803  16.056  0.00  0.00    +0.032 C 
ATOM     18  C   UNL     1      -6.354 -10.044  18.840  0.00  0.00    +0.012 C 
ATOM     19  C   UNL     1      -9.388 -11.036  18.688  0.00  0.00    +0.058 A 
ATOM     21  C   UNL     1      -5.877 -14.482  17.002  0.00  0.00    +0.016 C 
ATOM     22  C   UNL     1      -8.934 -12.197  19.276  0.00  0.00    +0.015 A 
ATOM     25  C   UNL     1     -11.101 -11.468  19.992  0.00  0.00    +0.165 A 
ATOM     29  C   UNL     1     -13.343 -10.470  20.532  0.00  0.00    +0.285 C 
ATOM     37  H   UNL     1     -12.446 -12.185  21.308  0.00  0.00    +0.157 HD
ENDROOT
BRANCH  29  30
ATOM      6  O   UNL     1     -14.513 -11.738  22.255  0.00  0.00    -0.458 OA
ATOM     30  C   UNL     1     -14.547 -10.708  21.370  0.00  0.00    +0.189 A 
ATOM     31  C   UNL     1     -15.758 -10.056  21.434  0.00  0.00    +0.054 A 
ATOM     32  C   UNL     1     -16.515 -10.730  22.422  0.00  0.00    +0.042 A 
ATOM     33  C   UNL     1     -15.714 -11.745  22.891  0.00  0.00    +0.196 A 
ENDBRANCH  29  30
BRANCH  15   2
ATOM      2  O   UNL     1      -3.800 -12.819  15.678  0.00  0.00    -0.391 OA
ATOM     34  H   UNL     1      -3.155 -12.287  16.174  0.00  0.00    +0.210 HD
ENDBRANCH  15   2
BRANCH  12  20
ATOM     20  C   UNL     1      -4.563 -12.938  18.409  0.00  0.00    +0.165 C 
BRANCH  20   3
ATOM      3  O   UNL     1      -4.002 -14.229  18.513  0.00  0.00    -0.394 OA
ATOM     35  H   UNL     1      -3.062 -14.157  18.275  0.00  0.00    +0.209 HD
ENDBRANCH  20   3
ENDBRANCH  12  20
BRANCH  13  23
ATOM     23  C   UNL     1      -8.850  -8.769  17.742  0.00  0.00    +0.106 C 
BRANCH  23  24
ATOM      4  O   UNL     1      -9.323  -8.690  15.369  0.00  0.00    -0.276 OA
ATOM      8  N   UNL     1     -10.248  -7.089  16.772  0.00  0.00    -0.312 N 
ATOM     24  C   UNL     1      -9.479  -8.209  16.488  0.00  0.00    +0.214 C 
ATOM     36  H   UNL     1     -10.319  -6.754  17.729  0.00  0.00    +0.149 HD
BRANCH   8  26
ATOM     26  C   UNL     1     -10.957  -6.363  15.758  0.00  0.00    +0.073 C 
ATOM     27  C   UNL     1     -11.924  -7.053  14.841  0.00  0.00    +0.024 C 
ATOM     28  C   UNL     1     -12.429  -6.094  15.879  0.00  0.00    +0.024 C 
ENDBRANCH   8  26
ENDBRANCH  23  24
ENDBRANCH  13  23
TORSDOF 7
ENDMDL
MODEL 6
REMARK VINA RESULT:      -6.2     15.917     19.192
REMARK  Name = 26763540
REMARK  9 active torsions:
REMARK  status: ('A' for Active; 'I' for Inactive)
REMARK    1  A    between atoms: O_2  and  C_15
REMARK    2  A    between atoms: O_3  and  C_20
REMARK    3  A    between atoms: N_8  and  C_26
REMARK    4  A    between atoms: C_10  and  C_18
REMARK    5  A    between atoms: C_12  and  C_20
REMARK    6  A    between atoms: C_12  and  C_21
REMARK    7  A    between atoms: C_13  and  C_23
REMARK    8  A    between atoms: C_23  and  C_24
REMARK    9  A    between atoms: C_29  and  C_30
REMARK                            x       y       z     vdW  Elec       q    Type
REMARK                         _______ _______ _______ _____ _____    ______ ____
ROOT
ATOM      1  S   UNL     1      14.937   8.205   6.455  0.00  0.00    -0.057 S 
ATOM      5  O   UNL     1      12.025   6.508   3.207  0.00  0.00    -0.266 OA
ATOM      7  N   UNL     1      14.773   7.471   3.980  0.00  0.00    -0.229 NA
ATOM      9  N   UNL     1      12.765   7.296   5.302  0.00  0.00    -0.258 N 
ATOM     10  C   UNL     1      18.380   8.745   3.498  0.00  0.00    -0.019 C 
ATOM     11  C   UNL     1      18.784   8.407   5.001  0.00  0.00    +0.011 C 
ATOM     12  C   UNL     1      20.225   8.845   5.471  0.00  0.00    +0.021 C 
ATOM     13  C   UNL     1      17.111   7.853   3.114  0.00  0.00    +0.054 C 
ATOM     14  C   UNL     1      19.549   8.365   2.552  0.00  0.00    +0.010 C 
ATOM     15  C   UNL     1      21.264   8.431   4.391  0.00  0.00    +0.123 C 
ATOM     16  C   UNL     1      17.652   8.800   5.995  0.00  0.00    +0.049 C 
ATOM     17  C   UNL     1      20.900   8.911   2.990  0.00  0.00    +0.032 C 
ATOM     18  C   UNL     1      18.039  10.241   3.290  0.00  0.00    +0.012 C 
ATOM     19  C   UNL     1      16.069   7.896   4.203  0.00  0.00    +0.058 A 
ATOM     21  C   UNL     1      20.584   8.082   6.776  0.00  0.00    +0.016 C 
ATOM     22  C   UNL     1      16.338   8.308   5.492  0.00  0.00    +0.015 A 
ATOM     25  C   UNL     1      14.085   7.596   5.094  0.00  0.00    +0.165 A 
ATOM     29  C   UNL     1      11.817   6.781   4.383  0.00  0.00    +0.285 C 
ATOM     37  H   UNL     1      12.441   7.469   6.250  0.00  0.00    +0.157 HD
ENDROOT
BRANCH  29  30
ATOM      6  O   UNL     1      10.347   5.951   6.144  0.00  0.00    -0.458 OA
ATOM     30  C   UNL     1      10.453   6.531   4.920  0.00  0.00    +0.189 A 
ATOM     31  C   UNL     1       9.205   6.785   4.397  0.00  0.00    +0.054 A 
ATOM     32  C   UNL     1       8.275   6.332   5.362  0.00  0.00    +0.042 A 
ATOM     33  C   UNL     1       9.019   5.833   6.406  0.00  0.00    +0.196 A 
ENDBRANCH  29  30
BRANCH  15   2
ATOM      2  O   UNL     1      22.560   8.927   4.724  0.00  0.00    -0.391 OA
ATOM     34  H   UNL     1      22.870   8.440   5.506  0.00  0.00    +0.210 HD
ENDBRANCH  15   2
BRANCH  12  20
ATOM     20  C   UNL     1      20.357  10.344   5.816  0.00  0.00    +0.165 C 
BRANCH  20   3
ATOM      3  O   UNL     1      21.257  10.462   6.897  0.00  0.00    -0.394 OA
ATOM     35  H   UNL     1      20.873   9.977   7.648  0.00  0.00    +0.209 HD
ENDBRANCH  20   3
ENDBRANCH  12  20
BRANCH  13  23
ATOM     23  C   UNL     1      16.502   8.166   1.741  0.00  0.00    +0.106 C 
BRANCH  23  24
ATOM      4  O   UNL     1      17.090   6.753  -0.136  0.00  0.00    -0.276 OA
ATOM      8  N   UNL     1      15.460   6.048   1.359  0.00  0.00    -0.312 N 
ATOM     24  C   UNL     1      16.409   6.935   0.870  0.00  0.00    +0.214 C 
ATOM     36  H   UNL     1      14.935   6.281   2.198  0.00  0.00    +0.149 HD
BRANCH   8  26
ATOM     26  C   UNL     1      15.172   4.797   0.720  0.00  0.00    +0.073 C 
ATOM     27  C   UNL     1      15.110   3.519   1.505  0.00  0.00    +0.024 C 
ATOM     28  C   UNL     1      13.856   4.104   0.924  0.00  0.00    +0.024 C 
ENDBRANCH   8  26
ENDBRANCH  23  24
ENDBRANCH  13  23
TORSDOF 7
ENDMDL
MODEL 7
REMARK VINA RESULT:      -6.1     28.554     32.498
REMARK  Name = 26763540
REMARK  9 active torsions:
REMARK  status: ('A' for Active; 'I' for Inactive)
REMARK    1  A    between atoms: O_2  and  C_15
REMARK    2  A    between atoms: O_3  and  C_20
REMARK    3  A    between atoms: N_8  and  C_26
REMARK    4  A    between atoms: C_10  and  C_18
REMARK    5  A    between atoms: C_12  and  C_20
REMARK    6  A    between atoms: C_12  and  C_21
REMARK    7  A    between atoms: C_13  and  C_23
REMARK    8  A    between atoms: C_23  and  C_24
REMARK    9  A    between atoms: C_29  and  C_30
REMARK                            x       y       z     vdW  Elec       q    Type
REMARK                         _______ _______ _______ _____ _____    ______ ____
ROOT
ATOM      1  S   UNL     1      -6.583 -10.411  10.777  0.00  0.00    -0.057 S 
ATOM      5  O   UNL     1     -10.857  -8.762  11.736  0.00  0.00    -0.266 OA
ATOM      7  N   UNL     1      -8.161  -9.699  12.699  0.00  0.00    -0.229 NA
ATOM      9  N   UNL     1      -9.031  -9.527  10.458  0.00  0.00    -0.258 N 
ATOM     10  C   UNL     1      -5.491 -10.952  15.182  0.00  0.00    -0.019 C 
ATOM     11  C   UNL     1      -4.293 -10.599  14.194  0.00  0.00    +0.011 C 
ATOM     12  C   UNL     1      -2.843 -11.023  14.647  0.00  0.00    +0.021 C 
ATOM     13  C   UNL     1      -6.756 -10.072  14.760  0.00  0.00    +0.054 C 
ATOM     14  C   UNL     1      -5.092 -10.572  16.632  0.00  0.00    +0.010 C 
ATOM     15  C   UNL     1      -2.628 -10.611  16.131  0.00  0.00    +0.123 C 
ATOM     16  C   UNL     1      -4.633 -10.992  12.727  0.00  0.00    +0.049 C 
ATOM     17  C   UNL     1      -3.732 -11.105  17.058  0.00  0.00    +0.032 C 
ATOM     18  C   UNL     1      -5.874 -12.452  15.150  0.00  0.00    +0.012 C 
ATOM     19  C   UNL     1      -6.972 -10.114  13.269  0.00  0.00    +0.058 A 
ATOM     21  C   UNL     1      -1.800 -10.246  13.795  0.00  0.00    +0.016 C 
ATOM     22  C   UNL     1      -6.001 -10.512  12.375  0.00  0.00    +0.015 A 
ATOM     25  C   UNL     1      -8.073  -9.820  11.392  0.00  0.00    +0.165 A 
ATOM     29  C   UNL     1     -10.341  -9.026  10.656  0.00  0.00    +0.285 C 
ATOM     37  H   UNL     1      -8.742  -9.695   9.497  0.00  0.00    +0.157 HD
ENDROOT
BRANCH  29  30
ATOM      6  O   UNL     1     -10.871  -9.536   8.330  0.00  0.00    -0.458 OA
ATOM     30  C   UNL     1     -11.142  -8.782   9.428  0.00  0.00    +0.189 A 
ATOM     31  C   UNL     1     -12.162  -7.895   9.165  0.00  0.00    +0.054 A 
ATOM     32  C   UNL     1     -12.541  -8.120   7.820  0.00  0.00    +0.042 A 
ATOM     33  C   UNL     1     -11.726  -9.127   7.357  0.00  0.00    +0.196 A 
ENDBRANCH  29  30
BRANCH  15   2
ATOM      2  O   UNL     1      -1.374 -11.095  16.611  0.00  0.00    -0.391 OA
ATOM     34  H   UNL     1      -1.004 -10.419  17.203  0.00  0.00    +0.210 HD
ENDBRANCH  15   2
BRANCH  12  20
ATOM     20  C   UNL     1      -2.519 -12.518  14.438  0.00  0.00    +0.165 C 
BRANCH  20   3
ATOM      3  O   UNL     1      -1.186 -12.613  13.983  0.00  0.00    -0.394 OA
ATOM     35  H   UNL     1      -1.182 -13.216  13.220  0.00  0.00    +0.209 HD
ENDBRANCH  20   3
ENDBRANCH  12  20
BRANCH  13  23
ATOM     23  C   UNL     1      -8.046 -10.401  15.524  0.00  0.00    +0.106 C 
BRANCH  23  24
ATOM      4  O   UNL     1      -8.167  -9.035  17.520  0.00  0.00    -0.276 OA
ATOM      8  N   UNL     1      -9.397  -8.433  15.647  0.00  0.00    -0.312 N 
ATOM     24  C   UNL     1      -8.520  -9.236  16.361  0.00  0.00    +0.214 C 
ATOM     36  H   UNL     1      -9.641  -8.676  14.689  0.00  0.00    +0.149 HD
BRANCH   8  26
ATOM     26  C   UNL     1      -9.997  -7.256  16.207  0.00  0.00    +0.073 C 
ATOM     27  C   UNL     1     -10.803  -6.316  15.360  0.00  0.00    +0.024 C 
ATOM     28  C   UNL     1     -11.482  -7.157  16.401  0.00  0.00    +0.024 C 
ENDBRANCH   8  26
ENDBRANCH  23  24
ENDBRANCH  13  23
TORSDOF 7
ENDMDL
MODEL 8
REMARK VINA RESULT:      -6.0     16.268     19.573
REMARK  Name = 26763540
REMARK  9 active torsions:
REMARK  status: ('A' for Active; 'I' for Inactive)
REMARK    1  A    between atoms: O_2  and  C_15
REMARK    2  A    between atoms: O_3  and  C_20
REMARK    3  A    between atoms: N_8  and  C_26
REMARK    4  A    between atoms: C_10  and  C_18
REMARK    5  A    between atoms: C_12  and  C_20
REMARK    6  A    between atoms: C_12  and  C_21
REMARK    7  A    between atoms: C_13  and  C_23
REMARK    8  A    between atoms: C_23  and  C_24
REMARK    9  A    between atoms: C_29  and  C_30
REMARK                            x       y       z     vdW  Elec       q    Type
REMARK                         _______ _______ _______ _____ _____    ______ ____
ROOT
ATOM      1  S   UNL     1      15.285   8.109   6.260  0.00  0.00    -0.057 S 
ATOM      5  O   UNL     1      11.268   6.308   4.672  0.00  0.00    -0.266 OA
ATOM      7  N   UNL     1      14.100   7.194   4.152  0.00  0.00    -0.229 NA
ATOM      9  N   UNL     1      12.820   7.220   6.194  0.00  0.00    -0.258 N 
ATOM     10  C   UNL     1      17.196   8.249   2.111  0.00  0.00    -0.019 C 
ATOM     11  C   UNL     1      18.183   8.010   3.337  0.00  0.00    +0.011 C 
ATOM     12  C   UNL     1      19.694   8.412   3.129  0.00  0.00    +0.021 C 
ATOM     13  C   UNL     1      15.872   7.393   2.367  0.00  0.00    +0.054 C 
ATOM     14  C   UNL     1      17.862   7.740   0.806  0.00  0.00    +0.010 C 
ATOM     15  C   UNL     1      20.186   7.865   1.759  0.00  0.00    +0.123 C 
ATOM     16  C   UNL     1      17.572   8.534   4.669  0.00  0.00    +0.049 C 
ATOM     17  C   UNL     1      19.279   8.252   0.596  0.00  0.00    +0.032 C 
ATOM     18  C   UNL     1      16.817   9.739   1.926  0.00  0.00    +0.012 C 
ATOM     19  C   UNL     1      15.377   7.571   3.780  0.00  0.00    +0.058 A 
ATOM     21  C   UNL     1      20.555   7.737   4.233  0.00  0.00    +0.016 C 
ATOM     22  C   UNL     1      16.161   8.068   4.800  0.00  0.00    +0.015 A 
ATOM     25  C   UNL     1      13.938   7.438   5.434  0.00  0.00    +0.165 A 
ATOM     29  C   UNL     1      11.570   6.682   5.799  0.00  0.00    +0.285 C 
ATOM     37  H   UNL     1      12.921   7.482   7.171  0.00  0.00    +0.157 HD
ENDROOT
BRANCH  29  30
ATOM      6  O   UNL     1       9.736   7.601   7.119  0.00  0.00    -0.458 OA
ATOM     30  C   UNL     1      10.549   6.541   6.871  0.00  0.00    +0.189 A 
ATOM     31  C   UNL     1      10.244   5.493   7.710  0.00  0.00    +0.054 A 
ATOM     32  C   UNL     1       9.176   5.939   8.523  0.00  0.00    +0.042 A 
ATOM     33  C   UNL     1       8.903   7.227   8.125  0.00  0.00    +0.196 A 
ENDBRANCH  29  30
BRANCH  15   2
ATOM      2  O   UNL     1      21.510   8.322   1.481  0.00  0.00    -0.391 OA
ATOM     34  H   UNL     1      21.744   8.977   2.160  0.00  0.00    +0.210 HD
ENDBRANCH  15   2
BRANCH  12  20
ATOM     20  C   UNL     1      19.976   9.926   3.251  0.00  0.00    +0.165 C 
BRANCH  20   3
ATOM      3  O   UNL     1      21.252  10.083   3.833  0.00  0.00    -0.394 OA
ATOM     35  H   UNL     1      21.847   9.445   3.403  0.00  0.00    +0.209 HD
ENDBRANCH  20   3
ENDBRANCH  12  20
BRANCH  13  23
ATOM     23  C   UNL     1      14.751   7.627   1.345  0.00  0.00    +0.106 C 
BRANCH  23  24
ATOM      4  O   UNL     1      14.732   5.845  -0.295  0.00  0.00    -0.276 OA
ATOM      8  N   UNL     1      13.237   5.782   1.479  0.00  0.00    -0.312 N 
ATOM     24  C   UNL     1      14.267   6.334   0.731  0.00  0.00    +0.214 C 
ATOM     36  H   UNL     1      12.908   6.258   2.316  0.00  0.00    +0.149 HD
BRANCH   8  26
ATOM     26  C   UNL     1      12.595   4.551   1.117  0.00  0.00    +0.073 C 
ATOM     27  C   UNL     1      13.182   3.225   1.505  0.00  0.00    +0.024 C 
ATOM     28  C   UNL     1      11.910   3.699   2.146  0.00  0.00    +0.024 C 
ENDBRANCH   8  26
ENDBRANCH  23  24
ENDBRANCH  13  23
TORSDOF 7
ENDMDL
MODEL 9
REMARK VINA RESULT:      -6.0     17.786     21.645
REMARK  Name = 26763540
REMARK  9 active torsions:
REMARK  status: ('A' for Active; 'I' for Inactive)
REMARK    1  A    between atoms: O_2  and  C_15
REMARK    2  A    between atoms: O_3  and  C_20
REMARK    3  A    between atoms: N_8  and  C_26
REMARK    4  A    between atoms: C_10  and  C_18
REMARK    5  A    between atoms: C_12  and  C_20
REMARK    6  A    between atoms: C_12  and  C_21
REMARK    7  A    between atoms: C_13  and  C_23
REMARK    8  A    between atoms: C_23  and  C_24
REMARK    9  A    between atoms: C_29  and  C_30
REMARK                            x       y       z     vdW  Elec       q    Type
REMARK                         _______ _______ _______ _____ _____    ______ ____
ROOT
ATOM      1  S   UNL     1       8.951   8.521   0.266  0.00  0.00    -0.057 S 
ATOM      5  O   UNL     1       7.221   9.052   4.583  0.00  0.00    -0.266 OA
ATOM      7  N   UNL     1       9.148   7.692   2.709  0.00  0.00    -0.229 NA
ATOM      9  N   UNL     1       7.495   9.390   2.266  0.00  0.00    -0.258 N 
ATOM     10  C   UNL     1      11.660   5.043   1.471  0.00  0.00    -0.019 C 
ATOM     11  C   UNL     1      12.191   5.979   0.297  0.00  0.00    +0.011 C 
ATOM     12  C   UNL     1      13.235   5.352  -0.704  0.00  0.00    +0.021 C 
ATOM     13  C   UNL     1      10.990   5.974   2.583  0.00  0.00    +0.054 C 
ATOM     14  C   UNL     1      12.857   4.296   2.115  0.00  0.00    +0.010 C 
ATOM     15  C   UNL     1      14.334   4.605   0.103  0.00  0.00    +0.123 C 
ATOM     16  C   UNL     1      11.020   6.729  -0.403  0.00  0.00    +0.049 C 
ATOM     17  C   UNL     1      13.769   3.609   1.110  0.00  0.00    +0.032 C 
ATOM     18  C   UNL     1      10.627   3.997   0.984  0.00  0.00    +0.012 C 
ATOM     19  C   UNL     1      10.070   6.990   1.955  0.00  0.00    +0.058 A 
ATOM     21  C   UNL     1      13.933   6.496  -1.490  0.00  0.00    +0.016 C 
ATOM     22  C   UNL     1      10.113   7.326   0.618  0.00  0.00    +0.015 A 
ATOM     25  C   UNL     1       8.496   8.521   1.922  0.00  0.00    +0.165 A 
ATOM     29  C   UNL     1       6.915   9.616   3.539  0.00  0.00    +0.285 C 
ATOM     37  H   UNL     1       7.136   9.942   1.491  0.00  0.00    +0.157 HD
ENDROOT
BRANCH  29  30
ATOM      6  O   UNL     1       5.327  11.098   2.427  0.00  0.00    -0.458 OA
ATOM     30  C   UNL     1       5.854  10.656   3.600  0.00  0.00    +0.189 A 
ATOM     31  C   UNL     1       5.264  11.297   4.666  0.00  0.00    +0.054 A 
ATOM     32  C   UNL     1       4.314  12.188   4.112  0.00  0.00    +0.042 A 
ATOM     33  C   UNL     1       4.391  12.029   2.747  0.00  0.00    +0.196 A 
ENDBRANCH  29  30
BRANCH  15   2
ATOM      2  O   UNL     1      15.222   3.915  -0.776  0.00  0.00    -0.391 OA
ATOM     34  H   UNL     1      14.726   3.187  -1.185  0.00  0.00    +0.210 HD
ENDBRANCH  15   2
BRANCH  12  20
ATOM     20  C   UNL     1      12.616   4.428  -1.777  0.00  0.00    +0.165 C 
BRANCH  20   3
ATOM      3  O   UNL     1      13.454   4.463  -2.912  0.00  0.00    -0.394 OA
ATOM     35  H   UNL     1      12.886   4.616  -3.687  0.00  0.00    +0.209 HD
ENDBRANCH  20   3
ENDBRANCH  12  20
BRANCH  13  23
ATOM     23  C   UNL     1      10.294   5.212   3.719  0.00  0.00    +0.106 C 
BRANCH  23  24
ATOM      4  O   UNL     1      11.677   6.479   5.250  0.00  0.00    -0.276 OA
ATOM      8  N   UNL     1      10.124   4.974   6.092  0.00  0.00    -0.312 N 
ATOM     24  C   UNL     1      10.794   5.644   5.078  0.00  0.00    +0.214 C 
ATOM     36  H   UNL     1       9.407   4.291   5.859  0.00  0.00    +0.149 HD
BRANCH   8  26
ATOM     26  C   UNL     1      10.404   5.197   7.481  0.00  0.00    +0.073 C 
ATOM     27  C   UNL     1       9.402   5.861   8.379  0.00  0.00    +0.024 C 
ATOM     28  C   UNL     1       9.714   4.403   8.551  0.00  0.00    +0.024 C 
ENDBRANCH   8  26
ENDBRANCH  23  24
ENDBRANCH  13  23
TORSDOF 7
ENDMDL
MODEL 10
REMARK VINA RESULT:      -6.0     29.123     32.073
REMARK  Name = 26763540
REMARK  9 active torsions:
REMARK  status: ('A' for Active; 'I' for Inactive)
REMARK    1  A    between atoms: O_2  and  C_15
REMARK    2  A    between atoms: O_3  and  C_20
REMARK    3  A    between atoms: N_8  and  C_26
REMARK    4  A    between atoms: C_10  and  C_18
REMARK    5  A    between atoms: C_12  and  C_20
REMARK    6  A    between atoms: C_12  and  C_21
REMARK    7  A    between atoms: C_13  and  C_23
REMARK    8  A    between atoms: C_23  and  C_24
REMARK    9  A    between atoms: C_29  and  C_30
REMARK                            x       y       z     vdW  Elec       q    Type
REMARK                         _______ _______ _______ _____ _____    ______ ____
ROOT
ATOM      1  S   UNL     1      -9.396 -10.262  13.400  0.00  0.00    -0.057 S 
ATOM      5  O   UNL     1      -5.624  -9.207  10.837  0.00  0.00    -0.266 OA
ATOM      7  N   UNL     1      -6.812 -10.138  13.444  0.00  0.00    -0.229 NA
ATOM      9  N   UNL     1      -7.896  -9.507  11.385  0.00  0.00    -0.258 N 
ATOM     10  C   UNL     1      -6.965 -10.979  17.203  0.00  0.00    -0.019 C 
ATOM     11  C   UNL     1      -8.290 -11.846  17.036  0.00  0.00    +0.011 C 
ATOM     12  C   UNL     1      -8.952 -12.405  18.354  0.00  0.00    +0.021 C 
ATOM     13  C   UNL     1      -6.243 -10.899  15.780  0.00  0.00    +0.054 C 
ATOM     14  C   UNL     1      -6.008 -11.687  18.198  0.00  0.00    +0.010 C 
ATOM     15  C   UNL     1      -7.850 -13.035  19.254  0.00  0.00    +0.123 C 
ATOM     16  C   UNL     1      -9.299 -11.161  16.069  0.00  0.00    +0.049 C 
ATOM     17  C   UNL     1      -6.671 -12.101  19.503  0.00  0.00    +0.032 C 
ATOM     18  C   UNL     1      -7.246  -9.546  17.719  0.00  0.00    +0.012 C 
ATOM     19  C   UNL     1      -7.230 -10.566  14.691  0.00  0.00    +0.058 A 
ATOM     21  C   UNL     1      -9.948 -13.538  17.980  0.00  0.00    +0.016 C 
ATOM     22  C   UNL     1      -8.594 -10.707  14.835  0.00  0.00    +0.015 A 
ATOM     25  C   UNL     1      -7.868  -9.940  12.684  0.00  0.00    +0.165 A 
ATOM     29  C   UNL     1      -6.812  -9.169  10.539  0.00  0.00    +0.285 C 
ATOM     37  H   UNL     1      -8.831  -9.429  10.991  0.00  0.00    +0.157 HD
ENDROOT
BRANCH  29  30
ATOM      6  O   UNL     1      -7.961  -7.664   9.001  0.00  0.00    -0.458 OA
ATOM     30  C   UNL     1      -7.165  -8.755   9.155  0.00  0.00    +0.189 A 
ATOM     31  C   UNL     1      -6.827  -9.283   7.930  0.00  0.00    +0.054 A 
ATOM     32  C   UNL     1      -7.456  -8.464   6.962  0.00  0.00    +0.042 A 
ATOM     33  C   UNL     1      -8.133  -7.494   7.664  0.00  0.00    +0.196 A 
ENDBRANCH  29  30
BRANCH  15   2
ATOM      2  O   UNL     1      -8.395 -13.433  20.511  0.00  0.00    -0.391 OA
ATOM     34  H   UNL     1      -8.856 -14.278  20.379  0.00  0.00    +0.210 HD
ENDBRANCH  15   2
BRANCH  12  20
ATOM     20  C   UNL     1      -9.780 -11.367  19.143  0.00  0.00    +0.165 C 
BRANCH  20   3
ATOM      3  O   UNL     1     -10.884 -12.037  19.713  0.00  0.00    -0.394 OA
ATOM     35  H   UNL     1     -11.257 -11.454  20.396  0.00  0.00    +0.209 HD
ENDBRANCH  20   3
ENDBRANCH  12  20
BRANCH  13  23
ATOM     23  C   UNL     1      -5.021  -9.972  15.735  0.00  0.00    +0.106 C 
BRANCH  23  24
ATOM      4  O   UNL     1      -3.113 -11.460  15.832  0.00  0.00    -0.276 OA
ATOM      8  N   UNL     1      -3.565 -10.307  13.869  0.00  0.00    -0.312 N 
ATOM     24  C   UNL     1      -3.800 -10.672  15.187  0.00  0.00    +0.214 C 
ATOM     36  H   UNL     1      -4.183  -9.641  13.411  0.00  0.00    +0.149 HD
BRANCH   8  26
ATOM     26  C   UNL     1      -2.466 -10.827  13.108  0.00  0.00    +0.073 C 
ATOM     27  C   UNL     1      -2.696 -11.680  11.894  0.00  0.00    +0.024 C 
ATOM     28  C   UNL     1      -2.142 -10.293  11.743  0.00  0.00    +0.024 C 
ENDBRANCH   8  26
ENDBRANCH  23  24
ENDBRANCH  13  23
TORSDOF 7
ENDMDL
