MODEL 1
REMARK VINA RESULT:      -7.6      0.000      0.000
REMARK  Name = 11886261
REMARK  6 active torsions:
REMARK  status: ('A' for Active; 'I' for Inactive)
REMARK    1  A    between atoms: O_3  and  C_20
REMARK    2  A    between atoms: O_3  and  C_22
REMARK    3  A    between atoms: N_5  and  C_16
REMARK    4  A    between atoms: N_6  and  C_17
REMARK    5  A    between atoms: N_10  and  C_23
REMARK    6  A    between atoms: N_11  and  C_30
REMARK                            x       y       z     vdW  Elec       q    Type
REMARK                         _______ _______ _______ _____ _____    ______ ____
ROOT
ATOM      1  O   UNL     1      15.102   7.853  22.264  0.00  0.00    -0.370 OA
ATOM      2  O   UNL     1      16.571   9.720  20.203  0.00  0.00    -0.370 OA
ATOM     14  C   UNL     1      15.688   8.591  20.074  0.00  0.00    +0.176 C 
ATOM     15  C   UNL     1      16.030   7.624  21.192  0.00  0.00    +0.172 C 
ATOM     16  C   UNL     1      14.261   9.017  20.358  0.00  0.00    +0.171 C 
ATOM     17  C   UNL     1      17.427   8.021  21.614  0.00  0.00    +0.131 C 
ATOM     18  C   UNL     1      14.143   8.842  21.867  0.00  0.00    +0.190 C 
ATOM     19  C   UNL     1      17.443   9.509  21.323  0.00  0.00    +0.185 C 
ENDROOT
BRANCH  17   6
ATOM      4  O   UNL     1      19.633   6.498  22.625  0.00  0.00    -0.252 OA
ATOM      6  N   UNL     1      18.424   7.325  20.837  0.00  0.00    -0.292 N 
ATOM     10  N   UNL     1      20.279   6.038  20.416  0.00  0.00    -0.269 N 
ATOM     21  C   UNL     1      19.475   6.601  21.411  0.00  0.00    +0.304 C 
ATOM     36  H   UNL     1      18.323   7.307  19.826  0.00  0.00    +0.151 HD
ATOM     37  H   UNL     1      20.009   6.223  19.453  0.00  0.00    +0.156 HD
BRANCH  10  23
ATOM     23  C   UNL     1      21.435   5.239  20.582  0.00  0.00    +0.035 A 
ATOM     26  C   UNL     1      21.292   3.904  20.923  0.00  0.00    +0.023 A 
ATOM     27  C   UNL     1      22.685   5.807  20.402  0.00  0.00    +0.023 A 
ATOM     31  C   UNL     1      22.432   3.116  21.085  0.00  0.00    +0.002 A 
ATOM     32  C   UNL     1      23.824   5.020  20.565  0.00  0.00    +0.002 A 
ATOM     33  C   UNL     1      23.697   3.673  20.907  0.00  0.00    +0.000 A 
ENDBRANCH  10  23
ENDBRANCH  17   6
BRANCH  16   5
ATOM      5  N   UNL     1      13.282   8.266  19.568  0.00  0.00    -0.187 N 
ATOM      7  N   UNL     1      13.039   6.977  19.824  0.00  0.00    -0.041 NA
ATOM      8  N   UNL     1      11.783   7.685  18.123  0.00  0.00    -0.071 NA
ATOM      9  N   UNL     1      12.118   6.625  18.935  0.00  0.00    -0.020 NA
ATOM     20  C   UNL     1      12.518   8.693  18.535  0.00  0.00    +0.342 A 
BRANCH  20   3
ATOM      3  O   UNL     1      12.526   9.917  18.042  0.00  0.00    -0.423 OA
BRANCH   3  22
ATOM     22  C   UNL     1      13.516  10.370  17.182  0.00  0.00    +0.132 A 
ATOM     24  C   UNL     1      14.176  11.547  17.477  0.00  0.00    +0.048 A 
ATOM     25  C   UNL     1      13.813   9.629  16.054  0.00  0.00    +0.048 A 
ATOM     28  C   UNL     1      15.170  12.002  16.612  0.00  0.00    +0.031 A 
ATOM     29  C   UNL     1      14.809  10.085  15.188  0.00  0.00    +0.031 A 
ATOM     30  C   UNL     1      15.487  11.271  15.468  0.00  0.00    +0.067 A 
BRANCH  30  11
ATOM     11  N   UNL     1      16.474  11.722  14.610  0.00  0.00    -0.220 N 
ATOM     12  N   UNL     1      16.198  12.131  13.358  0.00  0.00    -0.154 NA
ATOM     13  N   UNL     1      18.434  12.294  13.813  0.00  0.00    -0.222 NA
ATOM     34  C   UNL     1      17.809  11.824  14.868  0.00  0.00    +0.225 A 
ATOM     35  C   UNL     1      17.414  12.464  12.922  0.00  0.00    +0.245 A 
ENDBRANCH  30  11
ENDBRANCH   3  22
ENDBRANCH  20   3
ENDBRANCH  16   5
TORSDOF 6
ENDMDL
MODEL 2
REMARK VINA RESULT:      -7.5      5.324     10.491
REMARK  Name = 11886261
REMARK  6 active torsions:
REMARK  status: ('A' for Active; 'I' for Inactive)
REMARK    1  A    between atoms: O_3  and  C_20
REMARK    2  A    between atoms: O_3  and  C_22
REMARK    3  A    between atoms: N_5  and  C_16
REMARK    4  A    between atoms: N_6  and  C_17
REMARK    5  A    between atoms: N_10  and  C_23
REMARK    6  A    between atoms: N_11  and  C_30
REMARK                            x       y       z     vdW  Elec       q    Type
REMARK                         _______ _______ _______ _____ _____    ______ ____
ROOT
ATOM      1  O   UNL     1      13.833   7.668  17.184  0.00  0.00    -0.370 OA
ATOM      2  O   UNL     1      13.310  10.662  17.992  0.00  0.00    -0.370 OA
ATOM     14  C   UNL     1      12.584   9.435  18.186  0.00  0.00    +0.176 C 
ATOM     15  C   UNL     1      12.770   8.601  16.933  0.00  0.00    +0.172 C 
ATOM     16  C   UNL     1      13.233   8.621  19.289  0.00  0.00    +0.171 C 
ATOM     17  C   UNL     1      13.190   9.601  15.878  0.00  0.00    +0.131 C 
ATOM     18  C   UNL     1      14.276   7.799  18.542  0.00  0.00    +0.190 C 
ATOM     19  C   UNL     1      13.926  10.645  16.696  0.00  0.00    +0.185 C 
ENDROOT
BRANCH  17   6
ATOM      4  O   UNL     1      13.220  11.454  13.694  0.00  0.00    -0.252 OA
ATOM      6  N   UNL     1      12.043  10.170  15.214  0.00  0.00    -0.292 N 
ATOM     10  N   UNL     1      10.873  11.453  13.710  0.00  0.00    -0.269 N 
ATOM     21  C   UNL     1      12.145  11.073  14.149  0.00  0.00    +0.304 C 
ATOM     36  H   UNL     1      11.118   9.853  15.489  0.00  0.00    +0.151 HD
ATOM     37  H   UNL     1      10.081  11.045  14.199  0.00  0.00    +0.156 HD
BRANCH  10  23
ATOM     23  C   UNL     1      10.548  12.345  12.661  0.00  0.00    +0.035 A 
ATOM     26  C   UNL     1      10.603  13.710  12.890  0.00  0.00    +0.023 A 
ATOM     27  C   UNL     1      10.180  11.836  11.426  0.00  0.00    +0.023 A 
ATOM     31  C   UNL     1      10.283  14.589  11.855  0.00  0.00    +0.002 A 
ATOM     32  C   UNL     1       9.860  12.714  10.392  0.00  0.00    +0.002 A 
ATOM     33  C   UNL     1       9.911  14.092  10.607  0.00  0.00    +0.000 A 
ENDBRANCH  10  23
ENDBRANCH  17   6
BRANCH  16   5
ATOM      5  N   UNL     1      12.259   7.839  20.056  0.00  0.00    -0.187 N 
ATOM      7  N   UNL     1      12.299   6.503  20.055  0.00  0.00    -0.041 NA
ATOM      8  N   UNL     1      10.623   7.233  21.332  0.00  0.00    -0.071 NA
ATOM      9  N   UNL     1      11.293   6.136  20.838  0.00  0.00    -0.020 NA
ATOM     20  C   UNL     1      11.241   8.280  20.833  0.00  0.00    +0.342 A 
BRANCH  20   3
ATOM      3  O   UNL     1      10.938   9.547  21.039  0.00  0.00    -0.423 OA
BRANCH   3  22
ATOM     22  C   UNL     1      11.429  10.268  22.118  0.00  0.00    +0.132 A 
ATOM     24  C   UNL     1      10.662  10.370  23.263  0.00  0.00    +0.048 A 
ATOM     25  C   UNL     1      12.672  10.863  22.016  0.00  0.00    +0.048 A 
ATOM     28  C   UNL     1      11.156  11.096  24.347  0.00  0.00    +0.031 A 
ATOM     29  C   UNL     1      13.166  11.588  23.101  0.00  0.00    +0.031 A 
ATOM     30  C   UNL     1      12.408  11.704  24.266  0.00  0.00    +0.067 A 
BRANCH  30  11
ATOM     11  N   UNL     1      12.898  12.423  25.341  0.00  0.00    -0.220 N 
ATOM     12  N   UNL     1      13.918  11.974  26.095  0.00  0.00    -0.154 NA
ATOM     13  N   UNL     1      13.168  14.006  26.834  0.00  0.00    -0.222 NA
ATOM     34  C   UNL     1      12.461  13.634  25.792  0.00  0.00    +0.225 A 
ATOM     35  C   UNL     1      14.040  12.965  26.981  0.00  0.00    +0.245 A 
ENDBRANCH  30  11
ENDBRANCH   3  22
ENDBRANCH  20   3
ENDBRANCH  16   5
TORSDOF 6
ENDMDL
MODEL 3
REMARK VINA RESULT:      -7.5      3.831     10.311
REMARK  Name = 11886261
REMARK  6 active torsions:
REMARK  status: ('A' for Active; 'I' for Inactive)
REMARK    1  A    between atoms: O_3  and  C_20
REMARK    2  A    between atoms: O_3  and  C_22
REMARK    3  A    between atoms: N_5  and  C_16
REMARK    4  A    between atoms: N_6  and  C_17
REMARK    5  A    between atoms: N_10  and  C_23
REMARK    6  A    between atoms: N_11  and  C_30
REMARK                            x       y       z     vdW  Elec       q    Type
REMARK                         _______ _______ _______ _____ _____    ______ ____
ROOT
ATOM      1  O   UNL     1      13.665   8.685  15.261  0.00  0.00    -0.370 OA
ATOM      2  O   UNL     1      14.913  11.077  16.877  0.00  0.00    -0.370 OA
ATOM     14  C   UNL     1      13.690  10.327  16.990  0.00  0.00    +0.176 C 
ATOM     15  C   UNL     1      13.224  10.015  15.581  0.00  0.00    +0.172 C 
ATOM     16  C   UNL     1      13.972   8.972  17.611  0.00  0.00    +0.171 C 
ATOM     17  C   UNL     1      13.943  11.027  14.717  0.00  0.00    +0.131 C 
ATOM     18  C   UNL     1      14.306   8.103  16.404  0.00  0.00    +0.190 C 
ATOM     19  C   UNL     1      15.228  11.257  15.489  0.00  0.00    +0.185 C 
ENDROOT
BRANCH  17   6
ATOM      4  O   UNL     1      12.092  11.691  12.634  0.00  0.00    -0.252 OA
ATOM      6  N   UNL     1      13.180  12.245  14.597  0.00  0.00    -0.292 N 
ATOM     10  N   UNL     1      11.700  13.750  13.690  0.00  0.00    -0.269 N 
ATOM     21  C   UNL     1      12.293  12.493  13.543  0.00  0.00    +0.304 C 
ATOM     36  H   UNL     1      13.240  12.929  15.346  0.00  0.00    +0.151 HD
ATOM     37  H   UNL     1      11.979  14.293  14.504  0.00  0.00    +0.156 HD
BRANCH  10  23
ATOM     23  C   UNL     1      10.753  14.368  12.841  0.00  0.00    +0.035 A 
ATOM     26  C   UNL     1      11.182  14.962  11.665  0.00  0.00    +0.023 A 
ATOM     27  C   UNL     1       9.415  14.367  13.201  0.00  0.00    +0.023 A 
ATOM     31  C   UNL     1      10.247  15.571  10.827  0.00  0.00    +0.002 A 
ATOM     32  C   UNL     1       8.481  14.976  12.364  0.00  0.00    +0.002 A 
ATOM     33  C   UNL     1       8.897  15.578  11.176  0.00  0.00    +0.000 A 
ENDBRANCH  10  23
ENDBRANCH  17   6
BRANCH  16   5
ATOM      5  N   UNL     1      12.860   8.489  18.434  0.00  0.00    -0.187 N 
ATOM      7  N   UNL     1      11.721   9.183  18.522  0.00  0.00    -0.041 NA
ATOM      8  N   UNL     1      11.603   7.328  19.755  0.00  0.00    -0.071 NA
ATOM      9  N   UNL     1      10.953   8.466  19.334  0.00  0.00    -0.020 NA
ATOM     20  C   UNL     1      12.786   7.363  19.183  0.00  0.00    +0.342 A 
BRANCH  20   3
ATOM      3  O   UNL     1      13.748   6.469  19.305  0.00  0.00    -0.423 OA
BRANCH   3  22
ATOM     22  C   UNL     1      14.972   6.762  19.888  0.00  0.00    +0.132 A 
ATOM     24  C   UNL     1      15.001   7.502  21.055  0.00  0.00    +0.048 A 
ATOM     25  C   UNL     1      16.128   6.305  19.285  0.00  0.00    +0.048 A 
ATOM     28  C   UNL     1      16.232   7.796  21.640  0.00  0.00    +0.031 A 
ATOM     29  C   UNL     1      17.360   6.599  19.871  0.00  0.00    +0.031 A 
ATOM     30  C   UNL     1      17.411   7.345  21.049  0.00  0.00    +0.067 A 
BRANCH  30  11
ATOM     11  N   UNL     1      18.632   7.637  21.629  0.00  0.00    -0.220 N 
ATOM     12  N   UNL     1      19.087   8.898  21.737  0.00  0.00    -0.154 NA
ATOM     13  N   UNL     1      20.573   7.399  22.620  0.00  0.00    -0.222 NA
ATOM     34  C   UNL     1      19.526   6.754  22.159  0.00  0.00    +0.225 A 
ATOM     35  C   UNL     1      20.261   8.699  22.340  0.00  0.00    +0.245 A 
ENDBRANCH  30  11
ENDBRANCH   3  22
ENDBRANCH  20   3
ENDBRANCH  16   5
TORSDOF 6
ENDMDL
MODEL 4
REMARK VINA RESULT:      -7.4      3.929      9.505
REMARK  Name = 11886261
REMARK  6 active torsions:
REMARK  status: ('A' for Active; 'I' for Inactive)
REMARK    1  A    between atoms: O_3  and  C_20
REMARK    2  A    between atoms: O_3  and  C_22
REMARK    3  A    between atoms: N_5  and  C_16
REMARK    4  A    between atoms: N_6  and  C_17
REMARK    5  A    between atoms: N_10  and  C_23
REMARK    6  A    between atoms: N_11  and  C_30
REMARK                            x       y       z     vdW  Elec       q    Type
REMARK                         _______ _______ _______ _____ _____    ______ ____
ROOT
ATOM      1  O   UNL     1      13.395   7.857  22.039  0.00  0.00    -0.370 OA
ATOM      2  O   UNL     1      11.159   8.802  20.040  0.00  0.00    -0.370 OA
ATOM     14  C   UNL     1      12.384   9.387  20.515  0.00  0.00    +0.176 C 
ATOM     15  C   UNL     1      12.529   9.001  21.975  0.00  0.00    +0.172 C 
ATOM     16  C   UNL     1      13.568   8.735  19.826  0.00  0.00    +0.171 C 
ATOM     17  C   UNL     1      11.128   8.622  22.401  0.00  0.00    +0.131 C 
ATOM     18  C   UNL     1      13.876   7.543  20.725  0.00  0.00    +0.190 C 
ATOM     19  C   UNL     1      10.531   8.086  21.114  0.00  0.00    +0.185 C 
ENDROOT
BRANCH  17   6
ATOM      4  O   UNL     1      12.236  10.985  23.582  0.00  0.00    -0.252 OA
ATOM      6  N   UNL     1      10.398   9.773  22.876  0.00  0.00    -0.292 N 
ATOM     10  N   UNL     1      10.063  11.844  23.810  0.00  0.00    -0.269 N 
ATOM     21  C   UNL     1      11.019  10.892  23.444  0.00  0.00    +0.304 C 
ATOM     36  H   UNL     1       9.393   9.799  22.735  0.00  0.00    +0.151 HD
ATOM     37  H   UNL     1       9.091  11.609  23.627  0.00  0.00    +0.156 HD
BRANCH  10  23
ATOM     23  C   UNL     1      10.281  13.106  24.412  0.00  0.00    +0.035 A 
ATOM     26  C   UNL     1      10.025  14.257  23.685  0.00  0.00    +0.023 A 
ATOM     27  C   UNL     1      10.747  13.165  25.715  0.00  0.00    +0.023 A 
ATOM     31  C   UNL     1      10.239  15.501  24.279  0.00  0.00    +0.002 A 
ATOM     32  C   UNL     1      10.962  14.408  26.308  0.00  0.00    +0.002 A 
ATOM     33  C   UNL     1      10.708  15.577  25.590  0.00  0.00    +0.000 A 
ENDBRANCH  10  23
ENDBRANCH  17   6
BRANCH  16   5
ATOM      5  N   UNL     1      14.683   9.665  19.626  0.00  0.00    -0.187 N 
ATOM      7  N   UNL     1      14.596  10.656  18.733  0.00  0.00    -0.041 NA
ATOM      8  N   UNL     1      16.578  10.696  19.755  0.00  0.00    -0.071 NA
ATOM      9  N   UNL     1      15.762  11.286  18.816  0.00  0.00    -0.020 NA
ATOM     20  C   UNL     1      15.886   9.692  20.245  0.00  0.00    +0.342 A 
BRANCH  20   3
ATOM      3  O   UNL     1      16.279   8.845  21.177  0.00  0.00    -0.423 OA
BRANCH   3  22
ATOM     22  C   UNL     1      17.464   8.129  21.087  0.00  0.00    +0.132 A 
ATOM     24  C   UNL     1      18.582   8.593  21.753  0.00  0.00    +0.048 A 
ATOM     25  C   UNL     1      17.492   6.972  20.331  0.00  0.00    +0.048 A 
ATOM     28  C   UNL     1      19.773   7.874  21.661  0.00  0.00    +0.031 A 
ATOM     29  C   UNL     1      18.684   6.252  20.240  0.00  0.00    +0.031 A 
ATOM     30  C   UNL     1      19.824   6.703  20.905  0.00  0.00    +0.067 A 
BRANCH  30  11
ATOM     11  N   UNL     1      21.005   5.990  20.813  0.00  0.00    -0.220 N 
ATOM     12  N   UNL     1      21.052   4.660  21.010  0.00  0.00    -0.154 NA
ATOM     13  N   UNL     1      23.123   5.503  20.526  0.00  0.00    -0.222 NA
ATOM     34  C   UNL     1      22.245   6.479  20.526  0.00  0.00    +0.225 A 
ATOM     35  C   UNL     1      22.352   4.417  20.826  0.00  0.00    +0.245 A 
ENDBRANCH  30  11
ENDBRANCH   3  22
ENDBRANCH  20   3
ENDBRANCH  16   5
TORSDOF 6
ENDMDL
MODEL 5
REMARK VINA RESULT:      -7.2     29.957     32.403
REMARK  Name = 11886261
REMARK  6 active torsions:
REMARK  status: ('A' for Active; 'I' for Inactive)
REMARK    1  A    between atoms: O_3  and  C_20
REMARK    2  A    between atoms: O_3  and  C_22
REMARK    3  A    between atoms: N_5  and  C_16
REMARK    4  A    between atoms: N_6  and  C_17
REMARK    5  A    between atoms: N_10  and  C_23
REMARK    6  A    between atoms: N_11  and  C_30
REMARK                            x       y       z     vdW  Elec       q    Type
REMARK                         _______ _______ _______ _____ _____    ______ ____
ROOT
ATOM      1  O   UNL     1     -15.834   4.309  22.198  0.00  0.00    -0.370 OA
ATOM      2  O   UNL     1     -16.679   6.761  23.978  0.00  0.00    -0.370 OA
ATOM     14  C   UNL     1     -15.421   6.289  23.462  0.00  0.00    +0.176 C 
ATOM     15  C   UNL     1     -15.459   4.773  23.505  0.00  0.00    +0.172 C 
ATOM     16  C   UNL     1     -15.309   6.628  21.988  0.00  0.00    +0.171 C 
ATOM     17  C   UNL     1     -16.548   4.455  24.506  0.00  0.00    +0.131 C 
ATOM     18  C   UNL     1     -15.955   5.427  21.308  0.00  0.00    +0.190 C 
ATOM     19  C   UNL     1     -17.488   5.634  24.347  0.00  0.00    +0.185 C 
ENDROOT
BRANCH  17   6
ATOM      4  O   UNL     1     -16.513   2.157  26.216  0.00  0.00    -0.252 OA
ATOM      6  N   UNL     1     -16.019   4.386  25.847  0.00  0.00    -0.292 N 
ATOM     10  N   UNL     1     -15.463   3.451  27.870  0.00  0.00    -0.269 N 
ATOM     21  C   UNL     1     -16.041   3.218  26.619  0.00  0.00    +0.304 C 
ATOM     36  H   UNL     1     -15.552   5.204  26.225  0.00  0.00    +0.151 HD
ATOM     37  H   UNL     1     -15.120   4.392  28.045  0.00  0.00    +0.156 HD
BRANCH  10  23
ATOM     23  C   UNL     1     -15.294   2.533  28.932  0.00  0.00    +0.035 A 
ATOM     26  C   UNL     1     -16.041   1.366  28.946  0.00  0.00    +0.023 A 
ATOM     27  C   UNL     1     -14.386   2.819  29.939  0.00  0.00    +0.023 A 
ATOM     31  C   UNL     1     -15.873   0.460  29.993  0.00  0.00    +0.002 A 
ATOM     32  C   UNL     1     -14.219   1.914  30.986  0.00  0.00    +0.002 A 
ATOM     33  C   UNL     1     -14.963   0.734  31.014  0.00  0.00    +0.000 A 
ENDBRANCH  10  23
ENDBRANCH  17   6
BRANCH  16   5
ATOM      5  N   UNL     1     -13.930   6.906  21.579  0.00  0.00    -0.187 N 
ATOM      7  N   UNL     1     -13.110   5.915  21.217  0.00  0.00    -0.041 NA
ATOM      8  N   UNL     1     -12.065   7.881  21.087  0.00  0.00    -0.071 NA
ATOM      9  N   UNL     1     -11.966   6.518  20.916  0.00  0.00    -0.020 NA
ATOM     20  C   UNL     1     -13.294   8.098  21.498  0.00  0.00    +0.342 A 
BRANCH  20   3
ATOM      3  O   UNL     1     -13.832   9.267  21.789  0.00  0.00    -0.423 OA
BRANCH   3  22
ATOM     22  C   UNL     1     -13.478   9.994  22.917  0.00  0.00    +0.132 A 
ATOM     24  C   UNL     1     -12.470  10.934  22.821  0.00  0.00    +0.048 A 
ATOM     25  C   UNL     1     -14.145   9.756  24.104  0.00  0.00    +0.048 A 
ATOM     28  C   UNL     1     -12.114  11.663  23.955  0.00  0.00    +0.031 A 
ATOM     29  C   UNL     1     -13.789  10.487  25.238  0.00  0.00    +0.031 A 
ATOM     30  C   UNL     1     -12.774  11.440  25.163  0.00  0.00    +0.067 A 
BRANCH  30  11
ATOM     11  N   UNL     1     -12.421  12.164  26.288  0.00  0.00    -0.220 N 
ATOM     12  N   UNL     1     -12.514  13.505  26.332  0.00  0.00    -0.154 NA
ATOM     13  N   UNL     1     -11.725  12.661  28.306  0.00  0.00    -0.222 NA
ATOM     34  C   UNL     1     -11.950  11.674  27.470  0.00  0.00    +0.225 A 
ATOM     35  C   UNL     1     -12.082  13.754  27.569  0.00  0.00    +0.245 A 
ENDBRANCH  30  11
ENDBRANCH   3  22
ENDBRANCH  20   3
ENDBRANCH  16   5
TORSDOF 6
ENDMDL
MODEL 6
REMARK VINA RESULT:      -7.1     28.212     30.976
REMARK  Name = 11886261
REMARK  6 active torsions:
REMARK  status: ('A' for Active; 'I' for Inactive)
REMARK    1  A    between atoms: O_3  and  C_20
REMARK    2  A    between atoms: O_3  and  C_22
REMARK    3  A    between atoms: N_5  and  C_16
REMARK    4  A    between atoms: N_6  and  C_17
REMARK    5  A    between atoms: N_10  and  C_23
REMARK    6  A    between atoms: N_11  and  C_30
REMARK                            x       y       z     vdW  Elec       q    Type
REMARK                         _______ _______ _______ _____ _____    ______ ____
ROOT
ATOM      1  O   UNL     1      -4.825 -10.540  18.284  0.00  0.00    -0.370 OA
ATOM      2  O   UNL     1      -6.475 -11.980  16.027  0.00  0.00    -0.370 OA
ATOM     14  C   UNL     1      -5.316 -11.126  16.026  0.00  0.00    +0.176 C 
ATOM     15  C   UNL     1      -5.523 -10.089  17.113  0.00  0.00    +0.172 C 
ATOM     16  C   UNL     1      -4.097 -11.911  16.470  0.00  0.00    +0.171 C 
ATOM     17  C   UNL     1      -7.015 -10.096  17.357  0.00  0.00    +0.131 C 
ATOM     18  C   UNL     1      -4.120 -11.753  17.986  0.00  0.00    +0.190 C 
ATOM     19  C   UNL     1      -7.388 -11.531  17.038  0.00  0.00    +0.185 C 
ENDROOT
BRANCH  17   6
ATOM      4  O   UNL     1      -9.817  -9.503  17.326  0.00  0.00    -0.252 OA
ATOM      6  N   UNL     1      -7.692  -9.172  16.479  0.00  0.00    -0.292 N 
ATOM     10  N   UNL     1      -9.441  -7.999  15.563  0.00  0.00    -0.269 N 
ATOM     21  C   UNL     1      -9.071  -8.939  16.529  0.00  0.00    +0.304 C 
ATOM     36  H   UNL     1      -7.133  -8.618  15.838  0.00  0.00    +0.151 HD
ATOM     37  H   UNL     1      -8.696  -7.628  14.979  0.00  0.00    +0.156 HD
BRANCH  10  23
ATOM     23  C   UNL     1     -10.735  -7.496  15.292  0.00  0.00    +0.035 A 
ATOM     26  C   UNL     1     -11.127  -6.293  15.857  0.00  0.00    +0.023 A 
ATOM     27  C   UNL     1     -11.585  -8.216  14.468  0.00  0.00    +0.023 A 
ATOM     31  C   UNL     1     -12.403  -5.797  15.589  0.00  0.00    +0.002 A 
ATOM     32  C   UNL     1     -12.860  -7.720  14.201  0.00  0.00    +0.002 A 
ATOM     33  C   UNL     1     -13.269  -6.509  14.762  0.00  0.00    +0.000 A 
ENDBRANCH  10  23
ENDBRANCH  17   6
BRANCH  16   5
ATOM      5  N   UNL     1      -2.867 -11.456  15.818  0.00  0.00    -0.187 N 
ATOM      7  N   UNL     1      -1.998 -10.672  16.463  0.00  0.00    -0.041 NA
ATOM      8  N   UNL     1      -1.274 -11.106  14.399  0.00  0.00    -0.071 NA
ATOM      9  N   UNL     1      -1.022 -10.459  15.589  0.00  0.00    -0.020 NA
ATOM     20  C   UNL     1      -2.424 -11.719  14.566  0.00  0.00    +0.342 A 
BRANCH  20   3
ATOM      3  O   UNL     1      -3.056 -12.463  13.679  0.00  0.00    -0.423 OA
BRANCH   3  22
ATOM     22  C   UNL     1      -3.593 -11.942  12.510  0.00  0.00    +0.132 A 
ATOM     24  C   UNL     1      -4.371 -10.802  12.579  0.00  0.00    +0.048 A 
ATOM     25  C   UNL     1      -3.334 -12.578  11.312  0.00  0.00    +0.048 A 
ATOM     28  C   UNL     1      -4.911 -10.279  11.404  0.00  0.00    +0.031 A 
ATOM     29  C   UNL     1      -3.874 -12.054  10.136  0.00  0.00    +0.031 A 
ATOM     30  C   UNL     1      -4.662 -10.904  10.183  0.00  0.00    +0.067 A 
BRANCH  30  11
ATOM     11  N   UNL     1      -5.198 -10.386   9.019  0.00  0.00    -0.220 N 
ATOM     12  N   UNL     1      -4.832 -10.833   7.804  0.00  0.00    -0.154 NA
ATOM     13  N   UNL     1      -6.396  -9.171   7.641  0.00  0.00    -0.222 NA
ATOM     34  C   UNL     1      -6.129  -9.396   8.907  0.00  0.00    +0.225 A 
ATOM     35  C   UNL     1      -5.583 -10.068   7.009  0.00  0.00    +0.245 A 
ENDBRANCH  30  11
ENDBRANCH   3  22
ENDBRANCH  20   3
ENDBRANCH  16   5
TORSDOF 6
ENDMDL
MODEL 7
REMARK VINA RESULT:      -7.0      4.032      6.265
REMARK  Name = 11886261
REMARK  6 active torsions:
REMARK  status: ('A' for Active; 'I' for Inactive)
REMARK    1  A    between atoms: O_3  and  C_20
REMARK    2  A    between atoms: O_3  and  C_22
REMARK    3  A    between atoms: N_5  and  C_16
REMARK    4  A    between atoms: N_6  and  C_17
REMARK    5  A    between atoms: N_10  and  C_23
REMARK    6  A    between atoms: N_11  and  C_30
REMARK                            x       y       z     vdW  Elec       q    Type
REMARK                         _______ _______ _______ _____ _____    ______ ____
ROOT
ATOM      1  O   UNL     1      15.026   8.947  19.642  0.00  0.00    -0.370 OA
ATOM      2  O   UNL     1      15.664   5.868  19.643  0.00  0.00    -0.370 OA
ATOM     14  C   UNL     1      14.789   6.706  20.420  0.00  0.00    +0.176 C 
ATOM     15  C   UNL     1      15.506   8.025  20.634  0.00  0.00    +0.172 C 
ATOM     16  C   UNL     1      13.561   7.063  19.605  0.00  0.00    +0.171 C 
ATOM     17  C   UNL     1      16.963   7.703  20.388  0.00  0.00    +0.131 C 
ATOM     18  C   UNL     1      13.992   8.325  18.867  0.00  0.00    +0.190 C 
ATOM     19  C   UNL     1      16.879   6.581  19.371  0.00  0.00    +0.185 C 
ENDROOT
BRANCH  17   6
ATOM      4  O   UNL     1      19.755   7.889  21.002  0.00  0.00    -0.252 OA
ATOM      6  N   UNL     1      17.611   7.263  21.600  0.00  0.00    -0.292 N 
ATOM     10  N   UNL     1      19.327   6.880  23.077  0.00  0.00    -0.269 N 
ATOM     21  C   UNL     1      18.987   7.391  21.822  0.00  0.00    +0.304 C 
ATOM     36  H   UNL     1      17.033   6.903  22.353  0.00  0.00    +0.151 HD
ATOM     37  H   UNL     1      18.567   6.500  23.636  0.00  0.00    +0.156 HD
BRANCH  10  23
ATOM     23  C   UNL     1      20.609   6.823  23.673  0.00  0.00    +0.035 A 
ATOM     26  C   UNL     1      21.561   5.962  23.153  0.00  0.00    +0.023 A 
ATOM     27  C   UNL     1      20.886   7.629  24.765  0.00  0.00    +0.023 A 
ATOM     31  C   UNL     1      22.825   5.907  23.741  0.00  0.00    +0.002 A 
ATOM     32  C   UNL     1      22.149   7.574  25.353  0.00  0.00    +0.002 A 
ATOM     33  C   UNL     1      23.120   6.712  24.840  0.00  0.00    +0.000 A 
ENDBRANCH  10  23
ENDBRANCH  17   6
BRANCH  16   5
ATOM      5  N   UNL     1      12.360   7.208  20.433  0.00  0.00    -0.187 N 
ATOM      7  N   UNL     1      11.651   6.139  20.805  0.00  0.00    -0.041 NA
ATOM      8  N   UNL     1      10.735   8.004  21.615  0.00  0.00    -0.071 NA
ATOM      9  N   UNL     1      10.654   6.632  21.530  0.00  0.00    -0.020 NA
ATOM     20  C   UNL     1      11.803   8.339  20.927  0.00  0.00    +0.342 A 
BRANCH  20   3
ATOM      3  O   UNL     1      12.267   9.559  20.736  0.00  0.00    -0.423 OA
BRANCH   3  22
ATOM     22  C   UNL     1      12.286  10.517  21.740  0.00  0.00    +0.132 A 
ATOM     24  C   UNL     1      13.312  10.501  22.665  0.00  0.00    +0.048 A 
ATOM     25  C   UNL     1      11.278  11.461  21.784  0.00  0.00    +0.048 A 
ATOM     28  C   UNL     1      13.330  11.464  23.674  0.00  0.00    +0.031 A 
ATOM     29  C   UNL     1      11.297  12.425  22.793  0.00  0.00    +0.031 A 
ATOM     30  C   UNL     1      12.323  12.426  23.737  0.00  0.00    +0.067 A 
BRANCH  30  11
ATOM     11  N   UNL     1      12.341  13.381  24.737  0.00  0.00    -0.220 N 
ATOM     12  N   UNL     1      13.405  14.178  24.944  0.00  0.00    -0.154 NA
ATOM     13  N   UNL     1      11.725  14.633  26.428  0.00  0.00    -0.222 NA
ATOM     34  C   UNL     1      11.348  13.663  25.628  0.00  0.00    +0.225 A 
ATOM     35  C   UNL     1      12.982  14.913  25.974  0.00  0.00    +0.245 A 
ENDBRANCH  30  11
ENDBRANCH   3  22
ENDBRANCH  20   3
ENDBRANCH  16   5
TORSDOF 6
ENDMDL
MODEL 8
REMARK VINA RESULT:      -7.0      4.566      7.234
REMARK  Name = 11886261
REMARK  6 active torsions:
REMARK  status: ('A' for Active; 'I' for Inactive)
REMARK    1  A    between atoms: O_3  and  C_20
REMARK    2  A    between atoms: O_3  and  C_22
REMARK    3  A    between atoms: N_5  and  C_16
REMARK    4  A    between atoms: N_6  and  C_17
REMARK    5  A    between atoms: N_10  and  C_23
REMARK    6  A    between atoms: N_11  and  C_30
REMARK                            x       y       z     vdW  Elec       q    Type
REMARK                         _______ _______ _______ _____ _____    ______ ____
ROOT
ATOM      1  O   UNL     1      16.368   7.249  19.055  0.00  0.00    -0.370 OA
ATOM      2  O   UNL     1      14.346   7.206  21.463  0.00  0.00    -0.370 OA
ATOM     14  C   UNL     1      14.400   7.925  20.218  0.00  0.00    +0.176 C 
ATOM     15  C   UNL     1      15.857   8.250  19.950  0.00  0.00    +0.172 C 
ATOM     16  C   UNL     1      13.993   7.012  19.077  0.00  0.00    +0.171 C 
ATOM     17  C   UNL     1      16.521   8.130  21.303  0.00  0.00    +0.131 C 
ATOM     18  C   UNL     1      15.310   6.360  18.672  0.00  0.00    +0.190 C 
ATOM     19  C   UNL     1      15.675   7.073  21.987  0.00  0.00    +0.185 C 
ENDROOT
BRANCH  17   6
ATOM      4  O   UNL     1      18.528  10.175  21.315  0.00  0.00    -0.252 OA
ATOM      6  N   UNL     1      16.473   9.382  22.020  0.00  0.00    -0.292 N 
ATOM     10  N   UNL     1      17.178  11.438  22.762  0.00  0.00    -0.269 N 
ATOM     21  C   UNL     1      17.501  10.331  21.972  0.00  0.00    +0.304 C 
ATOM     36  H   UNL     1      15.627   9.614  22.531  0.00  0.00    +0.151 HD
ATOM     37  H   UNL     1      16.284  11.408  23.245  0.00  0.00    +0.156 HD
BRANCH  10  23
ATOM     23  C   UNL     1      17.948  12.605  22.978  0.00  0.00    +0.035 A 
ATOM     26  C   UNL     1      18.825  12.650  24.050  0.00  0.00    +0.023 A 
ATOM     27  C   UNL     1      17.811  13.678  22.114  0.00  0.00    +0.023 A 
ATOM     31  C   UNL     1      19.585  13.801  24.262  0.00  0.00    +0.002 A 
ATOM     32  C   UNL     1      18.570  14.828  22.325  0.00  0.00    +0.002 A 
ATOM     33  C   UNL     1      19.458  14.890  23.400  0.00  0.00    +0.000 A 
ENDBRANCH  10  23
ENDBRANCH  17   6
BRANCH  16   5
ATOM      5  N   UNL     1      13.299   7.729  18.004  0.00  0.00    -0.187 N 
ATOM      7  N   UNL     1      13.921   8.012  16.855  0.00  0.00    -0.041 NA
ATOM      8  N   UNL     1      11.825   8.772  16.816  0.00  0.00    -0.071 NA
ATOM      9  N   UNL     1      13.013   8.652  16.130  0.00  0.00    -0.020 NA
ATOM     20  C   UNL     1      12.027   8.191  17.977  0.00  0.00    +0.342 A 
BRANCH  20   3
ATOM      3  O   UNL     1      11.155   8.069  18.960  0.00  0.00    -0.423 OA
BRANCH   3  22
ATOM     22  C   UNL     1      11.238   8.812  20.130  0.00  0.00    +0.132 A 
ATOM     24  C   UNL     1      11.785  10.080  20.084  0.00  0.00    +0.048 A 
ATOM     25  C   UNL     1      10.772   8.259  21.307  0.00  0.00    +0.048 A 
ATOM     28  C   UNL     1      11.868  10.825  21.260  0.00  0.00    +0.031 A 
ATOM     29  C   UNL     1      10.856   9.005  22.484  0.00  0.00    +0.031 A 
ATOM     30  C   UNL     1      11.403  10.288  22.459  0.00  0.00    +0.067 A 
BRANCH  30  11
ATOM     11  N   UNL     1      11.486  11.026  23.626  0.00  0.00    -0.220 N 
ATOM     12  N   UNL     1      10.397  11.546  24.221  0.00  0.00    -0.154 NA
ATOM     13  N   UNL     1      12.301  12.051  25.384  0.00  0.00    -0.222 NA
ATOM     34  C   UNL     1      12.613  11.335  24.329  0.00  0.00    +0.225 A 
ATOM     35  C   UNL     1      10.943  12.153  25.276  0.00  0.00    +0.245 A 
ENDBRANCH  30  11
ENDBRANCH   3  22
ENDBRANCH  20   3
ENDBRANCH  16   5
TORSDOF 6
ENDMDL
MODEL 9
REMARK VINA RESULT:      -7.0      6.250     12.474
REMARK  Name = 11886261
REMARK  6 active torsions:
REMARK  status: ('A' for Active; 'I' for Inactive)
REMARK    1  A    between atoms: O_3  and  C_20
REMARK    2  A    between atoms: O_3  and  C_22
REMARK    3  A    between atoms: N_5  and  C_16
REMARK    4  A    between atoms: N_6  and  C_17
REMARK    5  A    between atoms: N_10  and  C_23
REMARK    6  A    between atoms: N_11  and  C_30
REMARK                            x       y       z     vdW  Elec       q    Type
REMARK                         _______ _______ _______ _____ _____    ______ ____
ROOT
ATOM      1  O   UNL     1      12.257  14.045  11.479  0.00  0.00    -0.370 OA
ATOM      2  O   UNL     1      10.270  11.917  12.667  0.00  0.00    -0.370 OA
ATOM     14  C   UNL     1      11.704  12.011  12.593  0.00  0.00    +0.176 C 
ATOM     15  C   UNL     1      12.043  12.642  11.256  0.00  0.00    +0.172 C 
ATOM     16  C   UNL     1      12.210  13.001  13.625  0.00  0.00    +0.171 C 
ATOM     17  C   UNL     1      10.803  12.429  10.417  0.00  0.00    +0.131 C 
ATOM     18  C   UNL     1      12.159  14.330  12.881  0.00  0.00    +0.190 C 
ATOM     19  C   UNL     1       9.701  12.441  11.458  0.00  0.00    +0.185 C 
ENDROOT
BRANCH  17   6
ATOM      4  O   UNL     1       9.068  11.558   8.311  0.00  0.00    -0.252 OA
ATOM      6  N   UNL     1      10.854  11.164   9.724  0.00  0.00    -0.292 N 
ATOM     10  N   UNL     1      10.253   9.534   8.221  0.00  0.00    -0.269 N 
ATOM     21  C   UNL     1       9.964  10.815   8.702  0.00  0.00    +0.304 C 
ATOM     36  H   UNL     1      11.610  10.523   9.945  0.00  0.00    +0.151 HD
ATOM     37  H   UNL     1      11.033   9.049   8.658  0.00  0.00    +0.156 HD
BRANCH  10  23
ATOM     23  C   UNL     1       9.590   8.822   7.195  0.00  0.00    +0.035 A 
ATOM     26  C   UNL     1       9.688   9.268   5.887  0.00  0.00    +0.023 A 
ATOM     27  C   UNL     1       8.855   7.693   7.518  0.00  0.00    +0.023 A 
ATOM     31  C   UNL     1       9.035   8.564   4.875  0.00  0.00    +0.002 A 
ATOM     32  C   UNL     1       8.201   6.990   6.507  0.00  0.00    +0.002 A 
ATOM     33  C   UNL     1       8.291   7.426   5.185  0.00  0.00    +0.000 A 
ENDBRANCH  10  23
ENDBRANCH  17   6
BRANCH  16   5
ATOM      5  N   UNL     1      13.527  12.636  14.154  0.00  0.00    -0.187 N 
ATOM      7  N   UNL     1      14.507  13.541  14.235  0.00  0.00    -0.041 NA
ATOM      8  N   UNL     1      15.206  11.562  14.991  0.00  0.00    -0.071 NA
ATOM      9  N   UNL     1      15.536  12.877  14.749  0.00  0.00    -0.020 NA
ATOM     20  C   UNL     1      13.953  11.436  14.614  0.00  0.00    +0.342 A 
BRANCH  20   3
ATOM      3  O   UNL     1      13.221  10.340  14.665  0.00  0.00    -0.423 OA
BRANCH   3  22
ATOM     22  C   UNL     1      12.850   9.743  15.861  0.00  0.00    +0.132 A 
ATOM     24  C   UNL     1      11.569   9.243  15.994  0.00  0.00    +0.048 A 
ATOM     25  C   UNL     1      13.774   9.667  16.886  0.00  0.00    +0.048 A 
ATOM     28  C   UNL     1      11.196   8.644  17.197  0.00  0.00    +0.031 A 
ATOM     29  C   UNL     1      13.400   9.067  18.090  0.00  0.00    +0.031 A 
ATOM     30  C   UNL     1      12.112   8.555  18.244  0.00  0.00    +0.067 A 
BRANCH  30  11
ATOM     11  N   UNL     1      11.743   7.961  19.437  0.00  0.00    -0.220 N 
ATOM     12  N   UNL     1      12.182   6.740  19.793  0.00  0.00    -0.154 NA
ATOM     13  N   UNL     1      10.805   7.626  21.390  0.00  0.00    -0.222 NA
ATOM     34  C   UNL     1      10.923   8.477  20.397  0.00  0.00    +0.225 A 
ATOM     35  C   UNL     1      11.587   6.586  20.977  0.00  0.00    +0.245 A 
ENDBRANCH  30  11
ENDBRANCH   3  22
ENDBRANCH  20   3
ENDBRANCH  16   5
TORSDOF 6
ENDMDL
MODEL 10
REMARK VINA RESULT:      -6.9     28.318     32.689
REMARK  Name = 11886261
REMARK  6 active torsions:
REMARK  status: ('A' for Active; 'I' for Inactive)
REMARK    1  A    between atoms: O_3  and  C_20
REMARK    2  A    between atoms: O_3  and  C_22
REMARK    3  A    between atoms: N_5  and  C_16
REMARK    4  A    between atoms: N_6  and  C_17
REMARK    5  A    between atoms: N_10  and  C_23
REMARK    6  A    between atoms: N_11  and  C_30
REMARK                            x       y       z     vdW  Elec       q    Type
REMARK                         _______ _______ _______ _____ _____    ______ ____
ROOT
ATOM      1  O   UNL     1     -11.349 -11.573  15.710  0.00  0.00    -0.370 OA
ATOM      2  O   UNL     1      -8.905  -9.792  14.847  0.00  0.00    -0.370 OA
ATOM     14  C   UNL     1      -9.599  -9.999  16.091  0.00  0.00    +0.176 C 
ATOM     15  C   UNL     1     -11.070 -10.164  15.761  0.00  0.00    +0.172 C 
ATOM     16  C   UNL     1      -9.188 -11.328  16.695  0.00  0.00    +0.171 C 
ATOM     17  C   UNL     1     -11.216  -9.552  14.386  0.00  0.00    +0.131 C 
ATOM     18  C   UNL     1     -10.172 -12.309  16.069  0.00  0.00    +0.190 C 
ATOM     19  C   UNL     1      -9.853  -9.810  13.770  0.00  0.00    +0.185 C 
ENDROOT
BRANCH  17   6
ATOM      4  O   UNL     1     -12.620  -7.962  12.461  0.00  0.00    -0.252 OA
ATOM      6  N   UNL     1     -11.492  -8.138  14.471  0.00  0.00    -0.292 N 
ATOM     10  N   UNL     1     -12.303  -6.086  13.835  0.00  0.00    -0.269 N 
ATOM     21  C   UNL     1     -12.188  -7.433  13.482  0.00  0.00    +0.304 C 
ATOM     36  H   UNL     1     -11.225  -7.644  15.317  0.00  0.00    +0.151 HD
ATOM     37  H   UNL     1     -11.885  -5.809  14.720  0.00  0.00    +0.156 HD
BRANCH  10  23
ATOM     23  C   UNL     1     -12.933  -5.049  13.108  0.00  0.00    +0.035 A 
ATOM     26  C   UNL     1     -12.235  -4.409  12.096  0.00  0.00    +0.023 A 
ATOM     27  C   UNL     1     -14.234  -4.693  13.422  0.00  0.00    +0.023 A 
ATOM     31  C   UNL     1     -12.857  -3.387  11.379  0.00  0.00    +0.002 A 
ATOM     32  C   UNL     1     -14.855  -3.671  12.705  0.00  0.00    +0.002 A 
ATOM     33  C   UNL     1     -14.166  -3.018  11.683  0.00  0.00    +0.000 A 
ENDBRANCH  10  23
ENDBRANCH  17   6
BRANCH  16   5
ATOM      5  N   UNL     1      -9.186 -11.301  18.160  0.00  0.00    -0.187 N 
ATOM      7  N   UNL     1     -10.083 -10.576  18.834  0.00  0.00    -0.041 NA
ATOM      8  N   UNL     1      -8.717 -11.634  20.244  0.00  0.00    -0.071 NA
ATOM      9  N   UNL     1      -9.791 -10.783  20.113  0.00  0.00    -0.020 NA
ATOM     20  C   UNL     1      -8.358 -11.943  19.018  0.00  0.00    +0.342 A 
BRANCH  20   3
ATOM      3  O   UNL     1      -7.366 -12.737  18.664  0.00  0.00    -0.423 OA
BRANCH   3  22
ATOM     22  C   UNL     1      -6.265 -12.286  17.950  0.00  0.00    +0.132 A 
ATOM     24  C   UNL     1      -5.833 -13.007  16.854  0.00  0.00    +0.048 A 
ATOM     25  C   UNL     1      -5.632 -11.127  18.358  0.00  0.00    +0.048 A 
ATOM     28  C   UNL     1      -4.726 -12.553  16.138  0.00  0.00    +0.031 A 
ATOM     29  C   UNL     1      -4.524 -10.673  17.640  0.00  0.00    +0.031 A 
ATOM     30  C   UNL     1      -4.072 -11.386  16.530  0.00  0.00    +0.067 A 
BRANCH  30  11
ATOM     11  N   UNL     1      -2.974 -10.936  15.820  0.00  0.00    -0.220 N 
ATOM     12  N   UNL     1      -1.788 -10.705  16.411  0.00  0.00    -0.154 NA
ATOM     13  N   UNL     1      -1.701 -10.259  14.169  0.00  0.00    -0.222 NA
ATOM     34  C   UNL     1      -2.908 -10.666  14.485  0.00  0.00    +0.225 A 
ATOM     35  C   UNL     1      -1.056 -10.298  15.372  0.00  0.00    +0.245 A 
ENDBRANCH  30  11
ENDBRANCH   3  22
ENDBRANCH  20   3
ENDBRANCH  16   5
TORSDOF 6
ENDMDL
