MODEL 1
REMARK VINA RESULT:      -7.5      0.000      0.000
REMARK  Name = 11866302
REMARK  10 active torsions:
REMARK  status: ('A' for Active; 'I' for Inactive)
REMARK    1  A    between atoms: O_2  and  C_11
REMARK    2  A    between atoms: O_3  and  C_12
REMARK    3  A    between atoms: N_7  and  C_13
REMARK    4  A    between atoms: N_8  and  C_18
REMARK    5  A    between atoms: N_9  and  C_23
REMARK    6  A    between atoms: C_15  and  C_17
REMARK    7  A    between atoms: C_18  and  C_20
REMARK    8  A    between atoms: C_18  and  C_21
REMARK    9  A    between atoms: C_20  and  C_22
REMARK   10  A    between atoms: C_31  and  C_32
REMARK                            x       y       z     vdW  Elec       q    Type
REMARK                         _______ _______ _______ _____ _____    ______ ____
ROOT
ATOM     11  C   UNL     1     -17.694   2.184  24.649  0.00  0.00    +0.167 C 
ATOM     12  C   UNL     1     -18.498   1.835  25.908  0.00  0.00    +0.149 C 
ATOM     13  C   UNL     1     -16.782   3.403  24.882  0.00  0.00    +0.129 C 
ATOM     14  C   UNL     1     -17.591   1.596  27.127  0.00  0.00    +0.074 C 
ATOM     15  C   UNL     1     -16.421   2.538  27.193  0.00  0.00    +0.015 C 
ATOM     16  C   UNL     1     -16.053   3.358  26.198  0.00  0.00    +0.006 C 
ENDROOT
BRANCH  13   7
ATOM      5  O   UNL     1     -15.872   5.867  23.739  0.00  0.00    -0.252 OA
ATOM      7  N   UNL     1     -15.818   3.556  23.820  0.00  0.00    -0.290 N 
ATOM      9  N   UNL     1     -14.483   4.641  22.298  0.00  0.00    -0.269 N 
ATOM     19  C   UNL     1     -15.425   4.802  23.317  0.00  0.00    +0.304 C 
ATOM     33  H   UNL     1     -15.443   2.722  23.379  0.00  0.00    +0.151 HD
ATOM     37  H   UNL     1     -14.219   3.685  22.068  0.00  0.00    +0.156 HD
BRANCH   9  23
ATOM     23  C   UNL     1     -13.842   5.648  21.539  0.00  0.00    +0.035 A 
ATOM     25  C   UNL     1     -12.461   5.817  21.629  0.00  0.00    +0.023 A 
ATOM     26  C   UNL     1     -14.592   6.471  20.699  0.00  0.00    +0.023 A 
ATOM     29  C   UNL     1     -11.828   6.809  20.881  0.00  0.00    +0.005 A 
ATOM     30  C   UNL     1     -13.960   7.464  19.950  0.00  0.00    +0.005 A 
ATOM     31  C   UNL     1     -12.578   7.633  20.041  0.00  0.00    -0.050 A 
ATOM     32  C   UNL     1     -11.902   8.694  19.240  0.00  0.00    +0.044 C 
ENDBRANCH   9  23
ENDBRANCH  13   7
BRANCH  15  17
ATOM      4  O   UNL     1     -15.257   3.653  28.902  0.00  0.00    -0.271 OA
ATOM      8  N   UNL     1     -15.402   1.327  28.965  0.00  0.00    -0.300 N 
ATOM     17  C   UNL     1     -15.639   2.581  28.431  0.00  0.00    +0.241 C 
ATOM     36  H   UNL     1     -15.739   0.504  28.473  0.00  0.00    +0.150 HD
BRANCH   8  18
ATOM     18  C   UNL     1     -14.651   1.116  30.182  0.00  0.00    +0.164 C 
BRANCH  18  21
ATOM      6  O   UNL     1     -13.108  -0.704  29.719  0.00  0.00    -0.274 OA
ATOM     10  N   UNL     1     -15.087  -1.185  30.782  0.00  0.00    -0.328 N 
ATOM     21  C   UNL     1     -14.188  -0.334  30.175  0.00  0.00    +0.231 C 
ATOM     38  H   UNL     1     -14.893  -2.178  30.859  0.00  0.00    +0.145 HD
ATOM     39  H   UNL     1     -15.973  -0.865  31.158  0.00  0.00    +0.145 HD
ENDBRANCH  18  21
BRANCH  18  20
ATOM     20  C   UNL     1     -15.483   1.404  31.437  0.00  0.00    +0.074 C 
BRANCH  20  22
ATOM      1  S   UNL     1     -13.416   3.210  31.915  0.00  0.00    -0.102 S 
ATOM     22  C   UNL     1     -15.012   2.642  32.166  0.00  0.00    -0.008 A 
ATOM     24  C   UNL     1     -15.708   3.430  33.055  0.00  0.00    +0.011 A 
ATOM     27  C   UNL     1     -14.921   4.516  33.537  0.00  0.00    +0.008 A 
ATOM     28  C   UNL     1     -13.654   4.515  32.998  0.00  0.00    +0.045 A 
ENDBRANCH  20  22
ENDBRANCH  18  20
ENDBRANCH   8  18
ENDBRANCH  15  17
BRANCH  11   2
ATOM      2  O   UNL     1     -16.899   1.053  24.283  0.00  0.00    -0.387 OA
ATOM     34  H   UNL     1     -16.008   1.378  24.068  0.00  0.00    +0.210 HD
ENDBRANCH  11   2
BRANCH  12   3
ATOM      3  O   UNL     1     -19.439   2.869  26.193  0.00  0.00    -0.389 OA
ATOM     35  H   UNL     1     -19.970   3.013  25.392  0.00  0.00    +0.210 HD
ENDBRANCH  12   3
TORSDOF 9
ENDMDL
MODEL 2
REMARK VINA RESULT:      -7.0     29.080     31.603
REMARK  Name = 11866302
REMARK  10 active torsions:
REMARK  status: ('A' for Active; 'I' for Inactive)
REMARK    1  A    between atoms: O_2  and  C_11
REMARK    2  A    between atoms: O_3  and  C_12
REMARK    3  A    between atoms: N_7  and  C_13
REMARK    4  A    between atoms: N_8  and  C_18
REMARK    5  A    between atoms: N_9  and  C_23
REMARK    6  A    between atoms: C_15  and  C_17
REMARK    7  A    between atoms: C_18  and  C_20
REMARK    8  A    between atoms: C_18  and  C_21
REMARK    9  A    between atoms: C_20  and  C_22
REMARK   10  A    between atoms: C_31  and  C_32
REMARK                            x       y       z     vdW  Elec       q    Type
REMARK                         _______ _______ _______ _____ _____    ______ ____
ROOT
ATOM     11  C   UNL     1      14.474  13.116  15.849  0.00  0.00    +0.167 C 
ATOM     12  C   UNL     1      15.611  12.500  16.674  0.00  0.00    +0.149 C 
ATOM     13  C   UNL     1      13.959  12.136  14.778  0.00  0.00    +0.129 C 
ATOM     14  C   UNL     1      15.198  11.169  17.326  0.00  0.00    +0.074 C 
ATOM     15  C   UNL     1      14.335  10.315  16.440  0.00  0.00    +0.015 C 
ATOM     16  C   UNL     1      13.781  10.733  15.293  0.00  0.00    +0.006 C 
ENDROOT
BRANCH  13   7
ATOM      5  O   UNL     1      13.143  11.869  12.046  0.00  0.00    -0.252 OA
ATOM      7  N   UNL     1      12.714  12.584  14.203  0.00  0.00    -0.290 N 
ATOM      9  N   UNL     1      11.126  12.943  12.583  0.00  0.00    -0.269 N 
ATOM     19  C   UNL     1      12.390  12.413  12.851  0.00  0.00    +0.304 C 
ATOM     33  H   UNL     1      12.062  13.093  14.791  0.00  0.00    +0.151 HD
ATOM     37  H   UNL     1      10.631  13.362  13.368  0.00  0.00    +0.156 HD
BRANCH   9  23
ATOM     23  C   UNL     1      10.440  12.970  11.347  0.00  0.00    +0.035 A 
ATOM     25  C   UNL     1       9.796  11.824  10.882  0.00  0.00    +0.023 A 
ATOM     26  C   UNL     1      10.405  14.144  10.594  0.00  0.00    +0.023 A 
ATOM     29  C   UNL     1       9.119  11.849   9.663  0.00  0.00    +0.005 A 
ATOM     30  C   UNL     1       9.727  14.170   9.374  0.00  0.00    +0.005 A 
ATOM     31  C   UNL     1       9.084  13.023   8.909  0.00  0.00    -0.050 A 
ATOM     32  C   UNL     1       8.359  13.051   7.606  0.00  0.00    +0.044 C 
ENDBRANCH   9  23
ENDBRANCH  13   7
BRANCH  15  17
ATOM      4  O   UNL     1      13.915   8.046  15.999  0.00  0.00    -0.271 OA
ATOM      8  N   UNL     1      14.099   8.752  18.214  0.00  0.00    -0.300 N 
ATOM     17  C   UNL     1      14.096   8.926  16.841  0.00  0.00    +0.241 C 
ATOM     36  H   UNL     1      14.227   9.559  18.818  0.00  0.00    +0.150 HD
BRANCH   8  18
ATOM     18  C   UNL     1      13.883   7.470  18.847  0.00  0.00    +0.164 C 
BRANCH  18  21
ATOM      6  O   UNL     1      11.568   8.207  18.799  0.00  0.00    -0.274 OA
ATOM     10  N   UNL     1      12.032   6.090  19.562  0.00  0.00    -0.328 N 
ATOM     21  C   UNL     1      12.384   7.329  19.070  0.00  0.00    +0.231 C 
ATOM     38  H   UNL     1      11.060   5.859  19.740  0.00  0.00    +0.145 HD
ATOM     39  H   UNL     1      12.716   5.374  19.777  0.00  0.00    +0.145 HD
ENDBRANCH  18  21
BRANCH  18  20
ATOM     20  C   UNL     1      14.635   7.345  20.178  0.00  0.00    +0.074 C 
BRANCH  20  22
ATOM      1  S   UNL     1      17.226   7.140  21.181  0.00  0.00    -0.102 S 
ATOM     22  C   UNL     1      16.035   6.805  19.998  0.00  0.00    -0.008 A 
ATOM     24  C   UNL     1      16.532   6.039  18.965  0.00  0.00    +0.011 A 
ATOM     27  C   UNL     1      17.909   5.723  19.150  0.00  0.00    +0.008 A 
ATOM     28  C   UNL     1      18.411   6.260  20.314  0.00  0.00    +0.045 A 
ENDBRANCH  20  22
ENDBRANCH  18  20
ENDBRANCH   8  18
ENDBRANCH  15  17
BRANCH  11   2
ATOM      2  O   UNL     1      13.405  13.469  16.731  0.00  0.00    -0.387 OA
ATOM     34  H   UNL     1      12.694  12.819  16.603  0.00  0.00    +0.210 HD
ENDBRANCH  11   2
BRANCH  12   3
ATOM      3  O   UNL     1      16.764  12.309  15.857  0.00  0.00    -0.389 OA
ATOM     35  H   UNL     1      17.546  12.504  16.400  0.00  0.00    +0.210 HD
ENDBRANCH  12   3
TORSDOF 9
ENDMDL
MODEL 3
REMARK VINA RESULT:      -6.9     33.523     36.544
REMARK  Name = 11866302
REMARK  10 active torsions:
REMARK  status: ('A' for Active; 'I' for Inactive)
REMARK    1  A    between atoms: O_2  and  C_11
REMARK    2  A    between atoms: O_3  and  C_12
REMARK    3  A    between atoms: N_7  and  C_13
REMARK    4  A    between atoms: N_8  and  C_18
REMARK    5  A    between atoms: N_9  and  C_23
REMARK    6  A    between atoms: C_15  and  C_17
REMARK    7  A    between atoms: C_18  and  C_20
REMARK    8  A    between atoms: C_18  and  C_21
REMARK    9  A    between atoms: C_20  and  C_22
REMARK   10  A    between atoms: C_31  and  C_32
REMARK                            x       y       z     vdW  Elec       q    Type
REMARK                         _______ _______ _______ _____ _____    ______ ____
ROOT
ATOM     11  C   UNL     1      20.309   7.546  23.335  0.00  0.00    +0.167 C 
ATOM     12  C   UNL     1      21.839   7.647  23.376  0.00  0.00    +0.149 C 
ATOM     13  C   UNL     1      19.814   7.009  21.979  0.00  0.00    +0.129 C 
ATOM     14  C   UNL     1      22.517   6.304  23.056  0.00  0.00    +0.074 C 
ATOM     15  C   UNL     1      21.821   5.529  21.972  0.00  0.00    +0.015 C 
ATOM     16  C   UNL     1      20.615   5.839  21.476  0.00  0.00    +0.006 C 
ENDROOT
BRANCH  13   7
ATOM      5  O   UNL     1      17.617   8.411  20.791  0.00  0.00    -0.252 OA
ATOM      7  N   UNL     1      18.422   6.634  22.032  0.00  0.00    -0.290 N 
ATOM      9  N   UNL     1      16.163   6.774  21.639  0.00  0.00    -0.269 N 
ATOM     19  C   UNL     1      17.405   7.377  21.421  0.00  0.00    +0.304 C 
ATOM     33  H   UNL     1      18.158   5.821  22.580  0.00  0.00    +0.151 HD
ATOM     37  H   UNL     1      16.162   5.916  22.185  0.00  0.00    +0.156 HD
BRANCH   9  23
ATOM     23  C   UNL     1      14.896   7.211  21.190  0.00  0.00    +0.035 A 
ATOM     25  C   UNL     1      14.141   8.085  21.972  0.00  0.00    +0.023 A 
ATOM     26  C   UNL     1      14.400   6.769  19.963  0.00  0.00    +0.023 A 
ATOM     29  C   UNL     1      12.891   8.516  21.530  0.00  0.00    +0.005 A 
ATOM     30  C   UNL     1      13.149   7.200  19.519  0.00  0.00    +0.005 A 
ATOM     31  C   UNL     1      12.395   8.074  20.304  0.00  0.00    -0.050 A 
ATOM     32  C   UNL     1      11.058   8.536  19.830  0.00  0.00    +0.044 C 
ENDBRANCH   9  23
ENDBRANCH  13   7
BRANCH  15  17
ATOM      4  O   UNL     1      21.888   3.497  20.794  0.00  0.00    -0.271 OA
ATOM      8  N   UNL     1      23.876   4.386  21.628  0.00  0.00    -0.300 N 
ATOM     17  C   UNL     1      22.511   4.368  21.402  0.00  0.00    +0.241 C 
ATOM     36  H   UNL     1      24.281   5.142  22.173  0.00  0.00    +0.150 HD
BRANCH   8  18
ATOM     18  C   UNL     1      24.767   3.347  21.163  0.00  0.00    +0.164 C 
BRANCH  18  21
ATOM      6  O   UNL     1      26.005   4.590  19.482  0.00  0.00    -0.274 OA
ATOM     10  N   UNL     1      24.576   2.930  18.790  0.00  0.00    -0.328 N 
ATOM     21  C   UNL     1      25.183   3.716  19.746  0.00  0.00    +0.231 C 
ATOM     38  H   UNL     1      24.778   3.062  17.804  0.00  0.00    +0.145 HD
ATOM     39  H   UNL     1      23.902   2.209  19.023  0.00  0.00    +0.145 HD
ENDBRANCH  18  21
BRANCH  18  20
ATOM     20  C   UNL     1      24.107   1.962  21.182  0.00  0.00    +0.074 C 
BRANCH  20  22
ATOM      1  S   UNL     1      23.935   1.165  23.846  0.00  0.00    -0.102 S 
ATOM     22  C   UNL     1      24.645   1.086  22.290  0.00  0.00    -0.008 A 
ATOM     24  C   UNL     1      25.682   0.180  22.239  0.00  0.00    +0.011 A 
ATOM     27  C   UNL     1      25.895  -0.459  23.494  0.00  0.00    +0.008 A 
ATOM     28  C   UNL     1      25.014  -0.016  24.456  0.00  0.00    +0.045 A 
ENDBRANCH  20  22
ENDBRANCH  18  20
ENDBRANCH   8  18
ENDBRANCH  15  17
BRANCH  11   2
ATOM      2  O   UNL     1      19.879   6.673  24.383  0.00  0.00    -0.387 OA
ATOM     34  H   UNL     1      19.911   5.764  24.039  0.00  0.00    +0.210 HD
ENDBRANCH  11   2
BRANCH  12   3
ATOM      3  O   UNL     1      22.289   8.652  22.468  0.00  0.00    -0.389 OA
ATOM     35  H   UNL     1      22.833   8.215  21.792  0.00  0.00    +0.210 HD
ENDBRANCH  12   3
TORSDOF 9
ENDMDL
MODEL 4
REMARK VINA RESULT:      -6.7     31.825     36.926
REMARK  Name = 11866302
REMARK  10 active torsions:
REMARK  status: ('A' for Active; 'I' for Inactive)
REMARK    1  A    between atoms: O_2  and  C_11
REMARK    2  A    between atoms: O_3  and  C_12
REMARK    3  A    between atoms: N_7  and  C_13
REMARK    4  A    between atoms: N_8  and  C_18
REMARK    5  A    between atoms: N_9  and  C_23
REMARK    6  A    between atoms: C_15  and  C_17
REMARK    7  A    between atoms: C_18  and  C_20
REMARK    8  A    between atoms: C_18  and  C_21
REMARK    9  A    between atoms: C_20  and  C_22
REMARK   10  A    between atoms: C_31  and  C_32
REMARK                            x       y       z     vdW  Elec       q    Type
REMARK                         _______ _______ _______ _____ _____    ______ ____
ROOT
ATOM     11  C   UNL     1      14.144   6.948   2.588  0.00  0.00    +0.167 C 
ATOM     12  C   UNL     1      12.633   7.207   2.626  0.00  0.00    +0.149 C 
ATOM     13  C   UNL     1      14.873   7.692   3.722  0.00  0.00    +0.129 C 
ATOM     14  C   UNL     1      12.016   6.841   3.987  0.00  0.00    +0.074 C 
ATOM     15  C   UNL     1      12.892   7.200   5.154  0.00  0.00    +0.015 C 
ATOM     16  C   UNL     1      14.170   7.591   5.048  0.00  0.00    +0.006 C 
ENDROOT
BRANCH  13   7
ATOM      5  O   UNL     1      17.168   9.289   4.346  0.00  0.00    -0.252 OA
ATOM      7  N   UNL     1      16.230   7.228   3.876  0.00  0.00    -0.290 N 
ATOM      9  N   UNL     1      18.490   7.351   4.271  0.00  0.00    -0.269 N 
ATOM     19  C   UNL     1      17.300   8.078   4.184  0.00  0.00    +0.304 C 
ATOM     33  H   UNL     1      16.432   6.248   3.703  0.00  0.00    +0.151 HD
ATOM     37  H   UNL     1      18.425   6.348   4.107  0.00  0.00    +0.156 HD
BRANCH   9  23
ATOM     23  C   UNL     1      19.785   7.837   4.561  0.00  0.00    +0.035 A 
ATOM     25  C   UNL     1      20.691   8.069   3.526  0.00  0.00    +0.023 A 
ATOM     26  C   UNL     1      20.158   8.085   5.882  0.00  0.00    +0.023 A 
ATOM     29  C   UNL     1      21.969   8.550   3.811  0.00  0.00    +0.005 A 
ATOM     30  C   UNL     1      21.436   8.566   6.168  0.00  0.00    +0.005 A 
ATOM     31  C   UNL     1      22.341   8.798   5.132  0.00  0.00    -0.050 A 
ATOM     32  C   UNL     1      23.707   9.313   5.437  0.00  0.00    +0.044 C 
ENDBRANCH   9  23
ENDBRANCH  13   7
BRANCH  15  17
ATOM      4  O   UNL     1      12.805   7.774   7.431  0.00  0.00    -0.271 OA
ATOM      8  N   UNL     1      11.196   6.323   6.569  0.00  0.00    -0.300 N 
ATOM     17  C   UNL     1      12.310   7.141   6.498  0.00  0.00    +0.241 C 
ATOM     36  H   UNL     1      10.894   5.820   5.739  0.00  0.00    +0.150 HD
BRANCH   8  18
ATOM     18  C   UNL     1      10.453   6.105   7.789  0.00  0.00    +0.164 C 
BRANCH  18  21
ATOM      6  O   UNL     1       9.936   4.016   8.920  0.00  0.00    -0.274 OA
ATOM     10  N   UNL     1      10.094   4.016   6.628  0.00  0.00    -0.328 N 
ATOM     21  C   UNL     1      10.151   4.615   7.869  0.00  0.00    +0.231 C 
ATOM     38  H   UNL     1       9.885   3.027   6.538  0.00  0.00    +0.145 HD
ATOM     39  H   UNL     1      10.270   4.522   5.768  0.00  0.00    +0.145 HD
ENDBRANCH  18  21
BRANCH  18  20
ATOM     20  C   UNL     1       9.153   6.916   7.832  0.00  0.00    +0.074 C 
BRANCH  20  22
ATOM      1  S   UNL     1       9.052   9.130   6.144  0.00  0.00    -0.102 S 
ATOM     22  C   UNL     1       8.780   7.473   6.477  0.00  0.00    -0.008 A 
ATOM     24  C   UNL     1       8.219   6.814   5.404  0.00  0.00    +0.011 A 
ATOM     27  C   UNL     1       8.012   7.681   4.294  0.00  0.00    +0.008 A 
ATOM     28  C   UNL     1       8.420   8.969   4.560  0.00  0.00    +0.045 A 
ENDBRANCH  20  22
ENDBRANCH  18  20
ENDBRANCH   8  18
ENDBRANCH  15  17
BRANCH  11   2
ATOM      2  O   UNL     1      14.371   5.541   2.713  0.00  0.00    -0.387 OA
ATOM     34  H   UNL     1      13.595   5.086   2.345  0.00  0.00    +0.210 HD
ENDBRANCH  11   2
BRANCH  12   3
ATOM      3  O   UNL     1      12.361   8.573   2.317  0.00  0.00    -0.389 OA
ATOM     35  H   UNL     1      12.262   9.051   3.157  0.00  0.00    +0.210 HD
ENDBRANCH  12   3
TORSDOF 9
ENDMDL
MODEL 5
REMARK VINA RESULT:      -6.7     31.912     36.065
REMARK  Name = 11866302
REMARK  10 active torsions:
REMARK  status: ('A' for Active; 'I' for Inactive)
REMARK    1  A    between atoms: O_2  and  C_11
REMARK    2  A    between atoms: O_3  and  C_12
REMARK    3  A    between atoms: N_7  and  C_13
REMARK    4  A    between atoms: N_8  and  C_18
REMARK    5  A    between atoms: N_9  and  C_23
REMARK    6  A    between atoms: C_15  and  C_17
REMARK    7  A    between atoms: C_18  and  C_20
REMARK    8  A    between atoms: C_18  and  C_21
REMARK    9  A    between atoms: C_20  and  C_22
REMARK   10  A    between atoms: C_31  and  C_32
REMARK                            x       y       z     vdW  Elec       q    Type
REMARK                         _______ _______ _______ _____ _____    ______ ____
ROOT
ATOM     11  C   UNL     1      15.283   9.142   4.796  0.00  0.00    +0.167 C 
ATOM     12  C   UNL     1      14.692  10.181   5.758  0.00  0.00    +0.149 C 
ATOM     13  C   UNL     1      15.118   7.711   5.340  0.00  0.00    +0.129 C 
ATOM     14  C   UNL     1      13.214   9.899   6.078  0.00  0.00    +0.074 C 
ATOM     15  C   UNL     1      12.906   8.436   6.234  0.00  0.00    +0.015 C 
ATOM     16  C   UNL     1      13.753   7.447   5.915  0.00  0.00    +0.006 C 
ENDROOT
BRANCH  13   7
ATOM      5  O   UNL     1      13.350   6.847   3.258  0.00  0.00    -0.252 OA
ATOM      7  N   UNL     1      15.397   6.722   4.327  0.00  0.00    -0.290 N 
ATOM      9  N   UNL     1      15.019   5.380   2.501  0.00  0.00    -0.269 N 
ATOM     19  C   UNL     1      14.473   6.356   3.340  0.00  0.00    +0.304 C 
ATOM     33  H   UNL     1      16.284   6.229   4.359  0.00  0.00    +0.151 HD
ATOM     37  H   UNL     1      15.969   5.080   2.708  0.00  0.00    +0.156 HD
BRANCH   9  23
ATOM     23  C   UNL     1      14.411   4.752   1.390  0.00  0.00    +0.035 A 
ATOM     25  C   UNL     1      13.393   3.819   1.586  0.00  0.00    +0.023 A 
ATOM     26  C   UNL     1      14.828   5.067   0.096  0.00  0.00    +0.023 A 
ATOM     29  C   UNL     1      12.792   3.200   0.491  0.00  0.00    +0.005 A 
ATOM     30  C   UNL     1      14.228   4.448  -1.001  0.00  0.00    +0.005 A 
ATOM     31  C   UNL     1      13.209   3.514  -0.803  0.00  0.00    -0.050 A 
ATOM     32  C   UNL     1      12.567   2.853  -1.975  0.00  0.00    +0.044 C 
ENDBRANCH   9  23
ENDBRANCH  13   7
BRANCH  15  17
ATOM      4  O   UNL     1      10.926   8.871   7.421  0.00  0.00    -0.271 OA
ATOM      8  N   UNL     1      11.262   6.746   6.525  0.00  0.00    -0.300 N 
ATOM     17  C   UNL     1      11.604   8.060   6.790  0.00  0.00    +0.241 C 
ATOM     36  H   UNL     1      11.916   6.154   6.019  0.00  0.00    +0.150 HD
BRANCH   8  18
ATOM     18  C   UNL     1      10.026   6.145   6.972  0.00  0.00    +0.164 C 
BRANCH  18  21
ATOM      6  O   UNL     1      10.783   5.454   9.176  0.00  0.00    -0.274 OA
ATOM     10  N   UNL     1      10.167   3.835   7.667  0.00  0.00    -0.328 N 
ATOM     21  C   UNL     1      10.385   5.139   8.057  0.00  0.00    +0.231 C 
ATOM     38  H   UNL     1      10.351   3.065   8.303  0.00  0.00    +0.145 HD
ATOM     39  H   UNL     1       9.834   3.589   6.742  0.00  0.00    +0.145 HD
ENDBRANCH  18  21
BRANCH  18  20
ATOM     20  C   UNL     1       9.268   5.454   5.832  0.00  0.00    +0.074 C 
BRANCH  20  22
ATOM      1  S   UNL     1       8.291   7.721   4.541  0.00  0.00    -0.102 S 
ATOM     22  C   UNL     1       9.235   6.292   4.575  0.00  0.00    -0.008 A 
ATOM     24  C   UNL     1       9.883   6.072   3.380  0.00  0.00    +0.011 A 
ATOM     27  C   UNL     1       9.602   7.089   2.423  0.00  0.00    +0.008 A 
ATOM     28  C   UNL     1       8.750   8.048   2.924  0.00  0.00    +0.045 A 
ENDBRANCH  20  22
ENDBRANCH  18  20
ENDBRANCH   8  18
ENDBRANCH  15  17
BRANCH  11   2
ATOM      2  O   UNL     1      14.620   9.256   3.534  0.00  0.00    -0.387 OA
ATOM     34  H   UNL     1      15.306   9.327   2.848  0.00  0.00    +0.210 HD
ENDBRANCH  11   2
BRANCH  12   3
ATOM      3  O   UNL     1      15.454  10.223   6.964  0.00  0.00    -0.389 OA
ATOM     35  H   UNL     1      16.319  10.612   6.752  0.00  0.00    +0.210 HD
ENDBRANCH  12   3
TORSDOF 9
ENDMDL
MODEL 6
REMARK VINA RESULT:      -6.7      2.279      3.757
REMARK  Name = 11866302
REMARK  10 active torsions:
REMARK  status: ('A' for Active; 'I' for Inactive)
REMARK    1  A    between atoms: O_2  and  C_11
REMARK    2  A    between atoms: O_3  and  C_12
REMARK    3  A    between atoms: N_7  and  C_13
REMARK    4  A    between atoms: N_8  and  C_18
REMARK    5  A    between atoms: N_9  and  C_23
REMARK    6  A    between atoms: C_15  and  C_17
REMARK    7  A    between atoms: C_18  and  C_20
REMARK    8  A    between atoms: C_18  and  C_21
REMARK    9  A    between atoms: C_20  and  C_22
REMARK   10  A    between atoms: C_31  and  C_32
REMARK                            x       y       z     vdW  Elec       q    Type
REMARK                         _______ _______ _______ _____ _____    ______ ____
ROOT
ATOM     11  C   UNL     1     -16.659   5.761  21.919  0.00  0.00    +0.167 C 
ATOM     12  C   UNL     1     -17.884   5.405  22.771  0.00  0.00    +0.149 C 
ATOM     13  C   UNL     1     -15.406   5.963  22.791  0.00  0.00    +0.129 C 
ATOM     14  C   UNL     1     -17.640   4.165  23.648  0.00  0.00    +0.074 C 
ATOM     15  C   UNL     1     -16.254   4.109  24.226  0.00  0.00    +0.015 C 
ATOM     16  C   UNL     1     -15.247   4.913  23.856  0.00  0.00    +0.006 C 
ENDROOT
BRANCH  13   7
ATOM      5  O   UNL     1     -14.517   8.131  21.144  0.00  0.00    -0.252 OA
ATOM      7  N   UNL     1     -14.204   6.004  21.993  0.00  0.00    -0.290 N 
ATOM      9  N   UNL     1     -12.633   6.861  20.553  0.00  0.00    -0.269 N 
ATOM     19  C   UNL     1     -13.840   7.108  21.212  0.00  0.00    +0.304 C 
ATOM     33  H   UNL     1     -13.619   5.175  21.952  0.00  0.00    +0.151 HD
ATOM     37  H   UNL     1     -12.199   5.956  20.720  0.00  0.00    +0.156 HD
BRANCH   9  23
ATOM     23  C   UNL     1     -11.932   7.720  19.676  0.00  0.00    +0.035 A 
ATOM     25  C   UNL     1     -10.931   8.556  20.170  0.00  0.00    +0.023 A 
ATOM     26  C   UNL     1     -12.240   7.731  18.315  0.00  0.00    +0.023 A 
ATOM     29  C   UNL     1     -10.238   9.403  19.306  0.00  0.00    +0.005 A 
ATOM     30  C   UNL     1     -11.547   8.577  17.449  0.00  0.00    +0.005 A 
ATOM     31  C   UNL     1     -10.546   9.414  17.945  0.00  0.00    -0.050 A 
ATOM     32  C   UNL     1      -9.805  10.319  17.020  0.00  0.00    +0.044 C 
ENDBRANCH   9  23
ENDBRANCH  13   7
BRANCH  15  17
ATOM      4  O   UNL     1     -15.711   1.957  24.997  0.00  0.00    -0.271 OA
ATOM      8  N   UNL     1     -16.074   3.656  26.551  0.00  0.00    -0.300 N 
ATOM     17  C   UNL     1     -15.984   3.124  25.277  0.00  0.00    +0.241 C 
ATOM     36  H   UNL     1     -16.339   4.630  26.667  0.00  0.00    +0.150 HD
BRANCH   8  18
ATOM     18  C   UNL     1     -15.851   2.878  27.749  0.00  0.00    +0.164 C 
BRANCH  18  21
ATOM      6  O   UNL     1     -16.948   0.717  27.938  0.00  0.00    -0.274 OA
ATOM     10  N   UNL     1     -18.236   2.616  28.046  0.00  0.00    -0.328 N 
ATOM     21  C   UNL     1     -17.042   1.941  27.901  0.00  0.00    +0.231 C 
ATOM     38  H   UNL     1     -19.106   2.110  28.172  0.00  0.00    +0.145 HD
ATOM     39  H   UNL     1     -18.299   3.627  28.018  0.00  0.00    +0.145 HD
ENDBRANCH  18  21
BRANCH  18  20
ATOM     20  C   UNL     1     -15.701   3.758  28.996  0.00  0.00    +0.074 C 
BRANCH  20  22
ATOM      1  S   UNL     1     -15.686   3.307  31.745  0.00  0.00    -0.102 S 
ATOM     22  C   UNL     1     -15.106   3.003  30.162  0.00  0.00    -0.008 A 
ATOM     24  C   UNL     1     -14.109   2.053  30.150  0.00  0.00    +0.011 A 
ATOM     27  C   UNL     1     -13.817   1.567  31.457  0.00  0.00    +0.008 A 
ATOM     28  C   UNL     1     -14.601   2.165  32.418  0.00  0.00    +0.045 A 
ENDBRANCH  20  22
ENDBRANCH  18  20
ENDBRANCH   8  18
ENDBRANCH  15  17
BRANCH  11   2
ATOM      2  O   UNL     1     -16.428   4.704  20.983  0.00  0.00    -0.387 OA
ATOM     34  H   UNL     1     -17.179   4.691  20.366  0.00  0.00    +0.210 HD
ENDBRANCH  11   2
BRANCH  12   3
ATOM      3  O   UNL     1     -18.256   6.516  23.585  0.00  0.00    -0.389 OA
ATOM     35  H   UNL     1     -17.966   7.325  23.131  0.00  0.00    +0.210 HD
ENDBRANCH  12   3
TORSDOF 9
ENDMDL
MODEL 7
REMARK VINA RESULT:      -6.6     29.486     33.309
REMARK  Name = 11866302
REMARK  10 active torsions:
REMARK  status: ('A' for Active; 'I' for Inactive)
REMARK    1  A    between atoms: O_2  and  C_11
REMARK    2  A    between atoms: O_3  and  C_12
REMARK    3  A    between atoms: N_7  and  C_13
REMARK    4  A    between atoms: N_8  and  C_18
REMARK    5  A    between atoms: N_9  and  C_23
REMARK    6  A    between atoms: C_15  and  C_17
REMARK    7  A    between atoms: C_18  and  C_20
REMARK    8  A    between atoms: C_18  and  C_21
REMARK    9  A    between atoms: C_20  and  C_22
REMARK   10  A    between atoms: C_31  and  C_32
REMARK                            x       y       z     vdW  Elec       q    Type
REMARK                         _______ _______ _______ _____ _____    ______ ____
ROOT
ATOM     11  C   UNL     1      14.454  12.491  15.753  0.00  0.00    +0.167 C 
ATOM     12  C   UNL     1      14.113  12.376  17.244  0.00  0.00    +0.149 C 
ATOM     13  C   UNL     1      15.417  11.376  15.307  0.00  0.00    +0.129 C 
ATOM     14  C   UNL     1      13.532  10.997  17.601  0.00  0.00    +0.074 C 
ATOM     15  C   UNL     1      14.197   9.864  16.869  0.00  0.00    +0.015 C 
ATOM     16  C   UNL     1      15.049  10.021  15.846  0.00  0.00    +0.006 C 
ENDROOT
BRANCH  13   7
ATOM      5  O   UNL     1      17.228  12.825  13.625  0.00  0.00    -0.252 OA
ATOM      7  N   UNL     1      15.510  11.297  13.869  0.00  0.00    -0.290 N 
ATOM      9  N   UNL     1      16.285  11.760  11.757  0.00  0.00    -0.269 N 
ATOM     19  C   UNL     1      16.427  12.042  13.118  0.00  0.00    +0.304 C 
ATOM     33  H   UNL     1      14.844  10.714  13.370  0.00  0.00    +0.151 HD
ATOM     37  H   UNL     1      15.569  11.083  11.504  0.00  0.00    +0.156 HD
BRANCH   9  23
ATOM     23  C   UNL     1      17.020  12.301  10.677  0.00  0.00    +0.035 A 
ATOM     25  C   UNL     1      18.394  12.080  10.588  0.00  0.00    +0.023 A 
ATOM     26  C   UNL     1      16.370  13.056   9.700  0.00  0.00    +0.023 A 
ATOM     29  C   UNL     1      19.120  12.613   9.523  0.00  0.00    +0.005 A 
ATOM     30  C   UNL     1      17.095  13.589   8.634  0.00  0.00    +0.005 A 
ATOM     31  C   UNL     1      18.470  13.368   8.546  0.00  0.00    -0.050 A 
ATOM     32  C   UNL     1      19.245  13.937   7.406  0.00  0.00    +0.044 C 
ENDBRANCH   9  23
ENDBRANCH  13   7
BRANCH  15  17
ATOM      4  O   UNL     1      13.737   7.590  16.497  0.00  0.00    -0.271 OA
ATOM      8  N   UNL     1      13.873   8.371  18.690  0.00  0.00    -0.300 N 
ATOM     17  C   UNL     1      13.914   8.496  17.312  0.00  0.00    +0.241 C 
ATOM     36  H   UNL     1      14.003   9.197  19.268  0.00  0.00    +0.150 HD
BRANCH   8  18
ATOM     18  C   UNL     1      13.610   7.119  19.362  0.00  0.00    +0.164 C 
BRANCH  18  21
ATOM      6  O   UNL     1      11.369   8.048  19.509  0.00  0.00    -0.274 OA
ATOM     10  N   UNL     1      11.775   6.001  20.469  0.00  0.00    -0.328 N 
ATOM     21  C   UNL     1      12.148   7.139  19.785  0.00  0.00    +0.231 C 
ATOM     38  H   UNL     1      10.822   5.880  20.795  0.00  0.00    +0.145 HD
ATOM     39  H   UNL     1      12.427   5.256  20.687  0.00  0.00    +0.145 HD
ENDBRANCH  18  21
BRANCH  18  20
ATOM     20  C   UNL     1      14.516   6.911  20.581  0.00  0.00    +0.074 C 
BRANCH  20  22
ATOM      1  S   UNL     1      17.197   6.731  21.320  0.00  0.00    -0.102 S 
ATOM     22  C   UNL     1      15.925   6.529  20.190  0.00  0.00    -0.008 A 
ATOM     24  C   UNL     1      16.373   6.015  18.993  0.00  0.00    +0.011 A 
ATOM     27  C   UNL     1      17.779   5.783  19.004  0.00  0.00    +0.008 A 
ATOM     28  C   UNL     1      18.351   6.129  20.208  0.00  0.00    +0.045 A 
ENDBRANCH  20  22
ENDBRANCH  18  20
ENDBRANCH   8  18
ENDBRANCH  15  17
BRANCH  11   2
ATOM      2  O   UNL     1      13.242  12.410  14.998  0.00  0.00    -0.387 OA
ATOM     34  H   UNL     1      12.753  13.239  15.140  0.00  0.00    +0.210 HD
ENDBRANCH  11   2
BRANCH  12   3
ATOM      3  O   UNL     1      15.271  12.639  18.035  0.00  0.00    -0.389 OA
ATOM     35  H   UNL     1      16.047  12.355  17.525  0.00  0.00    +0.210 HD
ENDBRANCH  12   3
TORSDOF 9
ENDMDL
MODEL 8
REMARK VINA RESULT:      -6.5     30.602     34.467
REMARK  Name = 11866302
REMARK  10 active torsions:
REMARK  status: ('A' for Active; 'I' for Inactive)
REMARK    1  A    between atoms: O_2  and  C_11
REMARK    2  A    between atoms: O_3  and  C_12
REMARK    3  A    between atoms: N_7  and  C_13
REMARK    4  A    between atoms: N_8  and  C_18
REMARK    5  A    between atoms: N_9  and  C_23
REMARK    6  A    between atoms: C_15  and  C_17
REMARK    7  A    between atoms: C_18  and  C_20
REMARK    8  A    between atoms: C_18  and  C_21
REMARK    9  A    between atoms: C_20  and  C_22
REMARK   10  A    between atoms: C_31  and  C_32
REMARK                            x       y       z     vdW  Elec       q    Type
REMARK                         _______ _______ _______ _____ _____    ______ ____
ROOT
ATOM     11  C   UNL     1      15.113  12.106  13.582  0.00  0.00    +0.167 C 
ATOM     12  C   UNL     1      13.657  12.311  14.020  0.00  0.00    +0.149 C 
ATOM     13  C   UNL     1      16.006  11.696  14.767  0.00  0.00    +0.129 C 
ATOM     14  C   UNL     1      13.081  11.065  14.714  0.00  0.00    +0.074 C 
ATOM     15  C   UNL     1      14.068  10.373  15.611  0.00  0.00    +0.015 C 
ATOM     16  C   UNL     1      15.379  10.651  15.651  0.00  0.00    +0.006 C 
ENDROOT
BRANCH  13   7
ATOM      5  O   UNL     1      18.562  12.817  15.411  0.00  0.00    -0.252 OA
ATOM      7  N   UNL     1      17.293  11.219  14.323  0.00  0.00    -0.290 N 
ATOM      9  N   UNL     1      19.579  11.150  14.108  0.00  0.00    -0.269 N 
ATOM     19  C   UNL     1      18.502  11.827  14.685  0.00  0.00    +0.304 C 
ATOM     33  H   UNL     1      17.326  10.438  13.675  0.00  0.00    +0.151 HD
ATOM     37  H   UNL     1      19.355  10.343  13.529  0.00  0.00    +0.156 HD
BRANCH   9  23
ATOM     23  C   UNL     1      20.956  11.446  14.229  0.00  0.00    +0.035 A 
ATOM     25  C   UNL     1      21.519  12.471  13.468  0.00  0.00    +0.023 A 
ATOM     26  C   UNL     1      21.753  10.715  15.111  0.00  0.00    +0.023 A 
ATOM     29  C   UNL     1      22.877  12.765  13.587  0.00  0.00    +0.005 A 
ATOM     30  C   UNL     1      23.111  11.009  15.231  0.00  0.00    +0.005 A 
ATOM     31  C   UNL     1      23.673  12.034  14.469  0.00  0.00    -0.050 A 
ATOM     32  C   UNL     1      25.125  12.348  14.597  0.00  0.00    +0.044 C 
ENDBRANCH   9  23
ENDBRANCH  13   7
BRANCH  15  17
ATOM      4  O   UNL     1      12.814   8.452  16.118  0.00  0.00    -0.271 OA
ATOM      8  N   UNL     1      14.032   9.486  17.816  0.00  0.00    -0.300 N 
ATOM     17  C   UNL     1      13.568   9.338  16.520  0.00  0.00    +0.241 C 
ATOM     36  H   UNL     1      14.628  10.277  18.044  0.00  0.00    +0.150 HD
BRANCH   8  18
ATOM     18  C   UNL     1      13.674   8.587  18.890  0.00  0.00    +0.164 C 
BRANCH  18  21
ATOM      6  O   UNL     1      12.096   9.995  20.088  0.00  0.00    -0.274 OA
ATOM     10  N   UNL     1      11.290   8.191  18.915  0.00  0.00    -0.328 N 
ATOM     21  C   UNL     1      12.297   9.008  19.384  0.00  0.00    +0.231 C 
ATOM     38  H   UNL     1      10.321   8.371  19.157  0.00  0.00    +0.145 HD
ATOM     39  H   UNL     1      11.470   7.382  18.331  0.00  0.00    +0.145 HD
ENDBRANCH  18  21
BRANCH  18  20
ATOM     20  C   UNL     1      14.688   8.622  20.040  0.00  0.00    +0.074 C 
BRANCH  20  22
ATOM      1  S   UNL     1      17.193   7.706  20.846  0.00  0.00    -0.102 S 
ATOM     22  C   UNL     1      15.798   7.612  19.857  0.00  0.00    -0.008 A 
ATOM     24  C   UNL     1      15.865   6.565  18.964  0.00  0.00    +0.011 A 
ATOM     27  C   UNL     1      17.079   5.830  19.094  0.00  0.00    +0.008 A 
ATOM     28  C   UNL     1      17.891   6.343  20.080  0.00  0.00    +0.045 A 
ENDBRANCH  20  22
ENDBRANCH  18  20
ENDBRANCH   8  18
ENDBRANCH  15  17
BRANCH  11   2
ATOM      2  O   UNL     1      15.152  11.090  12.577  0.00  0.00    -0.387 OA
ATOM     34  H   UNL     1      16.082  10.835  12.454  0.00  0.00    +0.210 HD
ENDBRANCH  11   2
BRANCH  12   3
ATOM      3  O   UNL     1      13.557  13.442  14.882  0.00  0.00    -0.389 OA
ATOM     35  H   UNL     1      14.460  13.704  15.131  0.00  0.00    +0.210 HD
ENDBRANCH  12   3
TORSDOF 9
ENDMDL
MODEL 9
REMARK VINA RESULT:      -6.5     19.608     21.240
REMARK  Name = 11866302
REMARK  10 active torsions:
REMARK  status: ('A' for Active; 'I' for Inactive)
REMARK    1  A    between atoms: O_2  and  C_11
REMARK    2  A    between atoms: O_3  and  C_12
REMARK    3  A    between atoms: N_7  and  C_13
REMARK    4  A    between atoms: N_8  and  C_18
REMARK    5  A    between atoms: N_9  and  C_23
REMARK    6  A    between atoms: C_15  and  C_17
REMARK    7  A    between atoms: C_18  and  C_20
REMARK    8  A    between atoms: C_18  and  C_21
REMARK    9  A    between atoms: C_20  and  C_22
REMARK   10  A    between atoms: C_31  and  C_32
REMARK                            x       y       z     vdW  Elec       q    Type
REMARK                         _______ _______ _______ _____ _____    ______ ____
ROOT
ATOM     11  C   UNL     1      -2.479 -11.236  13.641  0.00  0.00    +0.167 C 
ATOM     12  C   UNL     1      -2.407 -11.866  15.038  0.00  0.00    +0.149 C 
ATOM     13  C   UNL     1      -3.931 -11.147  13.136  0.00  0.00    +0.129 C 
ATOM     14  C   UNL     1      -3.281 -11.115  16.057  0.00  0.00    +0.074 C 
ATOM     15  C   UNL     1      -4.589 -10.644  15.488  0.00  0.00    +0.015 C 
ATOM     16  C   UNL     1      -4.896 -10.660  14.183  0.00  0.00    +0.006 C 
ENDROOT
BRANCH  13   7
ATOM      5  O   UNL     1      -5.761 -11.461  10.955  0.00  0.00    -0.252 OA
ATOM      7  N   UNL     1      -4.039 -10.301  11.972  0.00  0.00    -0.290 N 
ATOM      9  N   UNL     1      -4.838  -9.548   9.955  0.00  0.00    -0.269 N 
ATOM     19  C   UNL     1      -4.965 -10.524  10.946  0.00  0.00    +0.304 C 
ATOM     33  H   UNL     1      -3.379  -9.537  11.864  0.00  0.00    +0.151 HD
ATOM     37  H   UNL     1      -4.125  -8.837  10.103  0.00  0.00    +0.156 HD
BRANCH   9  23
ATOM     23  C   UNL     1      -5.585  -9.420   8.761  0.00  0.00    +0.035 A 
ATOM     25  C   UNL     1      -5.165 -10.073   7.602  0.00  0.00    +0.023 A 
ATOM     26  C   UNL     1      -6.743  -8.642   8.742  0.00  0.00    +0.023 A 
ATOM     29  C   UNL     1      -5.901  -9.948   6.425  0.00  0.00    +0.005 A 
ATOM     30  C   UNL     1      -7.480  -8.517   7.564  0.00  0.00    +0.005 A 
ATOM     31  C   UNL     1      -7.058  -9.170   6.405  0.00  0.00    -0.050 A 
ATOM     32  C   UNL     1      -7.846  -9.037   5.146  0.00  0.00    +0.044 C 
ENDBRANCH   9  23
ENDBRANCH  13   7
BRANCH  15  17
ATOM      4  O   UNL     1      -5.887  -8.953  16.477  0.00  0.00    -0.271 OA
ATOM      8  N   UNL     1      -6.182 -11.158  17.175  0.00  0.00    -0.300 N 
ATOM     17  C   UNL     1      -5.609 -10.151  16.417  0.00  0.00    +0.241 C 
ATOM     36  H   UNL     1      -5.852 -12.113  17.065  0.00  0.00    +0.150 HD
BRANCH   8  18
ATOM     18  C   UNL     1      -7.210 -10.916  18.162  0.00  0.00    +0.164 C 
BRANCH  18  21
ATOM      6  O   UNL     1      -6.403 -11.330  20.416  0.00  0.00    -0.274 OA
ATOM     10  N   UNL     1      -7.213 -13.100  19.196  0.00  0.00    -0.328 N 
ATOM     21  C   UNL     1      -6.877 -11.775  19.373  0.00  0.00    +0.231 C 
ATOM     38  H   UNL     1      -7.057 -13.779  19.935  0.00  0.00    +0.145 HD
ATOM     39  H   UNL     1      -7.607 -13.453  18.331  0.00  0.00    +0.145 HD
ENDBRANCH  18  21
BRANCH  18  20
ATOM     20  C   UNL     1      -8.611 -11.253  17.637  0.00  0.00    +0.074 C 
BRANCH  20  22
ATOM      1  S   UNL     1     -11.172 -10.189  17.369  0.00  0.00    -0.102 S 
ATOM     22  C   UNL     1      -9.470 -10.021  17.464  0.00  0.00    -0.008 A 
ATOM     24  C   UNL     1      -9.073  -8.706  17.363  0.00  0.00    +0.011 A 
ATOM     27  C   UNL     1     -10.181  -7.824  17.207  0.00  0.00    +0.008 A 
ATOM     28  C   UNL     1     -11.381  -8.498  17.194  0.00  0.00    +0.045 A 
ENDBRANCH  20  22
ENDBRANCH  18  20
ENDBRANCH   8  18
ENDBRANCH  15  17
BRANCH  11   2
ATOM      2  O   UNL     1      -1.910  -9.925  13.698  0.00  0.00    -0.387 OA
ATOM     34  H   UNL     1      -0.949 -10.018  13.576  0.00  0.00    +0.210 HD
ENDBRANCH  11   2
BRANCH  12   3
ATOM      3  O   UNL     1      -2.793 -13.238  14.978  0.00  0.00    -0.389 OA
ATOM     35  H   UNL     1      -2.361 -13.632  14.202  0.00  0.00    +0.210 HD
ENDBRANCH  12   3
TORSDOF 9
ENDMDL
MODEL 10
REMARK VINA RESULT:      -6.4     31.029     36.838
REMARK  Name = 11866302
REMARK  10 active torsions:
REMARK  status: ('A' for Active; 'I' for Inactive)
REMARK    1  A    between atoms: O_2  and  C_11
REMARK    2  A    between atoms: O_3  and  C_12
REMARK    3  A    between atoms: N_7  and  C_13
REMARK    4  A    between atoms: N_8  and  C_18
REMARK    5  A    between atoms: N_9  and  C_23
REMARK    6  A    between atoms: C_15  and  C_17
REMARK    7  A    between atoms: C_18  and  C_20
REMARK    8  A    between atoms: C_18  and  C_21
REMARK    9  A    between atoms: C_20  and  C_22
REMARK   10  A    between atoms: C_31  and  C_32
REMARK                            x       y       z     vdW  Elec       q    Type
REMARK                         _______ _______ _______ _____ _____    ______ ____
ROOT
ATOM     11  C   UNL     1      10.040   8.737   1.547  0.00  0.00    +0.167 C 
ATOM     12  C   UNL     1       9.745   9.281   0.143  0.00  0.00    +0.149 C 
ATOM     13  C   UNL     1       9.778   7.222   1.632  0.00  0.00    +0.129 C 
ATOM     14  C   UNL     1      10.544   8.541  -0.944  0.00  0.00    +0.074 C 
ATOM     15  C   UNL     1      10.660   7.063  -0.695  0.00  0.00    +0.015 C 
ATOM     16  C   UNL     1      10.314   6.459   0.451  0.00  0.00    +0.006 C 
ENDROOT
BRANCH  13   7
ATOM      5  O   UNL     1       8.419   6.876   4.129  0.00  0.00    -0.252 OA
ATOM      7  N   UNL     1      10.326   6.655   2.841  0.00  0.00    -0.290 N 
ATOM      9  N   UNL     1      10.378   5.941   5.023  0.00  0.00    -0.269 N 
ATOM     19  C   UNL     1       9.590   6.521   4.024  0.00  0.00    +0.304 C 
ATOM     33  H   UNL     1      11.305   6.388   2.852  0.00  0.00    +0.151 HD
ATOM     37  H   UNL     1      11.334   5.705   4.770  0.00  0.00    +0.156 HD
BRANCH   9  23
ATOM     23  C   UNL     1      10.008   5.638   6.354  0.00  0.00    +0.035 A 
ATOM     25  C   UNL     1       9.645   6.663   7.227  0.00  0.00    +0.023 A 
ATOM     26  C   UNL     1      10.004   4.314   6.793  0.00  0.00    +0.023 A 
ATOM     29  C   UNL     1       9.279   6.366   8.540  0.00  0.00    +0.005 A 
ATOM     30  C   UNL     1       9.638   4.015   8.106  0.00  0.00    +0.005 A 
ATOM     31  C   UNL     1       9.276   5.042   8.979  0.00  0.00    -0.050 A 
ATOM     32  C   UNL     1       8.884   4.723  10.382  0.00  0.00    +0.044 C 
ENDBRANCH   9  23
ENDBRANCH  13   7
BRANCH  15  17
ATOM      4  O   UNL     1      11.621   6.715  -2.811  0.00  0.00    -0.271 OA
ATOM      8  N   UNL     1      11.070   4.866  -1.501  0.00  0.00    -0.300 N 
ATOM     17  C   UNL     1      11.167   6.218  -1.779  0.00  0.00    +0.241 C 
ATOM     36  H   UNL     1      10.647   4.566  -0.627  0.00  0.00    +0.150 HD
BRANCH   8  18
ATOM     18  C   UNL     1      11.505   3.837  -2.420  0.00  0.00    +0.164 C 
BRANCH  18  21
ATOM      6  O   UNL     1       9.472   3.870  -3.752  0.00  0.00    -0.274 OA
ATOM     10  N   UNL     1      10.112   1.893  -2.771  0.00  0.00    -0.328 N 
ATOM     21  C   UNL     1      10.252   3.238  -3.043  0.00  0.00    +0.231 C 
ATOM     38  H   UNL     1       9.326   1.368  -3.140  0.00  0.00    +0.145 HD
ATOM     39  H   UNL     1      10.765   1.383  -2.187  0.00  0.00    +0.145 HD
ENDBRANCH  18  21
BRANCH  18  20
ATOM     20  C   UNL     1      12.330   2.747  -1.726  0.00  0.00    +0.074 C 
BRANCH  20  22
ATOM      1  S   UNL     1      14.624   4.161  -1.018  0.00  0.00    -0.102 S 
ATOM     22  C   UNL     1      13.197   3.302  -0.619  0.00  0.00    -0.008 A 
ATOM     24  C   UNL     1      13.007   3.218   0.743  0.00  0.00    +0.011 A 
ATOM     27  C   UNL     1      14.047   3.868   1.468  0.00  0.00    +0.008 A 
ATOM     28  C   UNL     1      14.991   4.423   0.634  0.00  0.00    +0.045 A 
ENDBRANCH  20  22
ENDBRANCH  18  20
ENDBRANCH   8  18
ENDBRANCH  15  17
BRANCH  11   2
ATOM      2  O   UNL     1      11.407   9.008   1.866  0.00  0.00    -0.387 OA
ATOM     34  H   UNL     1      11.487   9.964   2.025  0.00  0.00    +0.210 HD
ENDBRANCH  11   2
BRANCH  12   3
ATOM      3  O   UNL     1       8.348   9.197  -0.133  0.00  0.00    -0.389 OA
ATOM     35  H   UNL     1       7.876   9.616   0.605  0.00  0.00    +0.210 HD
ENDBRANCH  12   3
TORSDOF 9
ENDMDL
