MODEL 1
REMARK VINA RESULT:      -7.5      0.000      0.000
REMARK  Name = 45361519
REMARK  11 active torsions:
REMARK  status: ('A' for Active; 'I' for Inactive)
REMARK    1  A    between atoms: O_2  and  C_10
REMARK    2  A    between atoms: N_5  and  C_14
REMARK    3  A    between atoms: N_6  and  C_24
REMARK    4  A    between atoms: C_7  and  C_17
REMARK    5  A    between atoms: C_9  and  C_19
REMARK    6  A    between atoms: C_13  and  C_18
REMARK    7  A    between atoms: C_18  and  C_20
REMARK    8  A    between atoms: C_18  and  C_21
REMARK    9  A    between atoms: C_22  and  C_23
REMARK   10  A    between atoms: C_23  and  C_25
REMARK   11  A    between atoms: C_24  and  C_26
REMARK                            x       y       z     vdW  Elec       q    Type
REMARK                         _______ _______ _______ _____ _____    ______ ____
ROOT
ATOM      7  C   UNL     1     -17.562   4.706  21.814  0.00  0.00    -0.027 C 
ATOM      8  C   UNL     1     -16.277   4.382  22.645  0.00  0.00    +0.028 C 
ATOM      9  C   UNL     1     -16.654   3.843  24.072  0.00  0.00    +0.012 C 
ATOM     10  C   UNL     1     -15.277   5.574  22.624  0.00  0.00    +0.122 C 
ATOM     11  C   UNL     1     -17.160   5.126  20.382  0.00  0.00    +0.007 C 
ATOM     12  C   UNL     1     -18.428   3.430  21.705  0.00  0.00    +0.009 C 
ATOM     13  C   UNL     1     -14.958   6.057  21.189  0.00  0.00    +0.029 C 
ATOM     14  C   UNL     1     -17.585   2.603  23.950  0.00  0.00    +0.076 C 
ATOM     15  C   UNL     1     -16.212   6.317  20.356  0.00  0.00    +0.007 C 
ATOM     16  C   UNL     1     -18.803   2.844  23.059  0.00  0.00    +0.023 C 
ATOM     17  C   UNL     1     -18.407   5.842  22.446  0.00  0.00    +0.011 C 
ATOM     19  C   UNL     1     -15.434   3.477  24.934  0.00  0.00    +0.010 C 
ENDROOT
BRANCH  14   5
ATOM      4  O   UNL     1     -16.912   0.126  25.249  0.00  0.00    -0.275 OA
ATOM      5  N   UNL     1     -18.047   2.151  25.245  0.00  0.00    -0.312 N 
ATOM     22  C   UNL     1     -17.663   0.935  25.788  0.00  0.00    +0.218 C 
ATOM     37  H   UNL     1     -18.724   2.730  25.733  0.00  0.00    +0.149 HD
BRANCH  22  23
ATOM     23  C   UNL     1     -18.287   0.718  27.153  0.00  0.00    +0.130 C 
BRANCH  23  25
ATOM     25  C   UNL     1     -17.546   1.412  28.265  0.00  0.00    -0.039 A 
ATOM     27  C   UNL     1     -16.332   0.898  28.722  0.00  0.00    +0.004 A 
ATOM     28  C   UNL     1     -18.073   2.569  28.839  0.00  0.00    +0.004 A 
ATOM     31  C   UNL     1     -15.645   1.542  29.751  0.00  0.00    +0.000 A 
ATOM     32  C   UNL     1     -17.387   3.212  29.869  0.00  0.00    +0.000 A 
ATOM     33  C   UNL     1     -16.173   2.698  30.325  0.00  0.00    +0.000 A 
ENDBRANCH  23  25
ENDBRANCH  22  23
ENDBRANCH  14   5
BRANCH  10   2
ATOM      2  O   UNL     1     -14.037   5.167  23.204  0.00  0.00    -0.391 OA
ATOM     38  H   UNL     1     -13.784   5.828  23.871  0.00  0.00    +0.210 HD
ENDBRANCH  10   2
BRANCH  13  18
ATOM     18  C   UNL     1     -14.076   7.312  21.195  0.00  0.00    +0.077 C 
ATOM     20  C   UNL     1     -14.736   8.423  20.387  0.00  0.00    +0.017 C 
BRANCH  18  21
ATOM      3  O   UNL     1     -11.866   6.325  21.288  0.00  0.00    -0.276 OA
ATOM      6  N   UNL     1     -12.482   7.488  19.378  0.00  0.00    -0.311 N 
ATOM     21  C   UNL     1     -12.691   6.976  20.651  0.00  0.00    +0.216 C 
ATOM     39  H   UNL     1     -13.230   7.987  18.907  0.00  0.00    +0.149 HD
BRANCH   6  24
ATOM     24  C   UNL     1     -11.245   7.303  18.656  0.00  0.00    +0.139 C 
BRANCH  24  26
ATOM      1  F   UNL     1      -9.684  11.967  15.915  0.00  0.00    -0.205 F 
ATOM     26  C   UNL     1     -10.828   8.547  17.925  0.00  0.00    -0.030 A 
ATOM     29  C   UNL     1     -10.441   9.679  18.641  0.00  0.00    +0.008 A 
ATOM     30  C   UNL     1     -10.830   8.570  16.531  0.00  0.00    +0.008 A 
ATOM     34  C   UNL     1     -10.054  10.835  17.962  0.00  0.00    +0.038 A 
ATOM     35  C   UNL     1     -10.444   9.725  15.852  0.00  0.00    +0.038 A 
ATOM     36  C   UNL     1     -10.056  10.858  16.567  0.00  0.00    +0.123 A 
ENDBRANCH  24  26
ENDBRANCH   6  24
ENDBRANCH  18  21
ENDBRANCH  13  18
TORSDOF 8
ENDMDL
MODEL 2
REMARK VINA RESULT:      -7.4     19.064     22.073
REMARK  Name = 45361519
REMARK  11 active torsions:
REMARK  status: ('A' for Active; 'I' for Inactive)
REMARK    1  A    between atoms: O_2  and  C_10
REMARK    2  A    between atoms: N_5  and  C_14
REMARK    3  A    between atoms: N_6  and  C_24
REMARK    4  A    between atoms: C_7  and  C_17
REMARK    5  A    between atoms: C_9  and  C_19
REMARK    6  A    between atoms: C_13  and  C_18
REMARK    7  A    between atoms: C_18  and  C_20
REMARK    8  A    between atoms: C_18  and  C_21
REMARK    9  A    between atoms: C_22  and  C_23
REMARK   10  A    between atoms: C_23  and  C_25
REMARK   11  A    between atoms: C_24  and  C_26
REMARK                            x       y       z     vdW  Elec       q    Type
REMARK                         _______ _______ _______ _____ _____    ______ ____
ROOT
ATOM      7  C   UNL     1      -3.590 -10.731  10.788  0.00  0.00    -0.027 C 
ATOM      8  C   UNL     1      -4.954 -10.313  11.431  0.00  0.00    +0.028 C 
ATOM      9  C   UNL     1      -5.678  -9.230  10.554  0.00  0.00    +0.012 C 
ATOM     10  C   UNL     1      -4.780  -9.949  12.934  0.00  0.00    +0.122 C 
ATOM     11  C   UNL     1      -2.958 -11.875  11.614  0.00  0.00    +0.007 C 
ATOM     12  C   UNL     1      -3.849 -11.267   9.361  0.00  0.00    +0.009 C 
ATOM     13  C   UNL     1      -4.053 -11.056  13.734  0.00  0.00    +0.029 C 
ATOM     14  C   UNL     1      -5.867  -9.752   9.101  0.00  0.00    +0.076 C 
ATOM     15  C   UNL     1      -2.750 -11.508  13.077  0.00  0.00    +0.007 C 
ATOM     16  C   UNL     1      -4.574 -10.269   8.469  0.00  0.00    +0.023 C 
ATOM     17  C   UNL     1      -2.584  -9.554  10.715  0.00  0.00    +0.011 C 
ATOM     19  C   UNL     1      -7.042  -8.795  11.115  0.00  0.00    +0.010 C 
ENDROOT
BRANCH  14   5
ATOM      4  O   UNL     1      -8.112 -10.048   7.325  0.00  0.00    -0.275 OA
ATOM      5  N   UNL     1      -6.426  -8.736   8.235  0.00  0.00    -0.312 N 
ATOM     22  C   UNL     1      -7.515  -8.977   7.412  0.00  0.00    +0.218 C 
ATOM     37  H   UNL     1      -5.953  -7.838   8.196  0.00  0.00    +0.149 HD
BRANCH  22  23
ATOM     23  C   UNL     1      -7.895  -7.741   6.621  0.00  0.00    +0.130 C 
BRANCH  23  25
ATOM     25  C   UNL     1      -8.974  -6.921   7.276  0.00  0.00    -0.039 A 
ATOM     27  C   UNL     1     -10.317  -7.225   7.049  0.00  0.00    +0.004 A 
ATOM     28  C   UNL     1      -8.633  -5.857   8.111  0.00  0.00    +0.004 A 
ATOM     31  C   UNL     1     -11.316  -6.466   7.657  0.00  0.00    +0.000 A 
ATOM     32  C   UNL     1      -9.632  -5.097   8.718  0.00  0.00    +0.000 A 
ATOM     33  C   UNL     1     -10.974  -5.402   8.492  0.00  0.00    +0.000 A 
ENDBRANCH  23  25
ENDBRANCH  22  23
ENDBRANCH  14   5
BRANCH  10   2
ATOM      2  O   UNL     1      -6.064  -9.785  13.537  0.00  0.00    -0.391 OA
ATOM     38  H   UNL     1      -6.280 -10.605  14.013  0.00  0.00    +0.210 HD
ENDBRANCH  10   2
BRANCH  13  18
ATOM     18  C   UNL     1      -3.776 -10.623  15.179  0.00  0.00    +0.077 C 
ATOM     20  C   UNL     1      -2.304 -10.830  15.517  0.00  0.00    +0.017 C 
BRANCH  18  21
ATOM      3  O   UNL     1      -4.510 -12.584  16.396  0.00  0.00    -0.276 OA
ATOM      6  N   UNL     1      -5.694 -10.608  16.660  0.00  0.00    -0.311 N 
ATOM     21  C   UNL     1      -4.680 -11.395  16.135  0.00  0.00    +0.216 C 
ATOM     39  H   UNL     1      -5.743  -9.622  16.420  0.00  0.00    +0.149 HD
BRANCH   6  24
ATOM     24  C   UNL     1      -6.677 -11.117  17.588  0.00  0.00    +0.139 C 
BRANCH  24  26
ATOM      1  F   UNL     1     -11.381  -8.023  17.582  0.00  0.00    -0.205 F 
ATOM     26  C   UNL     1      -7.932 -10.292  17.587  0.00  0.00    -0.030 A 
ATOM     29  C   UNL     1      -9.006 -10.656  18.397  0.00  0.00    +0.008 A 
ATOM     30  C   UNL     1      -8.022  -9.162  16.774  0.00  0.00    +0.008 A 
ATOM     34  C   UNL     1     -10.172  -9.889  18.396  0.00  0.00    +0.038 A 
ATOM     35  C   UNL     1      -9.188  -8.396  16.772  0.00  0.00    +0.038 A 
ATOM     36  C   UNL     1     -10.262  -8.759  17.583  0.00  0.00    +0.123 A 
ENDBRANCH  24  26
ENDBRANCH   6  24
ENDBRANCH  18  21
ENDBRANCH  13  18
TORSDOF 8
ENDMDL
MODEL 3
REMARK VINA RESULT:      -7.3     18.840     21.562
REMARK  Name = 45361519
REMARK  11 active torsions:
REMARK  status: ('A' for Active; 'I' for Inactive)
REMARK    1  A    between atoms: O_2  and  C_10
REMARK    2  A    between atoms: N_5  and  C_14
REMARK    3  A    between atoms: N_6  and  C_24
REMARK    4  A    between atoms: C_7  and  C_17
REMARK    5  A    between atoms: C_9  and  C_19
REMARK    6  A    between atoms: C_13  and  C_18
REMARK    7  A    between atoms: C_18  and  C_20
REMARK    8  A    between atoms: C_18  and  C_21
REMARK    9  A    between atoms: C_22  and  C_23
REMARK   10  A    between atoms: C_23  and  C_25
REMARK   11  A    between atoms: C_24  and  C_26
REMARK                            x       y       z     vdW  Elec       q    Type
REMARK                         _______ _______ _______ _____ _____    ______ ____
ROOT
ATOM      7  C   UNL     1      -5.793 -10.793  17.582  0.00  0.00    -0.027 C 
ATOM      8  C   UNL     1      -5.998 -12.325  17.337  0.00  0.00    +0.028 C 
ATOM      9  C   UNL     1      -5.732 -12.691  15.833  0.00  0.00    +0.012 C 
ATOM     10  C   UNL     1      -7.359 -12.810  17.913  0.00  0.00    +0.122 C 
ATOM     11  C   UNL     1      -5.950 -10.485  19.089  0.00  0.00    +0.007 C 
ATOM     12  C   UNL     1      -4.354 -10.405  17.170  0.00  0.00    +0.009 C 
ATOM     13  C   UNL     1      -7.556 -12.408  19.394  0.00  0.00    +0.029 C 
ATOM     14  C   UNL     1      -4.310 -12.230  15.409  0.00  0.00    +0.076 C 
ATOM     15  C   UNL     1      -7.297 -10.924  19.647  0.00  0.00    +0.007 C 
ATOM     16  C   UNL     1      -4.028 -10.761  15.727  0.00  0.00    +0.023 C 
ATOM     17  C   UNL     1      -6.802  -9.925  16.788  0.00  0.00    +0.011 C 
ATOM     19  C   UNL     1      -5.889 -14.191  15.527  0.00  0.00    +0.010 C 
ENDROOT
BRANCH  14   5
ATOM      4  O   UNL     1      -1.848 -13.075  14.183  0.00  0.00    -0.275 OA
ATOM      5  N   UNL     1      -4.074 -12.446  13.997  0.00  0.00    -0.312 N 
ATOM     22  C   UNL     1      -2.847 -12.856  13.502  0.00  0.00    +0.218 C 
ATOM     37  H   UNL     1      -4.829 -12.226  13.354  0.00  0.00    +0.149 HD
BRANCH  22  23
ATOM     23  C   UNL     1      -2.882 -13.011  11.994  0.00  0.00    +0.130 C 
BRANCH  23  25
ATOM     25  C   UNL     1      -3.050 -11.706  11.263  0.00  0.00    -0.039 A 
ATOM     27  C   UNL     1      -2.236 -10.618  11.582  0.00  0.00    +0.004 A 
ATOM     28  C   UNL     1      -4.018 -11.583  10.267  0.00  0.00    +0.004 A 
ATOM     31  C   UNL     1      -2.390  -9.409  10.904  0.00  0.00    +0.000 A 
ATOM     32  C   UNL     1      -4.173 -10.374   9.589  0.00  0.00    +0.000 A 
ATOM     33  C   UNL     1      -3.359  -9.287   9.908  0.00  0.00    +0.000 A 
ENDBRANCH  23  25
ENDBRANCH  22  23
ENDBRANCH  14   5
BRANCH  10   2
ATOM      2  O   UNL     1      -7.416 -14.237  17.866  0.00  0.00    -0.391 OA
ATOM     38  H   UNL     1      -6.917 -14.583  18.625  0.00  0.00    +0.210 HD
ENDBRANCH  10   2
BRANCH  13  18
ATOM     18  C   UNL     1      -8.953 -12.781  19.904  0.00  0.00    +0.077 C 
ATOM     20  C   UNL     1      -8.947 -14.197  20.468  0.00  0.00    +0.017 C 
BRANCH  18  21
ATOM      3  O   UNL     1     -10.224 -13.542  17.988  0.00  0.00    -0.276 OA
ATOM      6  N   UNL     1     -10.566 -11.381  18.758  0.00  0.00    -0.311 N 
ATOM     21  C   UNL     1      -9.973 -12.635  18.778  0.00  0.00    +0.216 C 
ATOM     39  H   UNL     1     -10.327 -10.699  19.471  0.00  0.00    +0.149 HD
BRANCH   6  24
ATOM     24  C   UNL     1     -11.563 -11.005  17.782  0.00  0.00    +0.139 C 
BRANCH  24  26
ATOM      1  F   UNL     1     -10.992  -5.647  16.147  0.00  0.00    -0.205 F 
ATOM     26  C   UNL     1     -11.411  -9.576  17.345  0.00  0.00    -0.030 A 
ATOM     29  C   UNL     1     -12.465  -8.927  16.703  0.00  0.00    +0.008 A 
ATOM     30  C   UNL     1     -10.215  -8.898  17.582  0.00  0.00    +0.008 A 
ATOM     34  C   UNL     1     -12.323  -7.600  16.298  0.00  0.00    +0.038 A 
ATOM     35  C   UNL     1     -10.073  -7.571  17.177  0.00  0.00    +0.038 A 
ATOM     36  C   UNL     1     -11.128  -6.922  16.535  0.00  0.00    +0.123 A 
ENDBRANCH  24  26
ENDBRANCH   6  24
ENDBRANCH  18  21
ENDBRANCH  13  18
TORSDOF 8
ENDMDL
MODEL 4
REMARK VINA RESULT:      -7.3      3.647     11.579
REMARK  Name = 45361519
REMARK  11 active torsions:
REMARK  status: ('A' for Active; 'I' for Inactive)
REMARK    1  A    between atoms: O_2  and  C_10
REMARK    2  A    between atoms: N_5  and  C_14
REMARK    3  A    between atoms: N_6  and  C_24
REMARK    4  A    between atoms: C_7  and  C_17
REMARK    5  A    between atoms: C_9  and  C_19
REMARK    6  A    between atoms: C_13  and  C_18
REMARK    7  A    between atoms: C_18  and  C_20
REMARK    8  A    between atoms: C_18  and  C_21
REMARK    9  A    between atoms: C_22  and  C_23
REMARK   10  A    between atoms: C_23  and  C_25
REMARK   11  A    between atoms: C_24  and  C_26
REMARK                            x       y       z     vdW  Elec       q    Type
REMARK                         _______ _______ _______ _____ _____    ______ ____
ROOT
ATOM      7  C   UNL     1     -15.726   7.130  21.628  0.00  0.00    -0.027 C 
ATOM      8  C   UNL     1     -14.426   6.438  22.158  0.00  0.00    +0.028 C 
ATOM      9  C   UNL     1     -13.257   6.575  21.118  0.00  0.00    +0.012 C 
ATOM     10  C   UNL     1     -14.719   4.990  22.648  0.00  0.00    +0.122 C 
ATOM     11  C   UNL     1     -16.821   7.075  22.719  0.00  0.00    +0.007 C 
ATOM     12  C   UNL     1     -15.423   8.618  21.339  0.00  0.00    +0.009 C 
ATOM     13  C   UNL     1     -15.885   4.930  23.662  0.00  0.00    +0.029 C 
ATOM     14  C   UNL     1     -13.011   8.072  20.779  0.00  0.00    +0.076 C 
ATOM     15  C   UNL     1     -17.137   5.657  23.173  0.00  0.00    +0.007 C 
ATOM     16  C   UNL     1     -14.278   8.816  20.356  0.00  0.00    +0.023 C 
ATOM     17  C   UNL     1     -16.272   6.462  20.341  0.00  0.00    +0.011 C 
ATOM     19  C   UNL     1     -11.937   5.940  21.588  0.00  0.00    +0.010 C 
ENDROOT
BRANCH  14   5
ATOM      4  O   UNL     1     -11.259  10.323  20.394  0.00  0.00    -0.275 OA
ATOM      5  N   UNL     1     -12.018   8.230  19.736  0.00  0.00    -0.312 N 
ATOM     22  C   UNL     1     -11.219   9.357  19.635  0.00  0.00    +0.218 C 
ATOM     37  H   UNL     1     -11.962   7.506  19.026  0.00  0.00    +0.149 HD
BRANCH  22  23
ATOM     23  C   UNL     1     -10.266   9.255  18.460  0.00  0.00    +0.130 C 
BRANCH  23  25
ATOM     25  C   UNL     1     -10.508  10.299  17.403  0.00  0.00    -0.039 A 
ATOM     27  C   UNL     1     -11.459  10.075  16.406  0.00  0.00    +0.004 A 
ATOM     28  C   UNL     1      -9.784  11.491  17.418  0.00  0.00    +0.004 A 
ATOM     31  C   UNL     1     -11.684  11.042  15.426  0.00  0.00    +0.000 A 
ATOM     32  C   UNL     1     -10.009  12.458  16.439  0.00  0.00    +0.000 A 
ATOM     33  C   UNL     1     -10.959  12.233  15.443  0.00  0.00    +0.000 A 
ENDBRANCH  23  25
ENDBRANCH  22  23
ENDBRANCH  14   5
BRANCH  10   2
ATOM      2  O   UNL     1     -13.568   4.472  23.318  0.00  0.00    -0.391 OA
ATOM     38  H   UNL     1     -13.870   3.830  23.982  0.00  0.00    +0.210 HD
ENDBRANCH  10   2
BRANCH  13  18
ATOM     18  C   UNL     1     -16.242   3.485  24.033  0.00  0.00    +0.077 C 
ATOM     20  C   UNL     1     -17.139   2.874  22.963  0.00  0.00    +0.017 C 
BRANCH  18  21
ATOM      3  O   UNL     1     -18.052   3.035  25.576  0.00  0.00    -0.276 OA
ATOM      6  N   UNL     1     -16.083   3.934  26.409  0.00  0.00    -0.311 N 
ATOM     21  C   UNL     1     -16.908   3.449  25.404  0.00  0.00    +0.216 C 
ATOM     39  H   UNL     1     -15.137   4.226  26.187  0.00  0.00    +0.149 HD
BRANCH   6  24
ATOM     24  C   UNL     1     -16.495   4.002  27.792  0.00  0.00    +0.139 C 
BRANCH  24  26
ATOM      1  F   UNL     1     -13.899   0.134  30.956  0.00  0.00    -0.205 F 
ATOM     26  C   UNL     1     -15.802   2.970  28.636  0.00  0.00    -0.030 A 
ATOM     29  C   UNL     1     -14.791   3.354  29.515  0.00  0.00    +0.008 A 
ATOM     30  C   UNL     1     -16.171   1.629  28.539  0.00  0.00    +0.008 A 
ATOM     34  C   UNL     1     -14.148   2.396  30.299  0.00  0.00    +0.038 A 
ATOM     35  C   UNL     1     -15.528   0.670  29.322  0.00  0.00    +0.038 A 
ATOM     36  C   UNL     1     -14.516   1.054  30.202  0.00  0.00    +0.123 A 
ENDBRANCH  24  26
ENDBRANCH   6  24
ENDBRANCH  18  21
ENDBRANCH  13  18
TORSDOF 8
ENDMDL
MODEL 5
REMARK VINA RESULT:      -7.3     29.607     33.634
REMARK  Name = 45361519
REMARK  11 active torsions:
REMARK  status: ('A' for Active; 'I' for Inactive)
REMARK    1  A    between atoms: O_2  and  C_10
REMARK    2  A    between atoms: N_5  and  C_14
REMARK    3  A    between atoms: N_6  and  C_24
REMARK    4  A    between atoms: C_7  and  C_17
REMARK    5  A    between atoms: C_9  and  C_19
REMARK    6  A    between atoms: C_13  and  C_18
REMARK    7  A    between atoms: C_18  and  C_20
REMARK    8  A    between atoms: C_18  and  C_21
REMARK    9  A    between atoms: C_22  and  C_23
REMARK   10  A    between atoms: C_23  and  C_25
REMARK   11  A    between atoms: C_24  and  C_26
REMARK                            x       y       z     vdW  Elec       q    Type
REMARK                         _______ _______ _______ _____ _____    ______ ____
ROOT
ATOM      7  C   UNL     1       9.569   6.717   6.761  0.00  0.00    -0.027 C 
ATOM      8  C   UNL     1      10.637   7.424   5.862  0.00  0.00    +0.028 C 
ATOM      9  C   UNL     1      11.499   6.366   5.082  0.00  0.00    +0.012 C 
ATOM     10  C   UNL     1      11.445   8.479   6.671  0.00  0.00    +0.122 C 
ATOM     11  C   UNL     1       8.667   7.782   7.426  0.00  0.00    +0.007 C 
ATOM     12  C   UNL     1       8.670   5.828   5.872  0.00  0.00    +0.009 C 
ATOM     13  C   UNL     1      10.534   9.480   7.419  0.00  0.00    +0.029 C 
ATOM     14  C   UNL     1      10.578   5.431   4.249  0.00  0.00    +0.076 C 
ATOM     15  C   UNL     1       9.452   8.794   8.251  0.00  0.00    +0.007 C 
ATOM     16  C   UNL     1       9.453   4.799   5.068  0.00  0.00    +0.023 C 
ATOM     17  C   UNL     1      10.210   5.845   7.870  0.00  0.00    +0.011 C 
ATOM     19  C   UNL     1      12.552   6.995   4.155  0.00  0.00    +0.010 C 
ENDROOT
BRANCH  14   5
ATOM      4  O   UNL     1      10.250   4.472   1.556  0.00  0.00    -0.275 OA
ATOM      5  N   UNL     1      11.329   4.372   3.608  0.00  0.00    -0.312 N 
ATOM     22  C   UNL     1      11.095   3.980   2.299  0.00  0.00    +0.218 C 
ATOM     37  H   UNL     1      12.006   3.866   4.173  0.00  0.00    +0.149 HD
BRANCH  22  23
ATOM     23  C   UNL     1      12.026   2.859   1.883  0.00  0.00    +0.130 C 
BRANCH  23  25
ATOM     25  C   UNL     1      13.168   3.320   1.018  0.00  0.00    -0.039 A 
ATOM     27  C   UNL     1      12.982   3.480  -0.356  0.00  0.00    +0.004 A 
ATOM     28  C   UNL     1      14.412   3.589   1.587  0.00  0.00    +0.004 A 
ATOM     31  C   UNL     1      14.039   3.909  -1.158  0.00  0.00    +0.000 A 
ATOM     32  C   UNL     1      15.470   4.017   0.786  0.00  0.00    +0.000 A 
ATOM     33  C   UNL     1      15.283   4.177  -0.587  0.00  0.00    +0.000 A 
ENDBRANCH  23  25
ENDBRANCH  22  23
ENDBRANCH  14   5
BRANCH  10   2
ATOM      2  O   UNL     1      12.252   9.248   5.779  0.00  0.00    -0.391 OA
ATOM     38  H   UNL     1      12.601   8.650   5.096  0.00  0.00    +0.210 HD
ENDBRANCH  10   2
BRANCH  13  18
ATOM     18  C   UNL     1      11.344  10.428   8.312  0.00  0.00    +0.077 C 
ATOM     20  C   UNL     1      10.407  11.287   9.154  0.00  0.00    +0.017 C 
BRANCH  18  21
ATOM      3  O   UNL     1      11.845  12.090   6.623  0.00  0.00    -0.276 OA
ATOM      6  N   UNL     1      13.608  11.059   7.722  0.00  0.00    -0.311 N 
ATOM     21  C   UNL     1      12.267  11.289   7.454  0.00  0.00    +0.216 C 
ATOM     39  H   UNL     1      13.872  10.403   8.451  0.00  0.00    +0.149 HD
BRANCH   6  24
ATOM     24  C   UNL     1      14.672  11.754   7.034  0.00  0.00    +0.139 C 
BRANCH  24  26
ATOM      1  F   UNL     1      18.868   8.286   5.595  0.00  0.00    -0.205 F 
ATOM     26  C   UNL     1      15.791  10.829   6.650  0.00  0.00    -0.030 A 
ATOM     29  C   UNL     1      17.107  11.289   6.654  0.00  0.00    +0.008 A 
ATOM     30  C   UNL     1      15.514   9.511   6.289  0.00  0.00    +0.008 A 
ATOM     34  C   UNL     1      18.147  10.430   6.297  0.00  0.00    +0.038 A 
ATOM     35  C   UNL     1      16.553   8.652   5.932  0.00  0.00    +0.038 A 
ATOM     36  C   UNL     1      17.870   9.112   5.936  0.00  0.00    +0.123 A 
ENDBRANCH  24  26
ENDBRANCH   6  24
ENDBRANCH  18  21
ENDBRANCH  13  18
TORSDOF 8
ENDMDL
MODEL 6
REMARK VINA RESULT:      -7.2     28.106     32.389
REMARK  Name = 45361519
REMARK  11 active torsions:
REMARK  status: ('A' for Active; 'I' for Inactive)
REMARK    1  A    between atoms: O_2  and  C_10
REMARK    2  A    between atoms: N_5  and  C_14
REMARK    3  A    between atoms: N_6  and  C_24
REMARK    4  A    between atoms: C_7  and  C_17
REMARK    5  A    between atoms: C_9  and  C_19
REMARK    6  A    between atoms: C_13  and  C_18
REMARK    7  A    between atoms: C_18  and  C_20
REMARK    8  A    between atoms: C_18  and  C_21
REMARK    9  A    between atoms: C_22  and  C_23
REMARK   10  A    between atoms: C_23  and  C_25
REMARK   11  A    between atoms: C_24  and  C_26
REMARK                            x       y       z     vdW  Elec       q    Type
REMARK                         _______ _______ _______ _____ _____    ______ ____
ROOT
ATOM      7  C   UNL     1       9.411   6.325   6.262  0.00  0.00    -0.027 C 
ATOM      8  C   UNL     1      10.458   7.368   5.749  0.00  0.00    +0.028 C 
ATOM      9  C   UNL     1      10.031   8.829   6.139  0.00  0.00    +0.012 C 
ATOM     10  C   UNL     1      10.782   7.146   4.243  0.00  0.00    +0.122 C 
ATOM     11  C   UNL     1       9.915   4.895   5.962  0.00  0.00    +0.007 C 
ATOM     12  C   UNL     1       9.272   6.463   7.796  0.00  0.00    +0.009 C 
ATOM     13  C   UNL     1      11.187   5.686   3.931  0.00  0.00    +0.029 C 
ATOM     14  C   UNL     1       9.823   8.936   7.676  0.00  0.00    +0.076 C 
ATOM     15  C   UNL     1      10.196   4.662   4.484  0.00  0.00    +0.007 C 
ATOM     16  C   UNL     1       8.885   7.867   8.238  0.00  0.00    +0.023 C 
ATOM     17  C   UNL     1       8.018   6.510   5.607  0.00  0.00    +0.011 C 
ATOM     19  C   UNL     1      11.034   9.904   5.688  0.00  0.00    +0.010 C 
ENDROOT
BRANCH  14   5
ATOM      4  O   UNL     1      11.071  10.813   9.465  0.00  0.00    -0.275 OA
ATOM      5  N   UNL     1       9.316  10.237   8.058  0.00  0.00    -0.312 N 
ATOM     22  C   UNL     1       9.995  11.073   8.931  0.00  0.00    +0.218 C 
ATOM     37  H   UNL     1       8.399  10.506   7.713  0.00  0.00    +0.149 HD
BRANCH  22  23
ATOM     23  C   UNL     1       9.244  12.371   9.150  0.00  0.00    +0.130 C 
BRANCH  23  25
ATOM     25  C   UNL     1       9.360  12.899  10.555  0.00  0.00    -0.039 A 
ATOM     27  C   UNL     1       8.726  12.234  11.605  0.00  0.00    +0.004 A 
ATOM     28  C   UNL     1      10.103  14.053  10.808  0.00  0.00    +0.004 A 
ATOM     31  C   UNL     1       8.835  12.723  12.907  0.00  0.00    +0.000 A 
ATOM     32  C   UNL     1      10.211  14.541  12.110  0.00  0.00    +0.000 A 
ATOM     33  C   UNL     1       9.578  13.876  13.159  0.00  0.00    +0.000 A 
ENDBRANCH  23  25
ENDBRANCH  22  23
ENDBRANCH  14   5
BRANCH  10   2
ATOM      2  O   UNL     1      11.890   7.966   3.868  0.00  0.00    -0.391 OA
ATOM     38  H   UNL     1      11.961   7.950   2.898  0.00  0.00    +0.210 HD
ENDBRANCH  10   2
BRANCH  13  18
ATOM     18  C   UNL     1      11.375   5.458   2.426  0.00  0.00    +0.077 C 
ATOM     20  C   UNL     1      10.566   4.248   1.972  0.00  0.00    +0.017 C 
BRANCH  18  21
ATOM      3  O   UNL     1      13.646   6.229   2.089  0.00  0.00    -0.276 OA
ATOM      6  N   UNL     1      13.196   3.967   1.844  0.00  0.00    -0.311 N 
ATOM     21  C   UNL     1      12.857   5.287   2.107  0.00  0.00    +0.216 C 
ATOM     39  H   UNL     1      12.488   3.242   1.915  0.00  0.00    +0.149 HD
BRANCH   6  24
ATOM     24  C   UNL     1      14.541   3.557   1.515  0.00  0.00    +0.139 C 
BRANCH  24  26
ATOM      1  F   UNL     1      15.949   4.982  -3.747  0.00  0.00    -0.205 F 
ATOM     26  C   UNL     1      14.917   3.937   0.112  0.00  0.00    -0.030 A 
ATOM     29  C   UNL     1      16.227   4.312  -0.182  0.00  0.00    +0.008 A 
ATOM     30  C   UNL     1      13.955   3.916  -0.898  0.00  0.00    +0.008 A 
ATOM     34  C   UNL     1      16.576   4.665  -1.486  0.00  0.00    +0.038 A 
ATOM     35  C   UNL     1      14.303   4.269  -2.201  0.00  0.00    +0.038 A 
ATOM     36  C   UNL     1      15.614   4.644  -2.495  0.00  0.00    +0.123 A 
ENDBRANCH  24  26
ENDBRANCH   6  24
ENDBRANCH  18  21
ENDBRANCH  13  18
TORSDOF 8
ENDMDL
MODEL 7
REMARK VINA RESULT:      -7.1     19.743     20.891
REMARK  Name = 45361519
REMARK  11 active torsions:
REMARK  status: ('A' for Active; 'I' for Inactive)
REMARK    1  A    between atoms: O_2  and  C_10
REMARK    2  A    between atoms: N_5  and  C_14
REMARK    3  A    between atoms: N_6  and  C_24
REMARK    4  A    between atoms: C_7  and  C_17
REMARK    5  A    between atoms: C_9  and  C_19
REMARK    6  A    between atoms: C_13  and  C_18
REMARK    7  A    between atoms: C_18  and  C_20
REMARK    8  A    between atoms: C_18  and  C_21
REMARK    9  A    between atoms: C_22  and  C_23
REMARK   10  A    between atoms: C_23  and  C_25
REMARK   11  A    between atoms: C_24  and  C_26
REMARK                            x       y       z     vdW  Elec       q    Type
REMARK                         _______ _______ _______ _____ _____    ______ ____
ROOT
ATOM      7  C   UNL     1      -5.287 -11.319  17.851  0.00  0.00    -0.027 C 
ATOM      8  C   UNL     1      -5.529 -12.439  16.786  0.00  0.00    +0.028 C 
ATOM      9  C   UNL     1      -6.275 -13.666  17.425  0.00  0.00    +0.012 C 
ATOM     10  C   UNL     1      -4.220 -12.778  16.018  0.00  0.00    +0.122 C 
ATOM     11  C   UNL     1      -4.656 -10.084  17.168  0.00  0.00    +0.007 C 
ATOM     12  C   UNL     1      -6.647 -10.884  18.445  0.00  0.00    +0.009 C 
ATOM     13  C   UNL     1      -3.537 -11.524  15.424  0.00  0.00    +0.029 C 
ATOM     14  C   UNL     1      -7.605 -13.204  18.083  0.00  0.00    +0.076 C 
ATOM     15  C   UNL     1      -3.353 -10.405  16.447  0.00  0.00    +0.007 C 
ATOM     16  C   UNL     1      -7.430 -12.038  19.055  0.00  0.00    +0.023 C 
ATOM     17  C   UNL     1      -4.356 -11.783  19.000  0.00  0.00    +0.011 C 
ATOM     19  C   UNL     1      -6.571 -14.795  16.424  0.00  0.00    +0.010 C 
ENDROOT
BRANCH  14   5
ATOM      4  O   UNL     1     -10.415 -13.431  18.662  0.00  0.00    -0.275 OA
ATOM      5  N   UNL     1      -8.262 -14.289  18.782  0.00  0.00    -0.312 N 
ATOM     22  C   UNL     1      -9.628 -14.307  19.013  0.00  0.00    +0.218 C 
ATOM     37  H   UNL     1      -7.676 -15.026  19.165  0.00  0.00    +0.149 HD
BRANCH  22  23
ATOM     23  C   UNL     1     -10.047 -15.559  19.757  0.00  0.00    +0.130 C 
BRANCH  23  25
ATOM     25  C   UNL     1     -10.062 -15.388  21.253  0.00  0.00    -0.039 A 
ATOM     27  C   UNL     1     -11.170 -14.816  21.879  0.00  0.00    +0.004 A 
ATOM     28  C   UNL     1      -8.969 -15.802  22.014  0.00  0.00    +0.004 A 
ATOM     31  C   UNL     1     -11.184 -14.659  23.265  0.00  0.00    +0.000 A 
ATOM     32  C   UNL     1      -8.983 -15.644  23.400  0.00  0.00    +0.000 A 
ATOM     33  C   UNL     1     -10.090 -15.073  24.025  0.00  0.00    +0.000 A 
ENDBRANCH  23  25
ENDBRANCH  22  23
ENDBRANCH  14   5
BRANCH  10   2
ATOM      2  O   UNL     1      -4.521 -13.639  14.918  0.00  0.00    -0.391 OA
ATOM     38  H   UNL     1      -5.484 -13.630  14.784  0.00  0.00    +0.210 HD
ENDBRANCH  10   2
BRANCH  13  18
ATOM     18  C   UNL     1      -2.185 -11.862  14.784  0.00  0.00    +0.077 C 
ATOM     20  C   UNL     1      -1.105 -10.922  15.308  0.00  0.00    +0.017 C 
BRANCH  18  21
ATOM      3  O   UNL     1      -2.517 -12.777  12.567  0.00  0.00    -0.276 OA
ATOM      6  N   UNL     1      -2.115 -10.503  12.779  0.00  0.00    -0.311 N 
ATOM     21  C   UNL     1      -2.295 -11.790  13.265  0.00  0.00    +0.216 C 
ATOM     39  H   UNL     1      -1.970  -9.735  13.428  0.00  0.00    +0.149 HD
BRANCH   6  24
ATOM     24  C   UNL     1      -2.173 -10.185  11.371  0.00  0.00    +0.139 C 
BRANCH  24  26
ATOM      1  F   UNL     1      -7.263  -8.335   9.831  0.00  0.00    -0.205 F 
ATOM     26  C   UNL     1      -3.530  -9.691  10.961  0.00  0.00    -0.030 A 
ATOM     29  C   UNL     1      -4.589  -9.730  11.866  0.00  0.00    +0.008 A 
ATOM     30  C   UNL     1      -3.731  -9.195   9.673  0.00  0.00    +0.008 A 
ATOM     34  C   UNL     1      -5.850  -9.272  11.485  0.00  0.00    +0.038 A 
ATOM     35  C   UNL     1      -4.992  -8.738   9.291  0.00  0.00    +0.038 A 
ATOM     36  C   UNL     1      -6.052  -8.776  10.197  0.00  0.00    +0.123 A 
ENDBRANCH  24  26
ENDBRANCH   6  24
ENDBRANCH  18  21
ENDBRANCH  13  18
TORSDOF 8
ENDMDL
MODEL 8
REMARK VINA RESULT:      -7.0     29.400     34.308
REMARK  Name = 45361519
REMARK  11 active torsions:
REMARK  status: ('A' for Active; 'I' for Inactive)
REMARK    1  A    between atoms: O_2  and  C_10
REMARK    2  A    between atoms: N_5  and  C_14
REMARK    3  A    between atoms: N_6  and  C_24
REMARK    4  A    between atoms: C_7  and  C_17
REMARK    5  A    between atoms: C_9  and  C_19
REMARK    6  A    between atoms: C_13  and  C_18
REMARK    7  A    between atoms: C_18  and  C_20
REMARK    8  A    between atoms: C_18  and  C_21
REMARK    9  A    between atoms: C_22  and  C_23
REMARK   10  A    between atoms: C_23  and  C_25
REMARK   11  A    between atoms: C_24  and  C_26
REMARK                            x       y       z     vdW  Elec       q    Type
REMARK                         _______ _______ _______ _____ _____    ______ ____
ROOT
ATOM      7  C   UNL     1      11.540   9.585   6.730  0.00  0.00    -0.027 C 
ATOM      8  C   UNL     1      12.400   8.331   7.099  0.00  0.00    +0.028 C 
ATOM      9  C   UNL     1      13.740   8.312   6.278  0.00  0.00    +0.012 C 
ATOM     10  C   UNL     1      11.555   7.027   7.030  0.00  0.00    +0.122 C 
ATOM     11  C   UNL     1      10.285   9.634   7.633  0.00  0.00    +0.007 C 
ATOM     12  C   UNL     1      12.367  10.862   7.002  0.00  0.00    +0.009 C 
ATOM     13  C   UNL     1      10.248   7.121   7.853  0.00  0.00    +0.029 C 
ATOM     14  C   UNL     1      14.528   9.633   6.502  0.00  0.00    +0.076 C 
ATOM     15  C   UNL     1       9.435   8.375   7.538  0.00  0.00    +0.007 C 
ATOM     16  C   UNL     1      13.692  10.888   6.254  0.00  0.00    +0.023 C 
ATOM     17  C   UNL     1      11.086   9.578   5.248  0.00  0.00    +0.011 C 
ATOM     19  C   UNL     1      14.650   7.117   6.614  0.00  0.00    +0.010 C 
ENDROOT
BRANCH  14   5
ATOM      4  O   UNL     1      16.920  11.145   7.026  0.00  0.00    -0.275 OA
ATOM      5  N   UNL     1      15.711   9.698   5.671  0.00  0.00    -0.312 N 
ATOM     22  C   UNL     1      16.819  10.459   6.011  0.00  0.00    +0.218 C 
ATOM     37  H   UNL     1      15.688   9.212   4.779  0.00  0.00    +0.149 HD
BRANCH  22  23
ATOM     23  C   UNL     1      17.913  10.340   4.969  0.00  0.00    +0.130 C 
BRANCH  23  25
ATOM     25  C   UNL     1      18.951   9.304   5.309  0.00  0.00    -0.039 A 
ATOM     27  C   UNL     1      19.543   9.298   6.573  0.00  0.00    +0.004 A 
ATOM     28  C   UNL     1      19.323   8.350   4.362  0.00  0.00    +0.004 A 
ATOM     31  C   UNL     1      20.504   8.337   6.889  0.00  0.00    +0.000 A 
ATOM     32  C   UNL     1      20.284   7.390   4.677  0.00  0.00    +0.000 A 
ATOM     33  C   UNL     1      20.875   7.384   5.941  0.00  0.00    +0.000 A 
ENDBRANCH  23  25
ENDBRANCH  22  23
ENDBRANCH  14   5
BRANCH  10   2
ATOM      2  O   UNL     1      12.306   5.942   7.577  0.00  0.00    -0.391 OA
ATOM     38  H   UNL     1      11.732   5.462   8.198  0.00  0.00    +0.210 HD
ENDBRANCH  10   2
BRANCH  13  18
ATOM     18  C   UNL     1       9.369   5.878   7.668  0.00  0.00    +0.077 C 
ATOM     20  C   UNL     1      10.020   4.670   8.331  0.00  0.00    +0.017 C 
BRANCH  18  21
ATOM      3  O   UNL     1       8.187   6.140   5.571  0.00  0.00    -0.276 OA
ATOM      6  N   UNL     1      10.066   4.782   5.622  0.00  0.00    -0.311 N 
ATOM     21  C   UNL     1       9.124   5.632   6.183  0.00  0.00    +0.216 C 
ATOM     39  H   UNL     1      10.831   4.432   6.191  0.00  0.00    +0.149 HD
BRANCH   6  24
ATOM     24  C   UNL     1      10.041   4.397   4.230  0.00  0.00    +0.139 C 
BRANCH  24  26
ATOM      1  F   UNL     1      14.427   6.490   1.386  0.00  0.00    -0.205 F 
ATOM     26  C   UNL     1      11.210   4.955   3.471  0.00  0.00    -0.030 A 
ATOM     29  C   UNL     1      11.803   4.207   2.455  0.00  0.00    +0.008 A 
ATOM     30  C   UNL     1      11.704   6.221   3.784  0.00  0.00    +0.008 A 
ATOM     34  C   UNL     1      12.889   4.726   1.750  0.00  0.00    +0.038 A 
ATOM     35  C   UNL     1      12.791   6.740   3.081  0.00  0.00    +0.038 A 
ATOM     36  C   UNL     1      13.384   5.992   2.063  0.00  0.00    +0.123 A 
ENDBRANCH  24  26
ENDBRANCH   6  24
ENDBRANCH  18  21
ENDBRANCH  13  18
TORSDOF 8
ENDMDL
MODEL 9
REMARK VINA RESULT:      -7.0     18.727     20.094
REMARK  Name = 45361519
REMARK  11 active torsions:
REMARK  status: ('A' for Active; 'I' for Inactive)
REMARK    1  A    between atoms: O_2  and  C_10
REMARK    2  A    between atoms: N_5  and  C_14
REMARK    3  A    between atoms: N_6  and  C_24
REMARK    4  A    between atoms: C_7  and  C_17
REMARK    5  A    between atoms: C_9  and  C_19
REMARK    6  A    between atoms: C_13  and  C_18
REMARK    7  A    between atoms: C_18  and  C_20
REMARK    8  A    between atoms: C_18  and  C_21
REMARK    9  A    between atoms: C_22  and  C_23
REMARK   10  A    between atoms: C_23  and  C_25
REMARK   11  A    between atoms: C_24  and  C_26
REMARK                            x       y       z     vdW  Elec       q    Type
REMARK                         _______ _______ _______ _____ _____    ______ ____
ROOT
ATOM      7  C   UNL     1      -4.740 -11.033  16.862  0.00  0.00    -0.027 C 
ATOM      8  C   UNL     1      -5.507 -10.433  15.637  0.00  0.00    +0.028 C 
ATOM      9  C   UNL     1      -7.060 -10.567  15.828  0.00  0.00    +0.012 C 
ATOM     10  C   UNL     1      -4.948 -10.990  14.295  0.00  0.00    +0.122 C 
ATOM     11  C   UNL     1      -3.224 -10.785  16.695  0.00  0.00    +0.007 C 
ATOM     12  C   UNL     1      -5.198 -10.307  18.148  0.00  0.00    +0.009 C 
ATOM     13  C   UNL     1      -3.413 -10.831  14.179  0.00  0.00    +0.029 C 
ATOM     14  C   UNL     1      -7.498  -9.897  17.161  0.00  0.00    +0.076 C 
ATOM     15  C   UNL     1      -2.666 -11.362  15.401  0.00  0.00    +0.007 C 
ATOM     16  C   UNL     1      -6.702 -10.379  18.373  0.00  0.00    +0.023 C 
ATOM     17  C   UNL     1      -4.981 -12.556  17.024  0.00  0.00    +0.011 C 
ATOM     19  C   UNL     1      -7.877  -9.970  14.669  0.00  0.00    +0.010 C 
ENDROOT
BRANCH  14   5
ATOM      4  O   UNL     1      -9.507  -7.862  17.482  0.00  0.00    -0.275 OA
ATOM      5  N   UNL     1      -8.906 -10.103  17.426  0.00  0.00    -0.312 N 
ATOM     22  C   UNL     1      -9.799  -9.052  17.565  0.00  0.00    +0.218 C 
ATOM     37  H   UNL     1      -9.223 -11.057  17.575  0.00  0.00    +0.149 HD
BRANCH  22  23
ATOM     23  C   UNL     1     -11.205  -9.552  17.831  0.00  0.00    +0.130 C 
BRANCH  23  25
ATOM     25  C   UNL     1     -12.179  -9.204  16.737  0.00  0.00    -0.039 A 
ATOM     27  C   UNL     1     -11.819  -9.378  15.400  0.00  0.00    +0.004 A 
ATOM     28  C   UNL     1     -13.443  -8.709  17.058  0.00  0.00    +0.004 A 
ATOM     31  C   UNL     1     -12.722  -9.058  14.386  0.00  0.00    +0.000 A 
ATOM     32  C   UNL     1     -14.345  -8.387  16.045  0.00  0.00    +0.000 A 
ATOM     33  C   UNL     1     -13.985  -8.562  14.709  0.00  0.00    +0.000 A 
ENDBRANCH  23  25
ENDBRANCH  22  23
ENDBRANCH  14   5
BRANCH  10   2
ATOM      2  O   UNL     1      -5.517 -10.265  13.204  0.00  0.00    -0.391 OA
ATOM     38  H   UNL     1      -5.950  -9.471  13.563  0.00  0.00    +0.210 HD
ENDBRANCH  10   2
BRANCH  13  18
ATOM     18  C   UNL     1      -2.867 -11.501  12.912  0.00  0.00    +0.077 C 
ATOM     20  C   UNL     1      -1.664 -12.372  13.254  0.00  0.00    +0.017 C 
BRANCH  18  21
ATOM      3  O   UNL     1      -1.402  -9.910  11.824  0.00  0.00    -0.276 OA
ATOM      6  N   UNL     1      -3.564 -10.153  11.022  0.00  0.00    -0.311 N 
ATOM     21  C   UNL     1      -2.509 -10.440  11.876  0.00  0.00    +0.216 C 
ATOM     39  H   UNL     1      -4.437 -10.663  11.111  0.00  0.00    +0.149 HD
BRANCH   6  24
ATOM     24  C   UNL     1      -3.466  -9.179   9.959  0.00  0.00    +0.139 C 
BRANCH  24  26
ATOM      1  F   UNL     1      -8.247  -8.788   7.011  0.00  0.00    -0.205 F 
ATOM     26  C   UNL     1      -4.740  -9.075   9.173  0.00  0.00    -0.030 A 
ATOM     29  C   UNL     1      -4.922  -9.856   8.032  0.00  0.00    +0.008 A 
ATOM     30  C   UNL     1      -5.743  -8.196   9.583  0.00  0.00    +0.008 A 
ATOM     34  C   UNL     1      -6.106  -9.759   7.302  0.00  0.00    +0.038 A 
ATOM     35  C   UNL     1      -6.927  -8.098   8.853  0.00  0.00    +0.038 A 
ATOM     36  C   UNL     1      -7.109  -8.880   7.712  0.00  0.00    +0.123 A 
ENDBRANCH  24  26
ENDBRANCH   6  24
ENDBRANCH  18  21
ENDBRANCH  13  18
TORSDOF 8
ENDMDL
MODEL 10
REMARK VINA RESULT:      -7.0     29.399     33.288
REMARK  Name = 45361519
REMARK  11 active torsions:
REMARK  status: ('A' for Active; 'I' for Inactive)
REMARK    1  A    between atoms: O_2  and  C_10
REMARK    2  A    between atoms: N_5  and  C_14
REMARK    3  A    between atoms: N_6  and  C_24
REMARK    4  A    between atoms: C_7  and  C_17
REMARK    5  A    between atoms: C_9  and  C_19
REMARK    6  A    between atoms: C_13  and  C_18
REMARK    7  A    between atoms: C_18  and  C_20
REMARK    8  A    between atoms: C_18  and  C_21
REMARK    9  A    between atoms: C_22  and  C_23
REMARK   10  A    between atoms: C_23  and  C_25
REMARK   11  A    between atoms: C_24  and  C_26
REMARK                            x       y       z     vdW  Elec       q    Type
REMARK                         _______ _______ _______ _____ _____    ______ ____
ROOT
ATOM      7  C   UNL     1       9.769   6.632   6.694  0.00  0.00    -0.027 C 
ATOM      8  C   UNL     1      10.067   7.459   5.400  0.00  0.00    +0.028 C 
ATOM      9  C   UNL     1      11.095   6.706   4.480  0.00  0.00    +0.012 C 
ATOM     10  C   UNL     1      10.432   8.932   5.744  0.00  0.00    +0.122 C 
ATOM     11  C   UNL     1       8.673   7.344   7.520  0.00  0.00    +0.007 C 
ATOM     12  C   UNL     1       9.226   5.242   6.290  0.00  0.00    +0.009 C 
ATOM     13  C   UNL     1       9.381   9.607   6.657  0.00  0.00    +0.029 C 
ATOM     14  C   UNL     1      10.572   5.282   4.141  0.00  0.00    +0.076 C 
ATOM     15  C   UNL     1       9.043   8.773   7.892  0.00  0.00    +0.007 C 
ATOM     16  C   UNL     1      10.168   4.474   5.375  0.00  0.00    +0.023 C 
ATOM     17  C   UNL     1      11.024   6.449   7.585  0.00  0.00    +0.011 C 
ATOM     19  C   UNL     1      11.413   7.452   3.173  0.00  0.00    +0.010 C 
ENDROOT
BRANCH  14   5
ATOM      4  O   UNL     1      10.168   3.998   1.598  0.00  0.00    -0.275 OA
ATOM      5  N   UNL     1      11.547   4.517   3.392  0.00  0.00    -0.312 N 
ATOM     22  C   UNL     1      11.254   3.935   2.169  0.00  0.00    +0.218 C 
ATOM     37  H   UNL     1      12.454   4.360   3.821  0.00  0.00    +0.149 HD
BRANCH  22  23
ATOM     23  C   UNL     1      12.455   3.203   1.604  0.00  0.00    +0.130 C 
BRANCH  23  25
ATOM     25  C   UNL     1      13.504   4.122   1.037  0.00  0.00    -0.039 A 
ATOM     27  C   UNL     1      14.822   3.683   0.909  0.00  0.00    +0.004 A 
ATOM     28  C   UNL     1      13.158   5.414   0.639  0.00  0.00    +0.004 A 
ATOM     31  C   UNL     1      15.793   4.535   0.383  0.00  0.00    +0.000 A 
ATOM     32  C   UNL     1      14.129   6.266   0.114  0.00  0.00    +0.000 A 
ATOM     33  C   UNL     1      15.447   5.826  -0.015  0.00  0.00    +0.000 A 
ENDBRANCH  23  25
ENDBRANCH  22  23
ENDBRANCH  14   5
BRANCH  10   2
ATOM      2  O   UNL     1      10.485   9.703   4.543  0.00  0.00    -0.391 OA
ATOM     38  H   UNL     1      10.227  10.616   4.759  0.00  0.00    +0.210 HD
ENDBRANCH  10   2
BRANCH  13  18
ATOM     18  C   UNL     1       9.822  11.010   7.090  0.00  0.00    +0.077 C 
ATOM     20  C   UNL     1       8.831  12.052   6.584  0.00  0.00    +0.017 C 
BRANCH  18  21
ATOM      3  O   UNL     1      11.463  12.075   5.662  0.00  0.00    -0.276 OA
ATOM      6  N   UNL     1      12.199  10.572   7.268  0.00  0.00    -0.311 N 
ATOM     21  C   UNL     1      11.233  11.292   6.581  0.00  0.00    +0.216 C 
ATOM     39  H   UNL     1      11.927   9.971   8.040  0.00  0.00    +0.149 HD
BRANCH   6  24
ATOM     24  C   UNL     1      13.608  10.670   6.964  0.00  0.00    +0.139 C 
BRANCH  24  26
ATOM      1  F   UNL     1      15.318   6.549   3.529  0.00  0.00    -0.205 F 
ATOM     26  C   UNL     1      14.064   9.570   6.049  0.00  0.00    -0.030 A 
ATOM     29  C   UNL     1      14.173   8.265   6.526  0.00  0.00    +0.008 A 
ATOM     30  C   UNL     1      14.379   9.856   4.720  0.00  0.00    +0.008 A 
ATOM     34  C   UNL     1      14.596   7.244   5.675  0.00  0.00    +0.038 A 
ATOM     35  C   UNL     1      14.803   8.836   3.869  0.00  0.00    +0.038 A 
ATOM     36  C   UNL     1      14.912   7.529   4.347  0.00  0.00    +0.123 A 
ENDBRANCH  24  26
ENDBRANCH   6  24
ENDBRANCH  18  21
ENDBRANCH  13  18
TORSDOF 8
ENDMDL
