MODEL 1
REMARK VINA RESULT:      -8.6      0.000      0.000
REMARK  Name = 11886156
REMARK  7 active torsions:
REMARK  status: ('A' for Active; 'I' for Inactive)
REMARK    1  A    between atoms: N_7  and  C_16
REMARK    2  A    between atoms: N_8  and  C_17
REMARK    3  A    between atoms: N_10  and  C_27
REMARK    4  A    between atoms: N_13  and  C_33
REMARK    5  A    between atoms: C_20  and  C_22
REMARK    6  A    between atoms: C_27  and  C_29
REMARK    7  A    between atoms: C_36  and  C_39
REMARK                            x       y       z     vdW  Elec       q    Type
REMARK                         _______ _______ _______ _____ _____    ______ ____
ROOT
ATOM      4  O   UNL     1      15.781   6.608  21.908  0.00  0.00    -0.370 OA
ATOM      5  O   UNL     1      17.641   8.857  20.735  0.00  0.00    -0.370 OA
ATOM     14  C   UNL     1      16.738   7.902  20.149  0.00  0.00    +0.176 C 
ATOM     15  C   UNL     1      16.855   6.623  20.953  0.00  0.00    +0.171 C 
ATOM     16  C   UNL     1      15.304   8.356  20.353  0.00  0.00    +0.168 C 
ATOM     17  C   UNL     1      18.184   6.746  21.662  0.00  0.00    +0.131 C 
ATOM     18  C   UNL     1      14.944   7.755  21.707  0.00  0.00    +0.190 C 
ATOM     19  C   UNL     1      18.315   8.247  21.845  0.00  0.00    +0.185 C 
ENDROOT
BRANCH  17   8
ATOM      6  O   UNL     1      20.717   5.784  22.592  0.00  0.00    -0.252 OA
ATOM      8  N   UNL     1      19.258   6.223  20.853  0.00  0.00    -0.292 N 
ATOM     13  N   UNL     1      21.315   5.322  20.369  0.00  0.00    -0.269 N 
ATOM     21  C   UNL     1      20.471   5.771  21.388  0.00  0.00    +0.304 C 
ATOM     40  H   UNL     1      19.159   6.245  19.842  0.00  0.00    +0.151 HD
ATOM     41  H   UNL     1      20.955   5.381  19.419  0.00  0.00    +0.156 HD
BRANCH  13  33
ATOM     33  C   UNL     1      22.620   4.792  20.494  0.00  0.00    +0.035 A 
ATOM     34  C   UNL     1      22.806   3.510  21.011  0.00  0.00    +0.035 A 
ATOM     35  C   UNL     1      23.722   5.551  20.099  0.00  0.00    +0.023 A 
ATOM     36  C   UNL     1      24.094   2.987  21.135  0.00  0.00    +0.057 A 
ATOM     37  C   UNL     1      25.009   5.029  20.222  0.00  0.00    +0.002 A 
ATOM     38  C   UNL     1      25.196   3.748  20.740  0.00  0.00    +0.012 A 
BRANCH  36  39
ATOM      1  F   UNL     1      23.626   1.398  22.860  0.00  0.00    -0.166 F 
ATOM      2  F   UNL     1      23.874   0.623  20.850  0.00  0.00    -0.166 F 
ATOM      3  F   UNL     1      25.602   1.343  21.955  0.00  0.00    -0.166 F 
ATOM     39  C   UNL     1      24.293   1.617  21.688  0.00  0.00    +0.417 C 
ENDBRANCH  36  39
ENDBRANCH  13  33
ENDBRANCH  17   8
BRANCH  16   7
ATOM      7  N   UNL     1      14.427   7.963  19.246  0.00  0.00    -0.217 N 
ATOM      9  N   UNL     1      14.941   7.538  18.082  0.00  0.00    -0.043 NA
ATOM     11  N   UNL     1      12.714   7.527  17.991  0.00  0.00    -0.108 NA
ATOM     12  N   UNL     1      13.888   7.272  17.320  0.00  0.00    -0.023 NA
ATOM     20  C   UNL     1      13.071   7.953  19.181  0.00  0.00    +0.182 A 
BRANCH  20  22
ATOM     22  C   UNL     1      12.199   8.350  20.257  0.00  0.00    +0.021 A 
ATOM     28  C   UNL     1      12.130   9.689  20.641  0.00  0.00    +0.016 A 
ATOM     29  C   UNL     1      11.285  10.073  21.682  0.00  0.00    -0.033 A 
ATOM     30  C   UNL     1      11.424   7.395  20.914  0.00  0.00    +0.011 A 
ATOM     31  C   UNL     1      10.509   9.117  22.339  0.00  0.00    +0.005 A 
ATOM     32  C   UNL     1      10.579   7.779  21.955  0.00  0.00    +0.001 A 
BRANCH  29  27
ATOM     27  C   UNL     1      11.210  11.505  22.092  0.00  0.00    +0.119 C 
BRANCH  27  10
ATOM     10  N   UNL     1      11.230  11.669  23.538  0.00  0.00    -0.298 NA
ATOM     23  C   UNL     1      12.571  11.954  24.049  0.00  0.00    +0.085 C 
ATOM     24  C   UNL     1      10.408  12.794  23.984  0.00  0.00    +0.085 C 
ATOM     25  C   UNL     1      12.300  12.462  25.456  0.00  0.00    +0.017 C 
ATOM     26  C   UNL     1      10.877  13.011  25.414  0.00  0.00    +0.017 C 
ENDBRANCH  27  10
ENDBRANCH  29  27
ENDBRANCH  20  22
ENDBRANCH  16   7
TORSDOF 7
ENDMDL
MODEL 2
REMARK VINA RESULT:      -8.1      2.673      3.522
REMARK  Name = 11886156
REMARK  7 active torsions:
REMARK  status: ('A' for Active; 'I' for Inactive)
REMARK    1  A    between atoms: N_7  and  C_16
REMARK    2  A    between atoms: N_8  and  C_17
REMARK    3  A    between atoms: N_10  and  C_27
REMARK    4  A    between atoms: N_13  and  C_33
REMARK    5  A    between atoms: C_20  and  C_22
REMARK    6  A    between atoms: C_27  and  C_29
REMARK    7  A    between atoms: C_36  and  C_39
REMARK                            x       y       z     vdW  Elec       q    Type
REMARK                         _______ _______ _______ _____ _____    ______ ____
ROOT
ATOM      4  O   UNL     1      13.962   6.750  21.145  0.00  0.00    -0.370 OA
ATOM      5  O   UNL     1      15.867   9.187  20.577  0.00  0.00    -0.370 OA
ATOM     14  C   UNL     1      15.089   8.312  19.740  0.00  0.00    +0.176 C 
ATOM     15  C   UNL     1      15.151   6.929  20.359  0.00  0.00    +0.171 C 
ATOM     16  C   UNL     1      13.624   8.700  19.810  0.00  0.00    +0.168 C 
ATOM     17  C   UNL     1      16.369   6.973  21.253  0.00  0.00    +0.131 C 
ATOM     18  C   UNL     1      13.113   7.896  21.000  0.00  0.00    +0.190 C 
ATOM     19  C   UNL     1      16.413   8.432  21.668  0.00  0.00    +0.185 C 
ENDROOT
BRANCH  17   8
ATOM      6  O   UNL     1      19.014   6.727  22.325  0.00  0.00    -0.252 OA
ATOM      8  N   UNL     1      17.561   6.599  20.532  0.00  0.00    -0.292 N 
ATOM     13  N   UNL     1      19.782   6.121  20.191  0.00  0.00    -0.269 N 
ATOM     21  C   UNL     1      18.822   6.502  21.133  0.00  0.00    +0.304 C 
ATOM     40  H   UNL     1      17.497   6.465  19.526  0.00  0.00    +0.151 HD
ATOM     41  H   UNL     1      19.454   5.972  19.240  0.00  0.00    +0.156 HD
BRANCH  13  33
ATOM     33  C   UNL     1      21.166   5.915  20.397  0.00  0.00    +0.035 A 
ATOM     34  C   UNL     1      21.653   4.627  20.625  0.00  0.00    +0.035 A 
ATOM     35  C   UNL     1      22.043   6.999  20.373  0.00  0.00    +0.023 A 
ATOM     36  C   UNL     1      23.018   4.424  20.829  0.00  0.00    +0.057 A 
ATOM     37  C   UNL     1      23.408   6.796  20.577  0.00  0.00    +0.002 A 
ATOM     38  C   UNL     1      23.896   5.509  20.805  0.00  0.00    +0.012 A 
BRANCH  36  39
ATOM      1  F   UNL     1      23.708   2.754  22.396  0.00  0.00    -0.166 F 
ATOM      2  F   UNL     1      22.727   2.063  20.589  0.00  0.00    -0.166 F 
ATOM      3  F   UNL     1      24.756   2.838  20.493  0.00  0.00    -0.166 F 
ATOM     39  C   UNL     1      23.539   3.049  21.073  0.00  0.00    +0.417 C 
ENDBRANCH  36  39
ENDBRANCH  13  33
ENDBRANCH  17   8
BRANCH  16   7
ATOM      7  N   UNL     1      12.919   8.459  18.548  0.00  0.00    -0.217 N 
ATOM      9  N   UNL     1      12.111   7.399  18.406  0.00  0.00    -0.043 NA
ATOM     11  N   UNL     1      12.154   8.591  16.523  0.00  0.00    -0.108 NA
ATOM     12  N   UNL     1      11.646   7.485  17.166  0.00  0.00    -0.023 NA
ATOM     20  C   UNL     1      12.940   9.179  17.396  0.00  0.00    +0.182 A 
BRANCH  20  22
ATOM     22  C   UNL     1      13.706  10.383  17.200  0.00  0.00    +0.021 A 
ATOM     28  C   UNL     1      13.543  11.463  18.067  0.00  0.00    +0.016 A 
ATOM     29  C   UNL     1      14.286  12.628  17.877  0.00  0.00    -0.033 A 
ATOM     30  C   UNL     1      14.610  10.468  16.142  0.00  0.00    +0.011 A 
ATOM     31  C   UNL     1      15.191  12.713  16.818  0.00  0.00    +0.005 A 
ATOM     32  C   UNL     1      15.353  11.634  15.951  0.00  0.00    +0.001 A 
BRANCH  29  27
ATOM     27  C   UNL     1      14.114  13.782  18.805  0.00  0.00    +0.119 C 
BRANCH  27  10
ATOM     10  N   UNL     1      12.821  13.766  19.475  0.00  0.00    -0.298 NA
ATOM     23  C   UNL     1      12.947  13.698  20.930  0.00  0.00    +0.085 C 
ATOM     24  C   UNL     1      12.045  14.979  19.218  0.00  0.00    +0.085 C 
ATOM     25  C   UNL     1      11.557  14.083  21.412  0.00  0.00    +0.017 C 
ATOM     26  C   UNL     1      10.963  14.922  20.285  0.00  0.00    +0.017 C 
ENDBRANCH  27  10
ENDBRANCH  29  27
ENDBRANCH  20  22
ENDBRANCH  16   7
TORSDOF 7
ENDMDL
MODEL 3
REMARK VINA RESULT:      -8.1      3.893      5.704
REMARK  Name = 11886156
REMARK  7 active torsions:
REMARK  status: ('A' for Active; 'I' for Inactive)
REMARK    1  A    between atoms: N_7  and  C_16
REMARK    2  A    between atoms: N_8  and  C_17
REMARK    3  A    between atoms: N_10  and  C_27
REMARK    4  A    between atoms: N_13  and  C_33
REMARK    5  A    between atoms: C_20  and  C_22
REMARK    6  A    between atoms: C_27  and  C_29
REMARK    7  A    between atoms: C_36  and  C_39
REMARK                            x       y       z     vdW  Elec       q    Type
REMARK                         _______ _______ _______ _____ _____    ______ ____
ROOT
ATOM      4  O   UNL     1      14.092   6.788  21.172  0.00  0.00    -0.370 OA
ATOM      5  O   UNL     1      15.911   9.270  20.519  0.00  0.00    -0.370 OA
ATOM     14  C   UNL     1      15.148   8.352  19.715  0.00  0.00    +0.176 C 
ATOM     15  C   UNL     1      15.263   6.986  20.363  0.00  0.00    +0.171 C 
ATOM     16  C   UNL     1      13.672   8.696  19.800  0.00  0.00    +0.168 C 
ATOM     17  C   UNL     1      16.493   7.089  21.236  0.00  0.00    +0.131 C 
ATOM     18  C   UNL     1      13.206   7.904  21.016  0.00  0.00    +0.190 C 
ATOM     19  C   UNL     1      16.497   8.557  21.617  0.00  0.00    +0.185 C 
ENDROOT
BRANCH  17   8
ATOM      6  O   UNL     1      19.132   6.776  22.306  0.00  0.00    -0.252 OA
ATOM      8  N   UNL     1      17.685   6.736  20.503  0.00  0.00    -0.292 N 
ATOM     13  N   UNL     1      19.903   6.254  20.151  0.00  0.00    -0.269 N 
ATOM     21  C   UNL     1      18.943   6.603  21.104  0.00  0.00    +0.304 C 
ATOM     40  H   UNL     1      17.624   6.645  19.493  0.00  0.00    +0.151 HD
ATOM     41  H   UNL     1      19.577   6.149  19.193  0.00  0.00    +0.156 HD
BRANCH  13  33
ATOM     33  C   UNL     1      21.284   6.028  20.353  0.00  0.00    +0.035 A 
ATOM     34  C   UNL     1      21.769   4.724  20.464  0.00  0.00    +0.035 A 
ATOM     35  C   UNL     1      22.162   7.108  20.441  0.00  0.00    +0.023 A 
ATOM     36  C   UNL     1      23.132   4.502  20.664  0.00  0.00    +0.057 A 
ATOM     37  C   UNL     1      23.524   6.886  20.641  0.00  0.00    +0.002 A 
ATOM     38  C   UNL     1      24.009   5.583  20.753  0.00  0.00    +0.012 A 
BRANCH  36  39
ATOM      1  F   UNL     1      22.667   2.160  20.817  0.00  0.00    -0.166 F 
ATOM      2  F   UNL     1      24.465   2.739  19.751  0.00  0.00    -0.166 F 
ATOM      3  F   UNL     1      24.384   2.916  21.917  0.00  0.00    -0.166 F 
ATOM     39  C   UNL     1      23.650   3.109  20.783  0.00  0.00    +0.417 C 
ENDBRANCH  36  39
ENDBRANCH  13  33
ENDBRANCH  17   8
BRANCH  16   7
ATOM      7  N   UNL     1      12.955   8.404  18.555  0.00  0.00    -0.217 N 
ATOM      9  N   UNL     1      12.131   7.350  18.470  0.00  0.00    -0.043 NA
ATOM     11  N   UNL     1      12.179   8.448  16.531  0.00  0.00    -0.108 NA
ATOM     12  N   UNL     1      11.659   7.383  17.230  0.00  0.00    -0.023 NA
ATOM     20  C   UNL     1      12.979   9.066  17.370  0.00  0.00    +0.182 A 
BRANCH  20  22
ATOM     22  C   UNL     1      13.761  10.248  17.110  0.00  0.00    +0.021 A 
ATOM     28  C   UNL     1      14.702  10.249  16.080  0.00  0.00    +0.016 A 
ATOM     29  C   UNL     1      15.458  11.394  15.829  0.00  0.00    -0.033 A 
ATOM     30  C   UNL     1      13.578  11.390  17.889  0.00  0.00    +0.011 A 
ATOM     31  C   UNL     1      15.275  12.537  16.608  0.00  0.00    +0.005 A 
ATOM     32  C   UNL     1      14.335  12.535  17.638  0.00  0.00    +0.001 A 
BRANCH  29  27
ATOM     27  C   UNL     1      16.462  11.397  14.726  0.00  0.00    +0.119 C 
BRANCH  27  10
ATOM     10  N   UNL     1      16.204  12.440  13.744  0.00  0.00    -0.298 NA
ATOM     23  C   UNL     1      17.329  12.638  12.831  0.00  0.00    +0.085 C 
ATOM     24  C   UNL     1      15.066  12.124  12.881  0.00  0.00    +0.085 C 
ATOM     25  C   UNL     1      16.713  13.447  11.700  0.00  0.00    +0.017 C 
ATOM     26  C   UNL     1      15.225  13.112  11.735  0.00  0.00    +0.017 C 
ENDBRANCH  27  10
ENDBRANCH  29  27
ENDBRANCH  20  22
ENDBRANCH  16   7
TORSDOF 7
ENDMDL
MODEL 4
REMARK VINA RESULT:      -8.0     28.916     32.160
REMARK  Name = 11886156
REMARK  7 active torsions:
REMARK  status: ('A' for Active; 'I' for Inactive)
REMARK    1  A    between atoms: N_7  and  C_16
REMARK    2  A    between atoms: N_8  and  C_17
REMARK    3  A    between atoms: N_10  and  C_27
REMARK    4  A    between atoms: N_13  and  C_33
REMARK    5  A    between atoms: C_20  and  C_22
REMARK    6  A    between atoms: C_27  and  C_29
REMARK    7  A    between atoms: C_36  and  C_39
REMARK                            x       y       z     vdW  Elec       q    Type
REMARK                         _______ _______ _______ _____ _____    ______ ____
ROOT
ATOM      4  O   UNL     1     -13.309  -8.035  15.711  0.00  0.00    -0.370 OA
ATOM      5  O   UNL     1     -11.492  -5.644  14.773  0.00  0.00    -0.370 OA
ATOM     14  C   UNL     1     -11.945  -6.859  14.148  0.00  0.00    +0.176 C 
ATOM     15  C   UNL     1     -11.963  -7.933  15.218  0.00  0.00    +0.171 C 
ATOM     16  C   UNL     1     -13.395  -6.712  13.725  0.00  0.00    +0.168 C 
ATOM     17  C   UNL     1     -11.048  -7.402  16.298  0.00  0.00    +0.131 C 
ATOM     18  C   UNL     1     -14.161  -7.153  14.967  0.00  0.00    +0.190 C 
ATOM     19  C   UNL     1     -11.221  -5.901  16.158  0.00  0.00    +0.185 C 
ENDROOT
BRANCH  17   8
ATOM      6  O   UNL     1      -9.474  -9.177  17.903  0.00  0.00    -0.252 OA
ATOM      8  N   UNL     1      -9.680  -7.794  16.062  0.00  0.00    -0.292 N 
ATOM     13  N   UNL     1      -7.679  -8.865  16.422  0.00  0.00    -0.269 N 
ATOM     21  C   UNL     1      -8.979  -8.671  16.899  0.00  0.00    +0.304 C 
ATOM     40  H   UNL     1      -9.178  -7.363  15.291  0.00  0.00    +0.151 HD
ATOM     41  H   UNL     1      -7.427  -8.368  15.571  0.00  0.00    +0.156 HD
BRANCH  13  33
ATOM     33  C   UNL     1      -6.662  -9.674  16.980  0.00  0.00    +0.035 A 
ATOM     34  C   UNL     1      -5.500  -9.934  16.252  0.00  0.00    +0.035 A 
ATOM     35  C   UNL     1      -6.821 -10.211  18.257  0.00  0.00    +0.023 A 
ATOM     36  C   UNL     1      -4.497 -10.732  16.803  0.00  0.00    +0.057 A 
ATOM     37  C   UNL     1      -5.819 -11.009  18.807  0.00  0.00    +0.002 A 
ATOM     38  C   UNL     1      -4.657 -11.271  18.081  0.00  0.00    +0.012 A 
BRANCH  36  39
ATOM      1  F   UNL     1      -3.179 -12.291  15.556  0.00  0.00    -0.166 F 
ATOM      2  F   UNL     1      -3.111 -10.218  14.923  0.00  0.00    -0.166 F 
ATOM      3  F   UNL     1      -2.122 -10.823  16.762  0.00  0.00    -0.166 F 
ATOM     39  C   UNL     1      -3.256 -11.011  16.026  0.00  0.00    +0.417 C 
ENDBRANCH  36  39
ENDBRANCH  13  33
ENDBRANCH  17   8
BRANCH  16   7
ATOM      7  N   UNL     1     -13.703  -7.464  12.506  0.00  0.00    -0.217 N 
ATOM      9  N   UNL     1     -14.312  -8.657  12.571  0.00  0.00    -0.043 NA
ATOM     11  N   UNL     1     -13.908  -8.115  10.447  0.00  0.00    -0.108 NA
ATOM     12  N   UNL     1     -14.435  -9.049  11.310  0.00  0.00    -0.023 NA
ATOM     20  C   UNL     1     -13.461  -7.142  11.208  0.00  0.00    +0.182 A 
BRANCH  20  22
ATOM     22  C   UNL     1     -12.819  -5.928  10.775  0.00  0.00    +0.021 A 
ATOM     28  C   UNL     1     -11.696  -5.988   9.949  0.00  0.00    +0.016 A 
ATOM     29  C   UNL     1     -11.076  -4.812   9.529  0.00  0.00    -0.033 A 
ATOM     30  C   UNL     1     -13.320  -4.691  11.181  0.00  0.00    +0.011 A 
ATOM     31  C   UNL     1     -11.577  -3.575   9.935  0.00  0.00    +0.005 A 
ATOM     32  C   UNL     1     -12.699  -3.515  10.761  0.00  0.00    +0.001 A 
BRANCH  29  27
ATOM     27  C   UNL     1      -9.877  -4.876   8.644  0.00  0.00    +0.119 C 
BRANCH  27  10
ATOM     10  N   UNL     1      -9.588  -6.232   8.200  0.00  0.00    -0.298 NA
ATOM     23  C   UNL     1     -10.118  -6.507   6.865  0.00  0.00    +0.085 C 
ATOM     24  C   UNL     1      -8.152  -6.493   8.099  0.00  0.00    +0.085 C 
ATOM     25  C   UNL     1      -9.386  -7.778   6.462  0.00  0.00    +0.017 C 
ATOM     26  C   UNL     1      -8.096  -7.770   7.276  0.00  0.00    +0.017 C 
ENDBRANCH  27  10
ENDBRANCH  29  27
ENDBRANCH  20  22
ENDBRANCH  16   7
TORSDOF 7
ENDMDL
MODEL 5
REMARK VINA RESULT:      -8.0     29.699     32.545
REMARK  Name = 11886156
REMARK  7 active torsions:
REMARK  status: ('A' for Active; 'I' for Inactive)
REMARK    1  A    between atoms: N_7  and  C_16
REMARK    2  A    between atoms: N_8  and  C_17
REMARK    3  A    between atoms: N_10  and  C_27
REMARK    4  A    between atoms: N_13  and  C_33
REMARK    5  A    between atoms: C_20  and  C_22
REMARK    6  A    between atoms: C_27  and  C_29
REMARK    7  A    between atoms: C_36  and  C_39
REMARK                            x       y       z     vdW  Elec       q    Type
REMARK                         _______ _______ _______ _____ _____    ______ ____
ROOT
ATOM      4  O   UNL     1     -15.829   4.326  22.135  0.00  0.00    -0.370 OA
ATOM      5  O   UNL     1     -16.638   6.738  23.984  0.00  0.00    -0.370 OA
ATOM     14  C   UNL     1     -15.392   6.280  23.429  0.00  0.00    +0.176 C 
ATOM     15  C   UNL     1     -15.426   4.764  23.442  0.00  0.00    +0.171 C 
ATOM     16  C   UNL     1     -15.315   6.651  21.960  0.00  0.00    +0.168 C 
ATOM     17  C   UNL     1     -16.490   4.422  24.461  0.00  0.00    +0.131 C 
ATOM     18  C   UNL     1     -15.974   5.461  21.271  0.00  0.00    +0.190 C 
ATOM     19  C   UNL     1     -17.436   5.603  24.348  0.00  0.00    +0.185 C 
ENDROOT
BRANCH  17   8
ATOM      6  O   UNL     1     -16.705   2.198  26.253  0.00  0.00    -0.252 OA
ATOM      8  N   UNL     1     -15.931   4.326  25.788  0.00  0.00    -0.292 N 
ATOM     13  N   UNL     1     -15.435   3.392  27.827  0.00  0.00    -0.269 N 
ATOM     21  C   UNL     1     -16.083   3.198  26.603  0.00  0.00    +0.304 C 
ATOM     40  H   UNL     1     -15.462   5.140  26.176  0.00  0.00    +0.151 HD
ATOM     41  H   UNL     1     -14.963   4.284  27.957  0.00  0.00    +0.156 HD
BRANCH  13  33
ATOM     33  C   UNL     1     -15.355   2.495  28.917  0.00  0.00    +0.035 A 
ATOM     34  C   UNL     1     -14.840   2.927  30.140  0.00  0.00    +0.035 A 
ATOM     35  C   UNL     1     -15.790   1.178  28.770  0.00  0.00    +0.023 A 
ATOM     36  C   UNL     1     -14.760   2.041  31.215  0.00  0.00    +0.057 A 
ATOM     37  C   UNL     1     -15.711   0.293  29.844  0.00  0.00    +0.002 A 
ATOM     38  C   UNL     1     -15.195   0.724  31.067  0.00  0.00    +0.012 A 
BRANCH  36  39
ATOM      1  F   UNL     1     -14.225   1.541  33.492  0.00  0.00    -0.166 F 
ATOM      2  F   UNL     1     -12.909   2.917  32.451  0.00  0.00    -0.166 F 
ATOM      3  F   UNL     1     -14.902   3.557  33.040  0.00  0.00    -0.166 F 
ATOM     39  C   UNL     1     -14.209   2.503  32.521  0.00  0.00    +0.417 C 
ENDBRANCH  36  39
ENDBRANCH  13  33
ENDBRANCH  17   8
BRANCH  16   7
ATOM      7  N   UNL     1     -13.946   6.940  21.524  0.00  0.00    -0.217 N 
ATOM      9  N   UNL     1     -13.194   5.991  20.950  0.00  0.00    -0.043 NA
ATOM     11  N   UNL     1     -12.048   7.898  21.092  0.00  0.00    -0.108 NA
ATOM     12  N   UNL     1     -12.036   6.582  20.687  0.00  0.00    -0.023 NA
ATOM     20  C   UNL     1     -13.240   8.098  21.608  0.00  0.00    +0.182 A 
BRANCH  20  22
ATOM     22  C   UNL     1     -13.745   9.323  22.172  0.00  0.00    +0.021 A 
ATOM     28  C   UNL     1     -13.088   9.918  23.249  0.00  0.00    +0.016 A 
ATOM     29  C   UNL     1     -13.577  11.105  23.795  0.00  0.00    -0.033 A 
ATOM     30  C   UNL     1     -14.891   9.914  21.642  0.00  0.00    +0.011 A 
ATOM     31  C   UNL     1     -14.724  11.696  23.264  0.00  0.00    +0.005 A 
ATOM     32  C   UNL     1     -15.380  11.101  22.188  0.00  0.00    +0.001 A 
BRANCH  29  27
ATOM     27  C   UNL     1     -12.874  11.742  24.945  0.00  0.00    +0.119 C 
BRANCH  27  10
ATOM     10  N   UNL     1     -12.372  10.763  25.899  0.00  0.00    -0.298 NA
ATOM     23  C   UNL     1     -10.911  10.708  25.926  0.00  0.00    +0.085 C 
ATOM     24  C   UNL     1     -12.765  11.071  27.274  0.00  0.00    +0.085 C 
ATOM     25  C   UNL     1     -10.621   9.951  27.213  0.00  0.00    +0.017 C 
ATOM     26  C   UNL     1     -11.842  10.187  28.097  0.00  0.00    +0.017 C 
ENDBRANCH  27  10
ENDBRANCH  29  27
ENDBRANCH  20  22
ENDBRANCH  16   7
TORSDOF 7
ENDMDL
MODEL 6
REMARK VINA RESULT:      -7.7     15.443     18.052
REMARK  Name = 11886156
REMARK  7 active torsions:
REMARK  status: ('A' for Active; 'I' for Inactive)
REMARK    1  A    between atoms: N_7  and  C_16
REMARK    2  A    between atoms: N_8  and  C_17
REMARK    3  A    between atoms: N_10  and  C_27
REMARK    4  A    between atoms: N_13  and  C_33
REMARK    5  A    between atoms: C_20  and  C_22
REMARK    6  A    between atoms: C_27  and  C_29
REMARK    7  A    between atoms: C_36  and  C_39
REMARK                            x       y       z     vdW  Elec       q    Type
REMARK                         _______ _______ _______ _____ _____    ______ ____
ROOT
ATOM      4  O   UNL     1      12.105   9.681   7.568  0.00  0.00    -0.370 OA
ATOM      5  O   UNL     1      12.782   9.161   4.540  0.00  0.00    -0.370 OA
ATOM     14  C   UNL     1      12.355   8.319   5.627  0.00  0.00    +0.176 C 
ATOM     15  C   UNL     1      13.036   8.828   6.882  0.00  0.00    +0.171 C 
ATOM     16  C   UNL     1      10.873   8.522   5.884  0.00  0.00    +0.168 C 
ATOM     17  C   UNL     1      14.208   9.634   6.371  0.00  0.00    +0.131 C 
ATOM     18  C   UNL     1      10.852   9.682   6.872  0.00  0.00    +0.190 C 
ATOM     19  C   UNL     1      13.690  10.151   5.042  0.00  0.00    +0.185 C 
ENDROOT
BRANCH  17   8
ATOM      6  O   UNL     1      16.937  10.504   6.298  0.00  0.00    -0.252 OA
ATOM      8  N   UNL     1      15.374   8.803   6.189  0.00  0.00    -0.292 N 
ATOM     13  N   UNL     1      17.599   8.274   5.976  0.00  0.00    -0.269 N 
ATOM     21  C   UNL     1      16.679   9.309   6.165  0.00  0.00    +0.304 C 
ATOM     40  H   UNL     1      15.240   7.813   6.003  0.00  0.00    +0.151 HD
ATOM     41  H   UNL     1      17.217   7.336   5.884  0.00  0.00    +0.156 HD
BRANCH  13  33
ATOM     33  C   UNL     1      19.008   8.369   5.894  0.00  0.00    +0.035 A 
ATOM     34  C   UNL     1      19.692   7.727   4.862  0.00  0.00    +0.035 A 
ATOM     35  C   UNL     1      19.713   9.107   6.846  0.00  0.00    +0.023 A 
ATOM     36  C   UNL     1      21.082   7.821   4.782  0.00  0.00    +0.057 A 
ATOM     37  C   UNL     1      21.102   9.201   6.766  0.00  0.00    +0.002 A 
ATOM     38  C   UNL     1      21.787   8.558   5.735  0.00  0.00    +0.012 A 
BRANCH  36  39
ATOM      1  F   UNL     1      21.042   6.889   2.580  0.00  0.00    -0.166 F 
ATOM      2  F   UNL     1      22.886   7.839   3.212  0.00  0.00    -0.166 F 
ATOM      3  F   UNL     1      22.310   5.919   4.056  0.00  0.00    -0.166 F 
ATOM     39  C   UNL     1      21.814   7.133   3.680  0.00  0.00    +0.417 C 
ENDBRANCH  36  39
ENDBRANCH  13  33
ENDBRANCH  17   8
BRANCH  16   7
ATOM      7  N   UNL     1      10.211   7.299   6.347  0.00  0.00    -0.217 N 
ATOM      9  N   UNL     1       9.860   7.154   7.633  0.00  0.00    -0.043 NA
ATOM     11  N   UNL     1       9.290   5.339   6.471  0.00  0.00    -0.108 NA
ATOM     12  N   UNL     1       9.296   5.955   7.702  0.00  0.00    -0.023 NA
ATOM     20  C   UNL     1       9.861   6.188   5.648  0.00  0.00    +0.182 A 
BRANCH  20  22
ATOM     22  C   UNL     1      10.091   6.006   4.237  0.00  0.00    +0.021 A 
ATOM     28  C   UNL     1      10.901   4.962   3.792  0.00  0.00    +0.016 A 
ATOM     29  C   UNL     1      11.123   4.785   2.426  0.00  0.00    -0.033 A 
ATOM     30  C   UNL     1       9.503   6.874   3.317  0.00  0.00    +0.011 A 
ATOM     31  C   UNL     1      10.534   5.653   1.506  0.00  0.00    +0.005 A 
ATOM     32  C   UNL     1       9.724   6.697   1.951  0.00  0.00    +0.001 A 
BRANCH  29  27
ATOM     27  C   UNL     1      11.988   3.668   1.950  0.00  0.00    +0.119 C 
BRANCH  27  10
ATOM     10  N   UNL     1      13.158   4.144   1.226  0.00  0.00    -0.298 NA
ATOM     23  C   UNL     1      14.406   3.603   1.765  0.00  0.00    +0.085 C 
ATOM     24  C   UNL     1      13.147   3.740  -0.180  0.00  0.00    +0.085 C 
ATOM     25  C   UNL     1      15.410   3.896   0.661  0.00  0.00    +0.017 C 
ATOM     26  C   UNL     1      14.582   3.990  -0.617  0.00  0.00    +0.017 C 
ENDBRANCH  27  10
ENDBRANCH  29  27
ENDBRANCH  20  22
ENDBRANCH  16   7
TORSDOF 7
ENDMDL
MODEL 7
REMARK VINA RESULT:      -7.7      4.994     11.968
REMARK  Name = 11886156
REMARK  7 active torsions:
REMARK  status: ('A' for Active; 'I' for Inactive)
REMARK    1  A    between atoms: N_7  and  C_16
REMARK    2  A    between atoms: N_8  and  C_17
REMARK    3  A    between atoms: N_10  and  C_27
REMARK    4  A    between atoms: N_13  and  C_33
REMARK    5  A    between atoms: C_20  and  C_22
REMARK    6  A    between atoms: C_27  and  C_29
REMARK    7  A    between atoms: C_36  and  C_39
REMARK                            x       y       z     vdW  Elec       q    Type
REMARK                         _______ _______ _______ _____ _____    ______ ____
ROOT
ATOM      4  O   UNL     1      22.497   6.918  20.888  0.00  0.00    -0.370 OA
ATOM      5  O   UNL     1      20.696   5.587  23.097  0.00  0.00    -0.370 OA
ATOM     14  C   UNL     1      21.418   5.082  21.959  0.00  0.00    +0.176 C 
ATOM     15  C   UNL     1      21.303   6.119  20.859  0.00  0.00    +0.171 C 
ATOM     16  C   UNL     1      22.900   5.018  22.276  0.00  0.00    +0.168 C 
ATOM     17  C   UNL     1      20.104   6.951  21.253  0.00  0.00    +0.131 C 
ATOM     18  C   UNL     1      23.395   6.405  21.880  0.00  0.00    +0.190 C 
ATOM     19  C   UNL     1      20.135   6.866  22.768  0.00  0.00    +0.185 C 
ENDROOT
BRANCH  17   8
ATOM      6  O   UNL     1      17.671   8.361  20.711  0.00  0.00    -0.252 OA
ATOM      8  N   UNL     1      18.884   6.394  20.723  0.00  0.00    -0.292 N 
ATOM     13  N   UNL     1      16.713   6.349  19.973  0.00  0.00    -0.269 N 
ATOM     21  C   UNL     1      17.733   7.155  20.486  0.00  0.00    +0.304 C 
ATOM     40  H   UNL     1      18.833   5.389  20.577  0.00  0.00    +0.151 HD
ATOM     41  H   UNL     1      16.931   5.363  19.846  0.00  0.00    +0.156 HD
BRANCH  13  33
ATOM     33  C   UNL     1      15.404   6.735  19.605  0.00  0.00    +0.035 A 
ATOM     34  C   UNL     1      14.376   6.707  20.549  0.00  0.00    +0.035 A 
ATOM     35  C   UNL     1      15.139   7.146  18.298  0.00  0.00    +0.023 A 
ATOM     36  C   UNL     1      13.084   7.088  20.185  0.00  0.00    +0.057 A 
ATOM     37  C   UNL     1      13.848   7.527  17.934  0.00  0.00    +0.002 A 
ATOM     38  C   UNL     1      12.820   7.498  18.877  0.00  0.00    +0.012 A 
BRANCH  36  39
ATOM      1  F   UNL     1      12.263   7.768  22.326  0.00  0.00    -0.166 F 
ATOM      2  F   UNL     1      10.806   7.568  20.732  0.00  0.00    -0.166 F 
ATOM      3  F   UNL     1      11.697   5.793  21.616  0.00  0.00    -0.166 F 
ATOM     39  C   UNL     1      11.986   7.057  21.193  0.00  0.00    +0.417 C 
ENDBRANCH  36  39
ENDBRANCH  13  33
ENDBRANCH  17   8
BRANCH  16   7
ATOM      7  N   UNL     1      23.572   3.903  21.601  0.00  0.00    -0.217 N 
ATOM      9  N   UNL     1      23.813   3.945  20.283  0.00  0.00    -0.043 NA
ATOM     11  N   UNL     1      24.563   2.030  21.142  0.00  0.00    -0.108 NA
ATOM     12  N   UNL     1      24.420   2.798  20.009  0.00  0.00    -0.023 NA
ATOM     20  C   UNL     1      24.031   2.733  22.116  0.00  0.00    +0.182 A 
BRANCH  20  22
ATOM     22  C   UNL     1      23.935   2.358  23.504  0.00  0.00    +0.021 A 
ATOM     28  C   UNL     1      22.858   1.591  23.946  0.00  0.00    +0.016 A 
ATOM     29  C   UNL     1      22.766   1.228  25.290  0.00  0.00    -0.033 A 
ATOM     30  C   UNL     1      24.920   2.764  24.404  0.00  0.00    +0.011 A 
ATOM     31  C   UNL     1      23.752   1.633  26.191  0.00  0.00    +0.005 A 
ATOM     32  C   UNL     1      24.828   2.400  25.748  0.00  0.00    +0.001 A 
BRANCH  29  27
ATOM     27  C   UNL     1      21.616   0.405  25.763  0.00  0.00    +0.119 C 
BRANCH  27  10
ATOM     10  N   UNL     1      21.700  -0.976  25.313  0.00  0.00    -0.298 NA
ATOM     23  C   UNL     1      22.547  -1.795  26.179  0.00  0.00    +0.085 C 
ATOM     24  C   UNL     1      20.399  -1.644  25.314  0.00  0.00    +0.085 C 
ATOM     25  C   UNL     1      22.182  -3.214  25.772  0.00  0.00    +0.017 C 
ATOM     26  C   UNL     1      20.770  -3.114  25.200  0.00  0.00    +0.017 C 
ENDBRANCH  27  10
ENDBRANCH  29  27
ENDBRANCH  20  22
ENDBRANCH  16   7
TORSDOF 7
ENDMDL
MODEL 8
REMARK VINA RESULT:      -7.6      2.599      5.139
REMARK  Name = 11886156
REMARK  7 active torsions:
REMARK  status: ('A' for Active; 'I' for Inactive)
REMARK    1  A    between atoms: N_7  and  C_16
REMARK    2  A    between atoms: N_8  and  C_17
REMARK    3  A    between atoms: N_10  and  C_27
REMARK    4  A    between atoms: N_13  and  C_33
REMARK    5  A    between atoms: C_20  and  C_22
REMARK    6  A    between atoms: C_27  and  C_29
REMARK    7  A    between atoms: C_36  and  C_39
REMARK                            x       y       z     vdW  Elec       q    Type
REMARK                         _______ _______ _______ _____ _____    ______ ____
ROOT
ATOM      4  O   UNL     1      15.777  12.421  22.556  0.00  0.00    -0.370 OA
ATOM      5  O   UNL     1      15.609  10.358  20.188  0.00  0.00    -0.370 OA
ATOM     14  C   UNL     1      14.901  10.509  21.432  0.00  0.00    +0.176 C 
ATOM     15  C   UNL     1      15.904  10.993  22.462  0.00  0.00    +0.171 C 
ATOM     16  C   UNL     1      13.893  11.637  21.317  0.00  0.00    +0.168 C 
ATOM     17  C   UNL     1      17.248  10.624  21.878  0.00  0.00    +0.131 C 
ATOM     18  C   UNL     1      14.705  12.865  21.714  0.00  0.00    +0.190 C 
ATOM     19  C   UNL     1      16.987  10.708  20.386  0.00  0.00    +0.185 C 
ENDROOT
BRANCH  17   8
ATOM      6  O   UNL     1      19.921   9.621  22.121  0.00  0.00    -0.252 OA
ATOM      8  N   UNL     1      17.637   9.289  22.265  0.00  0.00    -0.292 N 
ATOM     13  N   UNL     1      19.042   7.539  22.757  0.00  0.00    -0.269 N 
ATOM     21  C   UNL     1      18.972   8.877  22.360  0.00  0.00    +0.304 C 
ATOM     40  H   UNL     1      16.910   8.595  22.411  0.00  0.00    +0.151 HD
ATOM     41  H   UNL     1      18.156   7.064  22.916  0.00  0.00    +0.156 HD
BRANCH  13  33
ATOM     33  C   UNL     1      20.200   6.755  22.966  0.00  0.00    +0.035 A 
ATOM     34  C   UNL     1      20.556   5.775  22.039  0.00  0.00    +0.035 A 
ATOM     35  C   UNL     1      20.986   6.962  24.100  0.00  0.00    +0.023 A 
ATOM     36  C   UNL     1      21.699   5.002  22.247  0.00  0.00    +0.057 A 
ATOM     37  C   UNL     1      22.128   6.190  24.307  0.00  0.00    +0.002 A 
ATOM     38  C   UNL     1      22.485   5.209  23.381  0.00  0.00    +0.012 A 
BRANCH  36  39
ATOM      1  F   UNL     1      22.786   4.438  20.193  0.00  0.00    -0.166 F 
ATOM      2  F   UNL     1      22.861   2.964  21.782  0.00  0.00    -0.166 F 
ATOM      3  F   UNL     1      20.997   3.320  20.720  0.00  0.00    -0.166 F 
ATOM     39  C   UNL     1      22.080   3.954  21.257  0.00  0.00    +0.417 C 
ENDBRANCH  36  39
ENDBRANCH  13  33
ENDBRANCH  17   8
BRANCH  16   7
ATOM      7  N   UNL     1      12.691  11.401  22.121  0.00  0.00    -0.217 N 
ATOM      9  N   UNL     1      12.268  12.313  23.008  0.00  0.00    -0.043 NA
ATOM     11  N   UNL     1      10.907  10.548  23.013  0.00  0.00    -0.108 NA
ATOM     12  N   UNL     1      11.178  11.787  23.549  0.00  0.00    -0.023 NA
ATOM     20  C   UNL     1      11.856  10.329  22.131  0.00  0.00    +0.182 A 
BRANCH  20  22
ATOM     22  C   UNL     1      12.014   9.163  21.300  0.00  0.00    +0.021 A 
ATOM     28  C   UNL     1      11.886   9.270  19.916  0.00  0.00    +0.016 A 
ATOM     29  C   UNL     1      12.040   8.141  19.111  0.00  0.00    -0.033 A 
ATOM     30  C   UNL     1      12.296   7.926  21.881  0.00  0.00    +0.011 A 
ATOM     31  C   UNL     1      12.322   6.904  19.692  0.00  0.00    +0.005 A 
ATOM     32  C   UNL     1      12.450   6.797  21.076  0.00  0.00    +0.001 A 
BRANCH  29  27
ATOM     27  C   UNL     1      11.905   8.256  17.631  0.00  0.00    +0.119 C 
BRANCH  27  10
ATOM     10  N   UNL     1      12.639   9.393  17.094  0.00  0.00    -0.298 NA
ATOM     23  C   UNL     1      14.086   9.236  17.227  0.00  0.00    +0.085 C 
ATOM     24  C   UNL     1      12.408   9.580  15.662  0.00  0.00    +0.085 C 
ATOM     25  C   UNL     1      14.634  10.297  16.284  0.00  0.00    +0.017 C 
ATOM     26  C   UNL     1      13.528  10.526  15.258  0.00  0.00    +0.017 C 
ENDBRANCH  27  10
ENDBRANCH  29  27
ENDBRANCH  20  22
ENDBRANCH  16   7
TORSDOF 7
ENDMDL
MODEL 9
REMARK VINA RESULT:      -7.6     30.087     32.774
REMARK  Name = 11886156
REMARK  7 active torsions:
REMARK  status: ('A' for Active; 'I' for Inactive)
REMARK    1  A    between atoms: N_7  and  C_16
REMARK    2  A    between atoms: N_8  and  C_17
REMARK    3  A    between atoms: N_10  and  C_27
REMARK    4  A    between atoms: N_13  and  C_33
REMARK    5  A    between atoms: C_20  and  C_22
REMARK    6  A    between atoms: C_27  and  C_29
REMARK    7  A    between atoms: C_36  and  C_39
REMARK                            x       y       z     vdW  Elec       q    Type
REMARK                         _______ _______ _______ _____ _____    ______ ____
ROOT
ATOM      4  O   UNL     1      -4.739 -14.662   3.845  0.00  0.00    -0.370 OA
ATOM      5  O   UNL     1      -2.756 -12.896   5.531  0.00  0.00    -0.370 OA
ATOM     14  C   UNL     1      -3.720 -12.609   4.501  0.00  0.00    +0.176 C 
ATOM     15  C   UNL     1      -3.673 -13.757   3.512  0.00  0.00    +0.171 C 
ATOM     16  C   UNL     1      -5.121 -12.655   5.080  0.00  0.00    +0.168 C 
ATOM     17  C   UNL     1      -2.333 -14.411   3.759  0.00  0.00    +0.131 C 
ATOM     18  C   UNL     1      -5.506 -14.122   4.929  0.00  0.00    +0.190 C 
ATOM     19  C   UNL     1      -2.111 -14.143   5.236  0.00  0.00    +0.185 C 
ENDROOT
BRANCH  17   8
ATOM      6  O   UNL     1      -0.872 -15.646   1.627  0.00  0.00    -0.252 OA
ATOM      8  N   UNL     1      -1.299 -13.804   2.957  0.00  0.00    -0.292 N 
ATOM     13  N   UNL     1       0.314 -13.641   1.330  0.00  0.00    -0.269 N 
ATOM     21  C   UNL     1      -0.631 -14.479   1.929  0.00  0.00    +0.304 C 
ATOM     40  H   UNL     1      -0.993 -12.863   3.191  0.00  0.00    +0.151 HD
ATOM     41  H   UNL     1       0.387 -12.698   1.702  0.00  0.00    +0.156 HD
BRANCH  13  33
ATOM     33  C   UNL     1       1.188 -13.945   0.261  0.00  0.00    +0.035 A 
ATOM     34  C   UNL     1       2.537 -14.199   0.513  0.00  0.00    +0.035 A 
ATOM     35  C   UNL     1       0.702 -13.990  -1.046  0.00  0.00    +0.023 A 
ATOM     36  C   UNL     1       3.400 -14.498  -0.542  0.00  0.00    +0.057 A 
ATOM     37  C   UNL     1       1.564 -14.289  -2.101  0.00  0.00    +0.002 A 
ATOM     38  C   UNL     1       2.913 -14.542  -1.849  0.00  0.00    +0.012 A 
BRANCH  36  39
ATOM      1  F   UNL     1       5.102 -15.100   1.026  0.00  0.00    -0.166 F 
ATOM      2  F   UNL     1       5.351 -15.799  -1.012  0.00  0.00    -0.166 F 
ATOM      3  F   UNL     1       5.637 -13.695  -0.544  0.00  0.00    -0.166 F 
ATOM     39  C   UNL     1       4.841 -14.769  -0.273  0.00  0.00    +0.417 C 
ENDBRANCH  36  39
ENDBRANCH  13  33
ENDBRANCH  17   8
BRANCH  16   7
ATOM      7  N   UNL     1      -6.029 -11.704   4.431  0.00  0.00    -0.217 N 
ATOM      9  N   UNL     1      -6.266 -11.773   3.113  0.00  0.00    -0.043 NA
ATOM     11  N   UNL     1      -7.415 -10.089   4.015  0.00  0.00    -0.108 NA
ATOM     12  N   UNL     1      -7.114 -10.784   2.865  0.00  0.00    -0.023 NA
ATOM     20  C   UNL     1      -6.732 -10.676   4.972  0.00  0.00    +0.182 A 
BRANCH  20  22
ATOM     22  C   UNL     1      -6.711 -10.316   6.367  0.00  0.00    +0.021 A 
ATOM     28  C   UNL     1      -5.502 -10.006   6.989  0.00  0.00    +0.016 A 
ATOM     29  C   UNL     1      -5.482  -9.657   8.339  0.00  0.00    -0.033 A 
ATOM     30  C   UNL     1      -7.900 -10.279   7.095  0.00  0.00    +0.011 A 
ATOM     31  C   UNL     1      -6.672  -9.619   9.067  0.00  0.00    +0.005 A 
ATOM     32  C   UNL     1      -7.880  -9.930   8.445  0.00  0.00    +0.001 A 
BRANCH  29  27
ATOM     27  C   UNL     1      -4.190  -9.324   9.004  0.00  0.00    +0.119 C 
BRANCH  27  10
ATOM     10  N   UNL     1      -3.965 -10.115  10.205  0.00  0.00    -0.298 NA
ATOM     23  C   UNL     1      -3.863 -11.545   9.921  0.00  0.00    +0.085 C 
ATOM     24  C   UNL     1      -2.709  -9.770  10.873  0.00  0.00    +0.085 C 
ATOM     25  C   UNL     1      -3.255 -12.105  11.197  0.00  0.00    +0.017 C 
ATOM     26  C   UNL     1      -2.500 -10.937  11.825  0.00  0.00    +0.017 C 
ENDBRANCH  27  10
ENDBRANCH  29  27
ENDBRANCH  20  22
ENDBRANCH  16   7
TORSDOF 7
ENDMDL
MODEL 10
REMARK VINA RESULT:      -7.4     29.450     31.448
REMARK  Name = 11886156
REMARK  7 active torsions:
REMARK  status: ('A' for Active; 'I' for Inactive)
REMARK    1  A    between atoms: N_7  and  C_16
REMARK    2  A    between atoms: N_8  and  C_17
REMARK    3  A    between atoms: N_10  and  C_27
REMARK    4  A    between atoms: N_13  and  C_33
REMARK    5  A    between atoms: C_20  and  C_22
REMARK    6  A    between atoms: C_27  and  C_29
REMARK    7  A    between atoms: C_36  and  C_39
REMARK                            x       y       z     vdW  Elec       q    Type
REMARK                         _______ _______ _______ _____ _____    ______ ____
ROOT
ATOM      4  O   UNL     1      -2.157 -13.174  12.269  0.00  0.00    -0.370 OA
ATOM      5  O   UNL     1      -3.595 -10.567  13.285  0.00  0.00    -0.370 OA
ATOM     14  C   UNL     1      -3.899 -11.972  13.366  0.00  0.00    +0.176 C 
ATOM     15  C   UNL     1      -3.459 -12.601  12.060  0.00  0.00    +0.171 C 
ATOM     16  C   UNL     1      -3.029 -12.627  14.423  0.00  0.00    +0.168 C 
ATOM     17  C   UNL     1      -3.373 -11.441  11.095  0.00  0.00    +0.131 C 
ATOM     18  C   UNL     1      -1.779 -13.018  13.643  0.00  0.00    +0.190 C 
ATOM     19  C   UNL     1      -3.003 -10.288  12.008  0.00  0.00    +0.185 C 
ENDROOT
BRANCH  17   8
ATOM      6  O   UNL     1      -3.964  -9.391   9.183  0.00  0.00    -0.252 OA
ATOM      8  N   UNL     1      -4.639 -11.207  10.444  0.00  0.00    -0.292 N 
ATOM     13  N   UNL     1      -6.166 -10.197   9.056  0.00  0.00    -0.269 N 
ATOM     21  C   UNL     1      -4.847 -10.178   9.518  0.00  0.00    +0.304 C 
ATOM     40  H   UNL     1      -5.438 -11.772  10.721  0.00  0.00    +0.151 HD
ATOM     41  H   UNL     1      -6.772 -10.921   9.437  0.00  0.00    +0.156 HD
BRANCH  13  33
ATOM     33  C   UNL     1      -6.770  -9.328   8.118  0.00  0.00    +0.035 A 
ATOM     34  C   UNL     1      -7.544  -8.254   8.559  0.00  0.00    +0.035 A 
ATOM     35  C   UNL     1      -6.590  -9.545   6.752  0.00  0.00    +0.023 A 
ATOM     36  C   UNL     1      -8.139  -7.398   7.633  0.00  0.00    +0.057 A 
ATOM     37  C   UNL     1      -7.186  -8.688   5.826  0.00  0.00    +0.002 A 
ATOM     38  C   UNL     1      -7.961  -7.615   6.266  0.00  0.00    +0.012 A 
BRANCH  36  39
ATOM      1  F   UNL     1      -9.865  -5.806   7.175  0.00  0.00    -0.166 F 
ATOM      2  F   UNL     1      -9.712  -6.532   9.213  0.00  0.00    -0.166 F 
ATOM      3  F   UNL     1      -8.215  -5.161   8.435  0.00  0.00    -0.166 F 
ATOM     39  C   UNL     1      -8.967  -6.250   8.104  0.00  0.00    +0.417 C 
ENDBRANCH  36  39
ENDBRANCH  13  33
ENDBRANCH  17   8
BRANCH  16   7
ATOM      7  N   UNL     1      -3.709 -13.733  15.103  0.00  0.00    -0.217 N 
ATOM      9  N   UNL     1      -3.384 -15.006  14.835  0.00  0.00    -0.043 NA
ATOM     11  N   UNL     1      -5.002 -14.931  16.366  0.00  0.00    -0.108 NA
ATOM     12  N   UNL     1      -4.177 -15.733  15.610  0.00  0.00    -0.023 NA
ATOM     20  C   UNL     1      -4.695 -13.697  16.036  0.00  0.00    +0.182 A 
BRANCH  20  22
ATOM     22  C   UNL     1      -5.284 -12.489  16.556  0.00  0.00    +0.021 A 
ATOM     28  C   UNL     1      -6.438 -11.968  15.973  0.00  0.00    +0.016 A 
ATOM     29  C   UNL     1      -7.008 -10.799  16.477  0.00  0.00    -0.033 A 
ATOM     30  C   UNL     1      -4.698 -11.841  17.644  0.00  0.00    +0.011 A 
ATOM     31  C   UNL     1      -6.422 -10.151  17.565  0.00  0.00    +0.005 A 
ATOM     32  C   UNL     1      -5.268 -10.672  18.148  0.00  0.00    +0.001 A 
BRANCH  29  27
ATOM     27  C   UNL     1      -8.243 -10.243  15.855  0.00  0.00    +0.119 C 
BRANCH  27  10
ATOM     10  N   UNL     1      -8.980  -9.377  16.764  0.00  0.00    -0.298 NA
ATOM     23  C   UNL     1      -9.417  -8.137  16.123  0.00  0.00    +0.085 C 
ATOM     24  C   UNL     1     -10.207 -10.002  17.257  0.00  0.00    +0.085 C 
ATOM     25  C   UNL     1     -10.460  -7.601  17.092  0.00  0.00    +0.017 C 
ATOM     26  C   UNL     1     -10.976  -8.826  17.840  0.00  0.00    +0.017 C 
ENDBRANCH  27  10
ENDBRANCH  29  27
ENDBRANCH  20  22
ENDBRANCH  16   7
TORSDOF 7
ENDMDL
