MODEL 1
REMARK VINA RESULT:      -6.8      0.000      0.000
REMARK  Name = 7143045
REMARK  5 active torsions:
REMARK  status: ('A' for Active; 'I' for Inactive)
REMARK    1  A    between atoms: O_3  and  C_26
REMARK    2  A    between atoms: O_3  and  C_29
REMARK    3  A    between atoms: N_7  and  C_19
REMARK    4  A    between atoms: N_8  and  C_21
REMARK    5  A    between atoms: C_18  and  C_26
REMARK                            x       y       z     vdW  Elec       q    Type
REMARK                         _______ _______ _______ _____ _____    ______ ____
ROOT
ATOM      1  O   UNL     1      14.337   7.660   5.060  0.00  0.00    -0.266 OA
ATOM      2  O   UNL     1      10.427   4.088   4.270  0.00  0.00    -0.272 OA
ATOM      5  N   UNL     1      10.162   5.922   2.871  0.00  0.00    -0.298 N 
ATOM      6  N   UNL     1      12.682   7.814   3.418  0.00  0.00    -0.310 N 
ATOM      9  C   UNL     1      10.208   8.164   3.973  0.00  0.00    +0.027 C 
ATOM     10  C   UNL     1      10.914   7.944   1.628  0.00  0.00    +0.054 C 
ATOM     11  C   UNL     1      10.138   8.827   2.603  0.00  0.00    +0.018 C 
ATOM     12  C   UNL     1       9.584   6.759   3.924  0.00  0.00    +0.113 C 
ATOM     13  C   UNL     1      11.670   8.130   4.434  0.00  0.00    +0.130 C 
ATOM     14  C   UNL     1      10.247   6.557   1.546  0.00  0.00    +0.117 C 
ATOM     15  C   UNL     1      12.361   7.796   2.057  0.00  0.00    +0.027 A 
ATOM     16  C   UNL     1      13.324   7.620   1.138  0.00  0.00    +0.024 A 
ATOM     17  C   UNL     1      14.004   7.635   3.875  0.00  0.00    +0.273 A 
ATOM     18  C   UNL     1      10.505   4.600   3.151  0.00  0.00    +0.253 C 
ATOM     19  C   UNL     1      15.044   7.416   2.820  0.00  0.00    +0.100 A 
ATOM     20  C   UNL     1      14.692   7.425   1.529  0.00  0.00    +0.030 A 
ENDROOT
BRANCH  19   7
ATOM      4  O   UNL     1      17.048   9.438   3.102  0.00  0.00    -0.252 OA
ATOM      7  N   UNL     1      16.333   7.226   3.222  0.00  0.00    -0.265 N 
ATOM      8  N   UNL     1      18.500   7.758   3.772  0.00  0.00    -0.296 N 
ATOM     28  C   UNL     1      17.271   8.252   3.341  0.00  0.00    +0.304 C 
ATOM     35  H   UNL     1      16.688   6.274   3.198  0.00  0.00    +0.157 HD
ATOM     36  H   UNL     1      18.602   6.753   3.877  0.00  0.00    +0.151 HD
BRANCH   8  21
ATOM     21  C   UNL     1      19.655   8.602   3.982  0.00  0.00    +0.074 C 
ATOM     22  C   UNL     1      20.954   7.791   3.892  0.00  0.00    +0.022 C 
ATOM     23  C   UNL     1      19.558   9.346   5.319  0.00  0.00    +0.022 C 
ATOM     24  C   UNL     1      21.153   6.869   5.095  0.00  0.00    +0.002 C 
ATOM     25  C   UNL     1      19.760   8.422   6.520  0.00  0.00    +0.002 C 
ATOM     27  C   UNL     1      21.062   7.635   6.412  0.00  0.00    +0.000 C 
ENDBRANCH   8  21
ENDBRANCH  19   7
BRANCH  18  26
ATOM     26  C   UNL     1      11.006   3.772   1.995  0.00  0.00    +0.324 C 
BRANCH  26   3
ATOM      3  O   UNL     1      12.347   3.455   2.279  0.00  0.00    -0.483 OA
BRANCH   3  29
ATOM     29  C   UNL     1      13.278   3.705   1.295  0.00  0.00    +0.121 A 
ATOM     30  C   UNL     1      14.640   3.631   1.587  0.00  0.00    +0.045 A 
ATOM     31  C   UNL     1      12.858   4.031   0.005  0.00  0.00    +0.045 A 
ATOM     32  C   UNL     1      15.582   3.884   0.591  0.00  0.00    +0.004 A 
ATOM     33  C   UNL     1      13.801   4.285  -0.992  0.00  0.00    +0.004 A 
ATOM     34  C   UNL     1      15.162   4.212  -0.699  0.00  0.00    +0.000 A 
ENDBRANCH   3  29
ENDBRANCH  26   3
ENDBRANCH  18  26
TORSDOF 5
ENDMDL
MODEL 2
REMARK VINA RESULT:      -6.7     15.510     18.495
REMARK  Name = 7143045
REMARK  5 active torsions:
REMARK  status: ('A' for Active; 'I' for Inactive)
REMARK    1  A    between atoms: O_3  and  C_26
REMARK    2  A    between atoms: O_3  and  C_29
REMARK    3  A    between atoms: N_7  and  C_19
REMARK    4  A    between atoms: N_8  and  C_21
REMARK    5  A    between atoms: C_18  and  C_26
REMARK                            x       y       z     vdW  Elec       q    Type
REMARK                         _______ _______ _______ _____ _____    ______ ____
ROOT
ATOM      1  O   UNL     1      15.698   6.115  19.285  0.00  0.00    -0.266 OA
ATOM      2  O   UNL     1      14.855  10.680  16.616  0.00  0.00    -0.272 OA
ATOM      5  N   UNL     1      13.220  10.356  18.234  0.00  0.00    -0.298 N 
ATOM      6  N   UNL     1      14.030   7.674  19.776  0.00  0.00    -0.310 N 
ATOM      9  C   UNL     1      12.064   8.141  18.204  0.00  0.00    +0.027 C 
ATOM     10  C   UNL     1      12.261   9.386  20.316  0.00  0.00    +0.054 C 
ATOM     11  C   UNL     1      11.318   8.525  19.475  0.00  0.00    +0.018 C 
ATOM     12  C   UNL     1      12.471   9.399  17.417  0.00  0.00    +0.113 C 
ATOM     13  C   UNL     1      13.275   7.279  18.579  0.00  0.00    +0.130 C 
ATOM     14  C   UNL     1      12.618  10.668  19.539  0.00  0.00    +0.117 C 
ATOM     15  C   UNL     1      13.526   8.627  20.667  0.00  0.00    +0.027 A 
ATOM     16  C   UNL     1      14.175   8.889  21.814  0.00  0.00    +0.024 A 
ATOM     17  C   UNL     1      15.226   6.973  20.031  0.00  0.00    +0.273 A 
ATOM     18  C   UNL     1      14.366  10.957  17.714  0.00  0.00    +0.253 C 
ATOM     19  C   UNL     1      15.932   7.312  21.307  0.00  0.00    +0.100 A 
ATOM     20  C   UNL     1      15.403   8.217  22.137  0.00  0.00    +0.030 A 
ENDROOT
BRANCH  19   7
ATOM      4  O   UNL     1      18.556   8.146  20.531  0.00  0.00    -0.252 OA
ATOM      7  N   UNL     1      17.100   6.665  21.584  0.00  0.00    -0.265 N 
ATOM      8  N   UNL     1      19.361   6.254  21.605  0.00  0.00    -0.296 N 
ATOM     28  C   UNL     1      18.355   7.118  21.178  0.00  0.00    +0.304 C 
ATOM     35  H   UNL     1      17.031   5.696  21.882  0.00  0.00    +0.157 HD
ATOM     36  H   UNL     1      19.087   5.396  22.075  0.00  0.00    +0.151 HD
BRANCH   8  21
ATOM     21  C   UNL     1      20.762   6.480  21.326  0.00  0.00    +0.074 C 
ATOM     22  C   UNL     1      21.348   5.337  20.488  0.00  0.00    +0.022 C 
ATOM     23  C   UNL     1      21.556   6.683  22.620  0.00  0.00    +0.022 C 
ATOM     24  C   UNL     1      21.505   4.045  21.291  0.00  0.00    +0.002 C 
ATOM     25  C   UNL     1      21.714   5.389  23.419  0.00  0.00    +0.002 C 
ATOM     27  C   UNL     1      22.309   4.271  22.568  0.00  0.00    +0.000 C 
ENDBRANCH   8  21
ENDBRANCH  19   7
BRANCH  18  26
ATOM     26  C   UNL     1      15.031  12.001  18.575  0.00  0.00    +0.324 C 
BRANCH  26   3
ATOM      3  O   UNL     1      16.102  11.363  19.226  0.00  0.00    -0.483 OA
BRANCH   3  29
ATOM     29  C   UNL     1      16.283  11.637  20.563  0.00  0.00    +0.121 A 
ATOM     30  C   UNL     1      15.302  12.329  21.273  0.00  0.00    +0.045 A 
ATOM     31  C   UNL     1      17.449  11.223  21.209  0.00  0.00    +0.045 A 
ATOM     32  C   UNL     1      15.485  12.607  22.628  0.00  0.00    +0.004 A 
ATOM     33  C   UNL     1      17.632  11.501  22.564  0.00  0.00    +0.004 A 
ATOM     34  C   UNL     1      16.650  12.193  23.273  0.00  0.00    +0.000 A 
ENDBRANCH   3  29
ENDBRANCH  26   3
ENDBRANCH  18  26
TORSDOF 5
ENDMDL
MODEL 3
REMARK VINA RESULT:      -6.6      1.927      2.703
REMARK  Name = 7143045
REMARK  5 active torsions:
REMARK  status: ('A' for Active; 'I' for Inactive)
REMARK    1  A    between atoms: O_3  and  C_26
REMARK    2  A    between atoms: O_3  and  C_29
REMARK    3  A    between atoms: N_7  and  C_19
REMARK    4  A    between atoms: N_8  and  C_21
REMARK    5  A    between atoms: C_18  and  C_26
REMARK                            x       y       z     vdW  Elec       q    Type
REMARK                         _______ _______ _______ _____ _____    ______ ____
ROOT
ATOM      1  O   UNL     1      14.079   6.597   7.321  0.00  0.00    -0.266 OA
ATOM      2  O   UNL     1      10.357   3.596   4.908  0.00  0.00    -0.272 OA
ATOM      5  N   UNL     1       9.627   5.790   5.137  0.00  0.00    -0.298 N 
ATOM      6  N   UNL     1      12.064   7.393   6.447  0.00  0.00    -0.310 N 
ATOM      9  C   UNL     1       9.784   6.769   7.430  0.00  0.00    +0.027 C 
ATOM     10  C   UNL     1       9.904   8.242   5.464  0.00  0.00    +0.054 C 
ATOM     11  C   UNL     1       9.332   8.114   6.875  0.00  0.00    +0.018 C 
ATOM     12  C   UNL     1       9.268   5.620   6.546  0.00  0.00    +0.113 C 
ATOM     13  C   UNL     1      11.313   6.768   7.543  0.00  0.00    +0.130 C 
ATOM     14  C   UNL     1       9.338   7.118   4.574  0.00  0.00    +0.117 C 
ATOM     15  C   UNL     1      11.420   8.172   5.480  0.00  0.00    +0.027 A 
ATOM     16  C   UNL     1      12.137   8.830   4.555  0.00  0.00    +0.024 A 
ATOM     17  C   UNL     1      13.466   7.256   6.480  0.00  0.00    +0.273 A 
ATOM     18  C   UNL     1      10.121   4.703   4.416  0.00  0.00    +0.253 C 
ATOM     19  C   UNL     1      14.228   7.986   5.417  0.00  0.00    +0.100 A 
ATOM     20  C   UNL     1      13.569   8.733   4.524  0.00  0.00    +0.030 A 
ENDROOT
BRANCH  19   7
ATOM      4  O   UNL     1      16.105   9.926   6.363  0.00  0.00    -0.252 OA
ATOM      7  N   UNL     1      15.586   7.867   5.407  0.00  0.00    -0.265 N 
ATOM      8  N   UNL     1      17.784   8.449   5.743  0.00  0.00    -0.296 N 
ATOM     28  C   UNL     1      16.456   8.848   5.882  0.00  0.00    +0.304 C 
ATOM     35  H   UNL     1      15.982   7.146   4.810  0.00  0.00    +0.157 HD
ATOM     36  H   UNL     1      17.972   7.570   5.272  0.00  0.00    +0.151 HD
BRANCH   8  21
ATOM     21  C   UNL     1      18.899   9.273   6.156  0.00  0.00    +0.074 C 
ATOM     22  C   UNL     1      19.561   9.948   4.949  0.00  0.00    +0.022 C 
ATOM     23  C   UNL     1      19.916   8.459   6.963  0.00  0.00    +0.022 C 
ATOM     24  C   UNL     1      20.345   8.962   4.084  0.00  0.00    +0.002 C 
ATOM     25  C   UNL     1      20.700   7.475   6.095  0.00  0.00    +0.002 C 
ATOM     27  C   UNL     1      21.358   8.172   4.908  0.00  0.00    +0.000 C 
ENDBRANCH   8  21
ENDBRANCH  19   7
BRANCH  18  26
ATOM     26  C   UNL     1      10.379   4.927   2.948  0.00  0.00    +0.324 C 
BRANCH  26   3
ATOM      3  O   UNL     1      11.218   3.881   2.523  0.00  0.00    -0.483 OA
BRANCH   3  29
ATOM     29  C   UNL     1      12.480   4.221   2.088  0.00  0.00    +0.121 A 
ATOM     30  C   UNL     1      12.900   5.550   2.131  0.00  0.00    +0.045 A 
ATOM     31  C   UNL     1      13.339   3.234   1.602  0.00  0.00    +0.045 A 
ATOM     32  C   UNL     1      14.178   5.894   1.690  0.00  0.00    +0.004 A 
ATOM     33  C   UNL     1      14.617   3.578   1.160  0.00  0.00    +0.004 A 
ATOM     34  C   UNL     1      15.036   4.907   1.204  0.00  0.00    +0.000 A 
ENDBRANCH   3  29
ENDBRANCH  26   3
ENDBRANCH  18  26
TORSDOF 5
ENDMDL
MODEL 4
REMARK VINA RESULT:      -6.6      1.455      1.901
REMARK  Name = 7143045
REMARK  5 active torsions:
REMARK  status: ('A' for Active; 'I' for Inactive)
REMARK    1  A    between atoms: O_3  and  C_26
REMARK    2  A    between atoms: O_3  and  C_29
REMARK    3  A    between atoms: N_7  and  C_19
REMARK    4  A    between atoms: N_8  and  C_21
REMARK    5  A    between atoms: C_18  and  C_26
REMARK                            x       y       z     vdW  Elec       q    Type
REMARK                         _______ _______ _______ _____ _____    ______ ____
ROOT
ATOM      1  O   UNL     1      14.434   6.936   6.643  0.00  0.00    -0.266 OA
ATOM      2  O   UNL     1      10.168   3.955   5.386  0.00  0.00    -0.272 OA
ATOM      5  N   UNL     1       9.733   6.209   5.028  0.00  0.00    -0.298 N 
ATOM      6  N   UNL     1      12.458   7.744   5.695  0.00  0.00    -0.310 N 
ATOM      9  C   UNL     1      10.221   7.741   6.940  0.00  0.00    +0.027 C 
ATOM     10  C   UNL     1      10.334   8.592   4.635  0.00  0.00    +0.054 C 
ATOM     11  C   UNL     1       9.885   8.935   6.055  0.00  0.00    +0.018 C 
ATOM     12  C   UNL     1       9.490   6.481   6.446  0.00  0.00    +0.113 C 
ATOM     13  C   UNL     1      11.743   7.553   6.963  0.00  0.00    +0.130 C 
ATOM     14  C   UNL     1       9.556   7.361   4.131  0.00  0.00    +0.117 C 
ATOM     15  C   UNL     1      11.825   8.314   4.586  0.00  0.00    +0.027 A 
ATOM     16  C   UNL     1      12.527   8.588   3.474  0.00  0.00    +0.024 A 
ATOM     17  C   UNL     1      13.830   7.423   5.687  0.00  0.00    +0.273 A 
ATOM     18  C   UNL     1      10.022   4.908   4.616  0.00  0.00    +0.253 C 
ATOM     19  C   UNL     1      14.571   7.720   4.420  0.00  0.00    +0.100 A 
ATOM     20  C   UNL     1      13.928   8.282   3.391  0.00  0.00    +0.030 A 
ENDROOT
BRANCH  19   7
ATOM      4  O   UNL     1      16.733   9.573   4.139  0.00  0.00    -0.252 OA
ATOM      7  N   UNL     1      15.899   7.411   4.367  0.00  0.00    -0.265 N 
ATOM      8  N   UNL     1      18.166   7.751   4.206  0.00  0.00    -0.296 N 
ATOM     28  C   UNL     1      16.913   8.359   4.229  0.00  0.00    +0.304 C 
ATOM     35  H   UNL     1      16.140   6.443   4.177  0.00  0.00    +0.157 HD
ATOM     36  H   UNL     1      18.205   6.736   4.218  0.00  0.00    +0.151 HD
BRANCH   8  21
ATOM     21  C   UNL     1      19.398   8.495   4.072  0.00  0.00    +0.074 C 
ATOM     22  C   UNL     1      20.518   7.611   3.510  0.00  0.00    +0.022 C 
ATOM     23  C   UNL     1      19.808   9.127   5.407  0.00  0.00    +0.022 C 
ATOM     24  C   UNL     1      21.013   6.578   4.524  0.00  0.00    +0.002 C 
ATOM     25  C   UNL     1      20.304   8.093   6.417  0.00  0.00    +0.002 C 
ATOM     27  C   UNL     1      21.424   7.234   5.839  0.00  0.00    +0.000 C 
ENDBRANCH   8  21
ENDBRANCH  19   7
BRANCH  18  26
ATOM     26  C   UNL     1      10.167   4.686   3.132  0.00  0.00    +0.324 C 
BRANCH  26   3
ATOM      3  O   UNL     1      11.234   3.785   2.963  0.00  0.00    -0.483 OA
BRANCH   3  29
ATOM     29  C   UNL     1      12.230   4.143   2.082  0.00  0.00    +0.121 A 
ATOM     30  C   UNL     1      13.205   3.216   1.714  0.00  0.00    +0.045 A 
ATOM     31  C   UNL     1      12.265   5.435   1.556  0.00  0.00    +0.045 A 
ATOM     32  C   UNL     1      14.214   3.578   0.822  0.00  0.00    +0.004 A 
ATOM     33  C   UNL     1      13.274   5.799   0.664  0.00  0.00    +0.004 A 
ATOM     34  C   UNL     1      14.248   4.871   0.297  0.00  0.00    +0.000 A 
ENDBRANCH   3  29
ENDBRANCH  26   3
ENDBRANCH  18  26
TORSDOF 5
ENDMDL
MODEL 5
REMARK VINA RESULT:      -6.5     17.549     19.550
REMARK  Name = 7143045
REMARK  5 active torsions:
REMARK  status: ('A' for Active; 'I' for Inactive)
REMARK    1  A    between atoms: O_3  and  C_26
REMARK    2  A    between atoms: O_3  and  C_29
REMARK    3  A    between atoms: N_7  and  C_19
REMARK    4  A    between atoms: N_8  and  C_21
REMARK    5  A    between atoms: C_18  and  C_26
REMARK                            x       y       z     vdW  Elec       q    Type
REMARK                         _______ _______ _______ _____ _____    ______ ____
ROOT
ATOM      1  O   UNL     1      16.272  11.381  23.704  0.00  0.00    -0.266 OA
ATOM      2  O   UNL     1      11.044  11.143  24.836  0.00  0.00    -0.272 OA
ATOM      5  N   UNL     1      11.407  12.310  22.861  0.00  0.00    -0.298 N 
ATOM      6  N   UNL     1      14.558  12.175  22.330  0.00  0.00    -0.310 N 
ATOM      9  C   UNL     1      13.078  14.164  22.969  0.00  0.00    +0.027 C 
ATOM     10  C   UNL     1      12.694  12.990  20.842  0.00  0.00    +0.054 C 
ATOM     11  C   UNL     1      12.937  14.364  21.465  0.00  0.00    +0.018 C 
ATOM     12  C   UNL     1      11.799  13.540  23.552  0.00  0.00    +0.113 C 
ATOM     13  C   UNL     1      14.316  13.301  23.241  0.00  0.00    +0.130 C 
ATOM     14  C   UNL     1      11.382  12.399  21.393  0.00  0.00    +0.117 C 
ATOM     15  C   UNL     1      13.847  12.047  21.132  0.00  0.00    +0.027 A 
ATOM     16  C   UNL     1      14.163  11.077  20.259  0.00  0.00    +0.024 A 
ATOM     17  C   UNL     1      15.607  11.298  22.671  0.00  0.00    +0.273 A 
ATOM     18  C   UNL     1      11.014  11.197  23.604  0.00  0.00    +0.253 C 
ATOM     19  C   UNL     1      15.911  10.215  21.683  0.00  0.00    +0.100 A 
ATOM     20  C   UNL     1      15.216  10.142  20.543  0.00  0.00    +0.030 A 
ENDROOT
BRANCH  19   7
ATOM      4  O   UNL     1      18.629  10.374  20.801  0.00  0.00    -0.252 OA
ATOM      7  N   UNL     1      16.911   9.337  21.983  0.00  0.00    -0.265 N 
ATOM      8  N   UNL     1      19.019   8.421  21.992  0.00  0.00    -0.296 N 
ATOM     28  C   UNL     1      18.222   9.464  21.523  0.00  0.00    +0.304 C 
ATOM     35  H   UNL     1      16.634   8.431  22.351  0.00  0.00    +0.157 HD
ATOM     36  H   UNL     1      18.574   7.682  22.526  0.00  0.00    +0.151 HD
BRANCH   8  21
ATOM     21  C   UNL     1      20.424   8.302  21.671  0.00  0.00    +0.074 C 
ATOM     22  C   UNL     1      20.653   7.243  20.586  0.00  0.00    +0.022 C 
ATOM     23  C   UNL     1      21.252   8.000  22.925  0.00  0.00    +0.022 C 
ATOM     24  C   UNL     1      20.440   5.820  21.104  0.00  0.00    +0.002 C 
ATOM     25  C   UNL     1      21.038   6.576  23.439  0.00  0.00    +0.002 C 
ATOM     27  C   UNL     1      21.283   5.541  22.345  0.00  0.00    +0.000 C 
ENDBRANCH   8  21
ENDBRANCH  19   7
BRANCH  18  26
ATOM     26  C   UNL     1      10.535   9.999  22.825  0.00  0.00    +0.324 C 
BRANCH  26   3
ATOM      3  O   UNL     1      11.580   9.058  22.852  0.00  0.00    -0.483 OA
BRANCH   3  29
ATOM     29  C   UNL     1      11.937   8.477  21.655  0.00  0.00    +0.121 A 
ATOM     30  C   UNL     1      11.297   8.856  20.475  0.00  0.00    +0.045 A 
ATOM     31  C   UNL     1      12.941   7.508  21.623  0.00  0.00    +0.045 A 
ATOM     32  C   UNL     1      11.659   8.267  19.264  0.00  0.00    +0.004 A 
ATOM     33  C   UNL     1      13.302   6.918  20.411  0.00  0.00    +0.004 A 
ATOM     34  C   UNL     1      12.661   7.298  19.232  0.00  0.00    +0.000 A 
ENDBRANCH   3  29
ENDBRANCH  26   3
ENDBRANCH  18  26
TORSDOF 5
ENDMDL
MODEL 6
REMARK VINA RESULT:      -6.4     25.720     28.987
REMARK  Name = 7143045
REMARK  5 active torsions:
REMARK  status: ('A' for Active; 'I' for Inactive)
REMARK    1  A    between atoms: O_3  and  C_26
REMARK    2  A    between atoms: O_3  and  C_29
REMARK    3  A    between atoms: N_7  and  C_19
REMARK    4  A    between atoms: N_8  and  C_21
REMARK    5  A    between atoms: C_18  and  C_26
REMARK                            x       y       z     vdW  Elec       q    Type
REMARK                         _______ _______ _______ _____ _____    ______ ____
ROOT
ATOM      1  O   UNL     1      -4.626 -12.645   9.696  0.00  0.00    -0.266 OA
ATOM      2  O   UNL     1      -5.977 -12.498  14.876  0.00  0.00    -0.272 OA
ATOM      5  N   UNL     1      -3.680 -12.271  14.616  0.00  0.00    -0.298 N 
ATOM      6  N   UNL     1      -3.154 -12.232  11.462  0.00  0.00    -0.310 N 
ATOM      9  C   UNL     1      -2.554 -14.003  13.210  0.00  0.00    +0.027 C 
ATOM     10  C   UNL     1      -1.587 -11.748  13.375  0.00  0.00    +0.054 C 
ATOM     11  C   UNL     1      -1.244 -13.236  13.335  0.00  0.00    +0.018 C 
ATOM     12  C   UNL     1      -3.469 -13.705  14.411  0.00  0.00    +0.113 C 
ATOM     13  C   UNL     1      -3.217 -13.639  11.876  0.00  0.00    +0.130 C 
ATOM     14  C   UNL     1      -2.458 -11.453  14.612  0.00  0.00    +0.117 C 
ATOM     15  C   UNL     1      -2.318 -11.321  12.116  0.00  0.00    +0.027 A 
ATOM     16  C   UNL     1      -2.186 -10.069  11.649  0.00  0.00    +0.024 A 
ATOM     17  C   UNL     1      -3.892 -11.875  10.315  0.00  0.00    +0.273 A 
ATOM     18  C   UNL     1      -4.964 -11.794  14.878  0.00  0.00    +0.253 C 
ATOM     19  C   UNL     1      -3.737 -10.463   9.842  0.00  0.00    +0.100 A 
ATOM     20  C   UNL     1      -2.912  -9.633  10.489  0.00  0.00    +0.030 A 
ENDROOT
BRANCH  19   7
ATOM      4  O   UNL     1      -6.444  -9.538   9.810  0.00  0.00    -0.252 OA
ATOM      7  N   UNL     1      -4.445 -10.075   8.743  0.00  0.00    -0.265 N 
ATOM      8  N   UNL     1      -6.227  -9.304   7.512  0.00  0.00    -0.296 N 
ATOM     28  C   UNL     1      -5.767  -9.632   8.786  0.00  0.00    +0.304 C 
ATOM     35  H   UNL     1      -4.078 -10.350   7.836  0.00  0.00    +0.157 HD
ATOM     36  H   UNL     1      -5.613  -9.480   6.722  0.00  0.00    +0.151 HD
BRANCH   8  21
ATOM     21  C   UNL     1      -7.564  -8.815   7.261  0.00  0.00    +0.074 C 
ATOM     22  C   UNL     1      -8.537  -9.974   7.011  0.00  0.00    +0.022 C 
ATOM     23  C   UNL     1      -7.578  -7.819   6.097  0.00  0.00    +0.022 C 
ATOM     24  C   UNL     1      -8.308 -10.648   5.658  0.00  0.00    +0.002 C 
ATOM     25  C   UNL     1      -7.351  -8.495   4.745  0.00  0.00    +0.002 C 
ATOM     27  C   UNL     1      -8.337  -9.637   4.515  0.00  0.00    +0.000 C 
ENDBRANCH   8  21
ENDBRANCH  19   7
BRANCH  18  26
ATOM     26  C   UNL     1      -5.091 -10.321  15.172  0.00  0.00    +0.324 C 
BRANCH  26   3
ATOM      3  O   UNL     1      -4.654 -10.135  16.495  0.00  0.00    -0.483 OA
BRANCH   3  29
ATOM     29  C   UNL     1      -5.544 -10.434  17.503  0.00  0.00    +0.121 A 
ATOM     30  C   UNL     1      -5.106 -11.096  18.650  0.00  0.00    +0.045 A 
ATOM     31  C   UNL     1      -6.886 -10.073  17.377  0.00  0.00    +0.045 A 
ATOM     32  C   UNL     1      -6.007 -11.398  19.670  0.00  0.00    +0.004 A 
ATOM     33  C   UNL     1      -7.789 -10.375  18.397  0.00  0.00    +0.004 A 
ATOM     34  C   UNL     1      -7.349 -11.038  19.543  0.00  0.00    +0.000 A 
ENDBRANCH   3  29
ENDBRANCH  26   3
ENDBRANCH  18  26
TORSDOF 5
ENDMDL
MODEL 7
REMARK VINA RESULT:      -6.4      4.526      7.495
REMARK  Name = 7143045
REMARK  5 active torsions:
REMARK  status: ('A' for Active; 'I' for Inactive)
REMARK    1  A    between atoms: O_3  and  C_26
REMARK    2  A    between atoms: O_3  and  C_29
REMARK    3  A    between atoms: N_7  and  C_19
REMARK    4  A    between atoms: N_8  and  C_21
REMARK    5  A    between atoms: C_18  and  C_26
REMARK                            x       y       z     vdW  Elec       q    Type
REMARK                         _______ _______ _______ _____ _____    ______ ____
ROOT
ATOM      1  O   UNL     1      12.752   7.536   3.796  0.00  0.00    -0.266 OA
ATOM      2  O   UNL     1       9.407  11.177   5.851  0.00  0.00    -0.272 OA
ATOM      5  N   UNL     1       8.877   9.048   6.614  0.00  0.00    -0.298 N 
ATOM      6  N   UNL     1      11.093   7.099   5.382  0.00  0.00    -0.310 N 
ATOM      9  C   UNL     1       8.594   7.290   4.862  0.00  0.00    +0.027 C 
ATOM     10  C   UNL     1       9.325   6.653   7.122  0.00  0.00    +0.054 C 
ATOM     11  C   UNL     1       8.428   6.242   5.956  0.00  0.00    +0.018 C 
ATOM     12  C   UNL     1       8.182   8.679   5.380  0.00  0.00    +0.113 C 
ATOM     13  C   UNL     1      10.045   7.265   4.367  0.00  0.00    +0.130 C 
ATOM     14  C   UNL     1       8.869   8.021   7.667  0.00  0.00    +0.117 C 
ATOM     15  C   UNL     1      10.779   6.727   6.693  0.00  0.00    +0.027 A 
ATOM     16  C   UNL     1      11.758   6.467   7.575  0.00  0.00    +0.024 A 
ATOM     17  C   UNL     1      12.426   7.229   4.944  0.00  0.00    +0.273 A 
ATOM     18  C   UNL     1       9.410  10.330   6.748  0.00  0.00    +0.253 C 
ATOM     19  C   UNL     1      13.488   6.954   5.963  0.00  0.00    +0.100 A 
ATOM     20  C   UNL     1      13.139   6.585   7.201  0.00  0.00    +0.030 A 
ENDROOT
BRANCH  19   7
ATOM      4  O   UNL     1      14.989   9.387   5.848  0.00  0.00    -0.252 OA
ATOM      7  N   UNL     1      14.791   7.082   5.581  0.00  0.00    -0.265 N 
ATOM      8  N   UNL     1      16.789   8.118   5.115  0.00  0.00    -0.296 N 
ATOM     28  C   UNL     1      15.475   8.297   5.544  0.00  0.00    +0.304 C 
ATOM     35  H   UNL     1      15.202   6.303   5.075  0.00  0.00    +0.157 HD
ATOM     36  H   UNL     1      17.074   7.189   4.823  0.00  0.00    +0.151 HD
BRANCH   8  21
ATOM     21  C   UNL     1      17.727   9.211   4.983  0.00  0.00    +0.074 C 
ATOM     22  C   UNL     1      18.739   8.935   3.865  0.00  0.00    +0.022 C 
ATOM     23  C   UNL     1      18.433   9.495   6.313  0.00  0.00    +0.022 C 
ATOM     24  C   UNL     1      19.745   7.846   4.241  0.00  0.00    +0.002 C 
ATOM     25  C   UNL     1      19.440   8.406   6.686  0.00  0.00    +0.002 C 
ATOM     27  C   UNL     1      20.442   8.158   5.563  0.00  0.00    +0.000 C 
ENDBRANCH   8  21
ENDBRANCH  19   7
BRANCH  18  26
ATOM     26  C   UNL     1      10.028  10.670   8.081  0.00  0.00    +0.324 C 
BRANCH  26   3
ATOM      3  O   UNL     1       9.088  11.457   8.771  0.00  0.00    -0.483 OA
BRANCH   3  29
ATOM     29  C   UNL     1       9.373  11.779  10.079  0.00  0.00    +0.121 A 
ATOM     30  C   UNL     1      10.685  11.707  10.547  0.00  0.00    +0.045 A 
ATOM     31  C   UNL     1       8.348  12.178  10.938  0.00  0.00    +0.045 A 
ATOM     32  C   UNL     1      10.973  12.032  11.872  0.00  0.00    +0.004 A 
ATOM     33  C   UNL     1       8.636  12.504  12.264  0.00  0.00    +0.004 A 
ATOM     34  C   UNL     1       9.948  12.430  12.731  0.00  0.00    +0.000 A 
ENDBRANCH   3  29
ENDBRANCH  26   3
ENDBRANCH  18  26
TORSDOF 5
ENDMDL
MODEL 8
REMARK VINA RESULT:      -6.3      3.271      7.568
REMARK  Name = 7143045
REMARK  5 active torsions:
REMARK  status: ('A' for Active; 'I' for Inactive)
REMARK    1  A    between atoms: O_3  and  C_26
REMARK    2  A    between atoms: O_3  and  C_29
REMARK    3  A    between atoms: N_7  and  C_19
REMARK    4  A    between atoms: N_8  and  C_21
REMARK    5  A    between atoms: C_18  and  C_26
REMARK                            x       y       z     vdW  Elec       q    Type
REMARK                         _______ _______ _______ _____ _____    ______ ____
ROOT
ATOM      1  O   UNL     1       9.994   7.546   1.792  0.00  0.00    -0.266 OA
ATOM      2  O   UNL     1      12.284   9.595   6.177  0.00  0.00    -0.272 OA
ATOM      5  N   UNL     1      10.731   7.963   6.744  0.00  0.00    -0.298 N 
ATOM      6  N   UNL     1       9.634   6.798   3.975  0.00  0.00    -0.310 N 
ATOM      9  C   UNL     1       8.454   8.217   5.749  0.00  0.00    +0.027 C 
ATOM     10  C   UNL     1       9.287   5.978   6.332  0.00  0.00    +0.054 C 
ATOM     11  C   UNL     1       8.052   6.877   6.353  0.00  0.00    +0.018 C 
ATOM     12  C   UNL     1       9.587   8.859   6.567  0.00  0.00    +0.113 C 
ATOM     13  C   UNL     1       8.850   8.001   4.283  0.00  0.00    +0.130 C 
ATOM     14  C   UNL     1      10.396   6.605   7.199  0.00  0.00    +0.117 C 
ATOM     15  C   UNL     1       9.791   5.775   4.916  0.00  0.00    +0.027 A 
ATOM     16  C   UNL     1      10.412   4.633   4.576  0.00  0.00    +0.024 A 
ATOM     17  C   UNL     1      10.124   6.681   2.659  0.00  0.00    +0.273 A 
ATOM     18  C   UNL     1      12.025   8.452   6.561  0.00  0.00    +0.253 C 
ATOM     19  C   UNL     1      10.831   5.403   2.327  0.00  0.00    +0.100 A 
ATOM     20  C   UNL     1      10.943   4.447   3.255  0.00  0.00    +0.030 A 
ENDROOT
BRANCH  19   7
ATOM      4  O   UNL     1       9.374   4.575   0.008  0.00  0.00    -0.252 OA
ATOM      7  N   UNL     1      11.333   5.258   1.067  0.00  0.00    -0.265 N 
ATOM      8  N   UNL     1      11.353   4.791  -1.183  0.00  0.00    -0.296 N 
ATOM     28  C   UNL     1      10.574   4.849  -0.030  0.00  0.00    +0.304 C 
ATOM     35  H   UNL     1      12.343   5.209   0.975  0.00  0.00    +0.157 HD
ATOM     36  H   UNL     1      12.348   4.971  -1.097  0.00  0.00    +0.151 HD
BRANCH   8  21
ATOM     21  C   UNL     1      10.823   4.398  -2.470  0.00  0.00    +0.074 C 
ATOM     22  C   UNL     1      10.695   2.873  -2.570  0.00  0.00    +0.022 C 
ATOM     23  C   UNL     1      11.676   4.960  -3.613  0.00  0.00    +0.022 C 
ATOM     24  C   UNL     1      12.052   2.179  -2.688  0.00  0.00    +0.002 C 
ATOM     25  C   UNL     1      13.031   4.262  -3.729  0.00  0.00    +0.002 C 
ATOM     27  C   UNL     1      12.877   2.748  -3.838  0.00  0.00    +0.000 C 
ENDBRANCH   8  21
ENDBRANCH  19   7
BRANCH  18  26
ATOM     26  C   UNL     1      13.155   7.498   6.852  0.00  0.00    +0.324 C 
BRANCH  26   3
ATOM      3  O   UNL     1      13.668   7.091   5.607  0.00  0.00    -0.483 OA
BRANCH   3  29
ATOM     29  C   UNL     1      14.909   7.568   5.248  0.00  0.00    +0.121 A 
ATOM     30  C   UNL     1      15.724   8.180   6.199  0.00  0.00    +0.045 A 
ATOM     31  C   UNL     1      15.350   7.440   3.930  0.00  0.00    +0.045 A 
ATOM     32  C   UNL     1      16.981   8.664   5.836  0.00  0.00    +0.004 A 
ATOM     33  C   UNL     1      16.607   7.924   3.566  0.00  0.00    +0.004 A 
ATOM     34  C   UNL     1      17.422   8.536   4.518  0.00  0.00    +0.000 A 
ENDBRANCH   3  29
ENDBRANCH  26   3
ENDBRANCH  18  26
TORSDOF 5
ENDMDL
MODEL 9
REMARK VINA RESULT:      -6.2     26.498     31.071
REMARK  Name = 7143045
REMARK  5 active torsions:
REMARK  status: ('A' for Active; 'I' for Inactive)
REMARK    1  A    between atoms: O_3  and  C_26
REMARK    2  A    between atoms: O_3  and  C_29
REMARK    3  A    between atoms: N_7  and  C_19
REMARK    4  A    between atoms: N_8  and  C_21
REMARK    5  A    between atoms: C_18  and  C_26
REMARK                            x       y       z     vdW  Elec       q    Type
REMARK                         _______ _______ _______ _____ _____    ______ ____
ROOT
ATOM      1  O   UNL     1      -8.450  -8.414  17.046  0.00  0.00    -0.266 OA
ATOM      2  O   UNL     1      -3.435 -10.232  16.580  0.00  0.00    -0.272 OA
ATOM      5  N   UNL     1      -4.846 -11.900  17.367  0.00  0.00    -0.298 N 
ATOM      6  N   UNL     1      -7.778 -10.622  17.405  0.00  0.00    -0.310 N 
ATOM      9  C   UNL     1      -6.255 -11.309  19.344  0.00  0.00    +0.027 C 
ATOM     10  C   UNL     1      -7.042 -13.008  17.750  0.00  0.00    +0.054 C 
ATOM     11  C   UNL     1      -6.955 -12.657  19.235  0.00  0.00    +0.018 C 
ATOM     12  C   UNL     1      -4.843 -11.384  18.737  0.00  0.00    +0.113 C 
ATOM     13  C   UNL     1      -7.120 -10.243  18.662  0.00  0.00    +0.130 C 
ATOM     14  C   UNL     1      -5.622 -13.134  17.166  0.00  0.00    +0.117 C 
ATOM     15  C   UNL     1      -7.823 -11.956  16.985  0.00  0.00    +0.027 A 
ATOM     16  C   UNL     1      -8.529 -12.297  15.895  0.00  0.00    +0.024 A 
ATOM     17  C   UNL     1      -8.446  -9.598  16.705  0.00  0.00    +0.273 A 
ATOM     18  C   UNL     1      -4.077 -11.268  16.391  0.00  0.00    +0.253 C 
ATOM     19  C   UNL     1      -9.201 -10.016  15.481  0.00  0.00    +0.100 A 
ATOM     20  C   UNL     1      -9.230 -11.305  15.128  0.00  0.00    +0.030 A 
ENDROOT
BRANCH  19   7
ATOM      4  O   UNL     1     -11.934  -9.230  15.791  0.00  0.00    -0.252 OA
ATOM      7  N   UNL     1      -9.850  -9.051  14.769  0.00  0.00    -0.265 N 
ATOM      8  N   UNL     1     -11.575  -7.692  14.092  0.00  0.00    -0.296 N 
ATOM     28  C   UNL     1     -11.188  -8.709  14.962  0.00  0.00    +0.304 C 
ATOM     35  H   UNL     1      -9.413  -8.743  13.904  0.00  0.00    +0.157 HD
ATOM     36  H   UNL     1     -10.904  -7.375  13.398  0.00  0.00    +0.151 HD
BRANCH   8  21
ATOM     21  C   UNL     1     -12.911  -7.139  14.074  0.00  0.00    +0.074 C 
ATOM     22  C   UNL     1     -13.576  -7.349  12.708  0.00  0.00    +0.022 C 
ATOM     23  C   UNL     1     -12.900  -5.657  14.463  0.00  0.00    +0.022 C 
ATOM     24  C   UNL     1     -12.973  -6.459  11.621  0.00  0.00    +0.002 C 
ATOM     25  C   UNL     1     -12.299  -4.770  13.374  0.00  0.00    +0.002 C 
ATOM     27  C   UNL     1     -12.983  -4.989  12.028  0.00  0.00    +0.000 C 
ENDBRANCH   8  21
ENDBRANCH  19   7
BRANCH  18  26
ATOM     26  C   UNL     1      -4.056 -11.909  15.027  0.00  0.00    +0.324 C 
BRANCH  26   3
ATOM      3  O   UNL     1      -4.698 -11.014  14.151  0.00  0.00    -0.483 OA
BRANCH   3  29
ATOM     29  C   UNL     1      -3.986 -10.584  13.053  0.00  0.00    +0.121 A 
ATOM     30  C   UNL     1      -2.596 -10.698  13.033  0.00  0.00    +0.045 A 
ATOM     31  C   UNL     1      -4.656 -10.035  11.960  0.00  0.00    +0.045 A 
ATOM     32  C   UNL     1      -1.875 -10.262  11.922  0.00  0.00    +0.004 A 
ATOM     33  C   UNL     1      -3.936  -9.599  10.848  0.00  0.00    +0.004 A 
ATOM     34  C   UNL     1      -2.546  -9.712  10.829  0.00  0.00    +0.000 A 
ENDBRANCH   3  29
ENDBRANCH  26   3
ENDBRANCH  18  26
TORSDOF 5
ENDMDL
MODEL 10
REMARK VINA RESULT:      -6.1     33.913     36.205
REMARK  Name = 7143045
REMARK  5 active torsions:
REMARK  status: ('A' for Active; 'I' for Inactive)
REMARK    1  A    between atoms: O_3  and  C_26
REMARK    2  A    between atoms: O_3  and  C_29
REMARK    3  A    between atoms: N_7  and  C_19
REMARK    4  A    between atoms: N_8  and  C_21
REMARK    5  A    between atoms: C_18  and  C_26
REMARK                            x       y       z     vdW  Elec       q    Type
REMARK                         _______ _______ _______ _____ _____    ______ ____
ROOT
ATOM      1  O   UNL     1       9.452  -9.410  32.136  0.00  0.00    -0.266 OA
ATOM      2  O   UNL     1       9.072  -8.506  37.400  0.00  0.00    -0.272 OA
ATOM      5  N   UNL     1       8.556  -6.588  36.194  0.00  0.00    -0.298 N 
ATOM      6  N   UNL     1       8.700  -7.426  33.111  0.00  0.00    -0.310 N 
ATOM      9  C   UNL     1      10.226  -5.887  34.474  0.00  0.00    +0.027 C 
ATOM     10  C   UNL     1       7.854  -5.306  34.179  0.00  0.00    +0.054 C 
ATOM     11  C   UNL     1       9.280  -4.780  34.023  0.00  0.00    +0.018 C 
ATOM     12  C   UNL     1       9.959  -6.258  35.943  0.00  0.00    +0.113 C 
ATOM     13  C   UNL     1      10.065  -7.090  33.537  0.00  0.00    +0.130 C 
ATOM     14  C   UNL     1       7.581  -5.622  35.663  0.00  0.00    +0.117 C 
ATOM     15  C   UNL     1       7.634  -6.549  33.338  0.00  0.00    +0.027 A 
ATOM     16  C   UNL     1       6.417  -6.821  32.839  0.00  0.00    +0.024 A 
ATOM     17  C   UNL     1       8.541  -8.618  32.376  0.00  0.00    +0.273 A 
ATOM     18  C   UNL     1       8.238  -7.707  36.964  0.00  0.00    +0.253 C 
ATOM     19  C   UNL     1       7.164  -8.896  31.858  0.00  0.00    +0.100 A 
ATOM     20  C   UNL     1       6.180  -8.020  32.085  0.00  0.00    +0.030 A 
ENDROOT
BRANCH  19   7
ATOM      4  O   UNL     1       6.434 -11.443  32.939  0.00  0.00    -0.252 OA
ATOM      7  N   UNL     1       6.966 -10.047  31.153  0.00  0.00    -0.265 N 
ATOM      8  N   UNL     1       6.478 -12.260  30.768  0.00  0.00    -0.296 N 
ATOM     28  C   UNL     1       6.610 -11.264  31.734  0.00  0.00    +0.304 C 
ATOM     35  H   UNL     1       7.329 -10.075  30.204  0.00  0.00    +0.157 HD
ATOM     36  H   UNL     1       6.712 -12.028  29.807  0.00  0.00    +0.151 HD
BRANCH   8  21
ATOM     21  C   UNL     1       6.115 -13.622  31.089  0.00  0.00    +0.074 C 
ATOM     22  C   UNL     1       6.914 -14.619  30.242  0.00  0.00    +0.022 C 
ATOM     23  C   UNL     1       4.607 -13.843  30.930  0.00  0.00    +0.022 C 
ATOM     24  C   UNL     1       6.472 -14.630  28.778  0.00  0.00    +0.002 C 
ATOM     25  C   UNL     1       4.168 -13.855  29.466  0.00  0.00    +0.002 C 
ATOM     27  C   UNL     1       4.969 -14.862  28.647  0.00  0.00    +0.000 C 
ENDBRANCH   8  21
ENDBRANCH  19   7
BRANCH  18  26
ATOM     26  C   UNL     1       6.777  -7.932  37.260  0.00  0.00    +0.324 C 
BRANCH  26   3
ATOM      3  O   UNL     1       6.238  -8.595  36.142  0.00  0.00    -0.483 OA
BRANCH   3  29
ATOM     29  C   UNL     1       4.916  -8.976  36.210  0.00  0.00    +0.121 A 
ATOM     30  C   UNL     1       4.194  -8.786  37.389  0.00  0.00    +0.045 A 
ATOM     31  C   UNL     1       4.299  -9.552  35.100  0.00  0.00    +0.045 A 
ATOM     32  C   UNL     1       2.856  -9.172  37.458  0.00  0.00    +0.004 A 
ATOM     33  C   UNL     1       2.960  -9.938  35.169  0.00  0.00    +0.004 A 
ATOM     34  C   UNL     1       2.239  -9.749  36.347  0.00  0.00    +0.000 A 
ENDBRANCH   3  29
ENDBRANCH  26   3
ENDBRANCH  18  26
TORSDOF 5
ENDMDL
