REMARK  Name = 11879582
REMARK  9 active torsions:
REMARK  status: ('A' for Active; 'I' for Inactive)
REMARK    1  A    between atoms: S_1  and  N_8
REMARK    2  A    between atoms: S_1  and  C_21
REMARK    3  A    between atoms: O_5  and  C_20
REMARK    4  A    between atoms: O_5  and  C_23
REMARK    5  A    between atoms: N_8  and  C_16
REMARK    6  A    between atoms: N_9  and  C_17
REMARK    7  A    between atoms: N_13  and  C_28
REMARK    8  A    between atoms: N_13  and  C_31
REMARK    9  A    between atoms: N_13  and  C_32
REMARK                            x       y       z     vdW  Elec       q    Type
REMARK                         _______ _______ _______ _____ _____    ______ ____
ROOT
ATOM      3  O   UNL     1       3.156   2.529  -0.526  0.00  0.00    -0.370 OA
ATOM      4  O   UNL     1       1.437   1.211   1.772  0.00  0.00    -0.370 OA
ATOM     14  C   UNL     1       1.658   0.917   0.384  0.00  0.00    +0.170 C 
ATOM     15  C   UNL     1       1.757   2.237  -0.357  0.00  0.00    +0.175 C 
ATOM     16  C   UNL     1       3.014   0.279   0.197  0.00  0.00    +0.133 C 
ATOM     17  C   UNL     1       1.128   3.253   0.577  0.00  0.00    +0.171 C 
ATOM     18  C   UNL     1       3.934   1.474   0.057  0.00  0.00    +0.183 C 
ATOM     19  C   UNL     1       1.338   2.630   1.953  0.00  0.00    +0.190 C 
ENDROOT
BRANCH  17   9
ATOM      9  N   UNL     1      -0.266   3.544   0.234  0.00  0.00    -0.187 N 
ATOM     10  N   UNL     1      -0.658   4.791  -0.044  0.00  0.00    -0.041 NA
ATOM     11  N   UNL     1      -2.379   3.381  -0.189  0.00  0.00    -0.071 NA
ATOM     12  N   UNL     1      -1.956   4.686  -0.304  0.00  0.00    -0.020 NA
ATOM     20  C   UNL     1      -1.313   2.691   0.145  0.00  0.00    +0.342 A 
BRANCH  20   5
ATOM      5  O   UNL     1      -1.251   1.390   0.363  0.00  0.00    -0.423 OA
BRANCH   5  23
ATOM     23  C   UNL     1      -2.087   0.485  -0.276  0.00  0.00    +0.134 A 
ATOM     26  C   UNL     1      -2.683  -0.516   0.466  0.00  0.00    +0.069 A 
ATOM     27  C   UNL     1      -2.297   0.611  -1.636  0.00  0.00    +0.046 A 
ATOM     28  C   UNL     1      -3.523  -1.427  -0.176  0.00  0.00    +0.033 A 
ATOM     29  C   UNL     1      -3.137  -0.299  -2.278  0.00  0.00    +0.005 A 
ATOM     30  C   UNL     1      -3.749  -1.318  -1.549  0.00  0.00    +0.023 A 
BRANCH  28  13
ATOM     13  N   UNL     1      -4.141  -2.457   0.561  0.00  0.00    -0.336 N 
ATOM     31  C   UNL     1      -4.451  -3.726  -0.067  0.00  0.00    +0.129 C 
ATOM     32  C   UNL     1      -4.462  -2.266   1.962  0.00  0.00    +0.129 C 
ENDBRANCH  28  13
ENDBRANCH   5  23
ENDBRANCH  20   5
ENDBRANCH  17   9
BRANCH  16   8
ATOM      8  N   UNL     1       3.030  -0.512  -1.057  0.00  0.00    -0.182 NA
ATOM     33  H   UNL     1       2.392  -0.194  -1.797  0.00  0.00    +0.149 HD
BRANCH   8   1
ATOM      1  S   UNL     1       3.478  -2.149  -1.016  0.00  0.00    +0.065 S 
ATOM      6  O   UNL     1       4.774  -2.280  -0.379  0.00  0.00    -0.153 OA
ATOM      7  O   UNL     1       3.247  -2.729  -2.325  0.00  0.00    -0.153 OA
BRANCH   1  21
ATOM      2  S   UNL     1       0.684  -2.893  -0.577  0.00  0.00    -0.077 S 
ATOM     21  C   UNL     1       2.264  -2.833   0.072  0.00  0.00    +0.142 A 
ATOM     22  C   UNL     1       2.329  -3.332   1.347  0.00  0.00    +0.036 A 
ATOM     24  C   UNL     1       1.055  -3.775   1.807  0.00  0.00    +0.010 A 
ATOM     25  C   UNL     1       0.072  -3.594   0.860  0.00  0.00    +0.047 A 
ENDBRANCH   1  21
ENDBRANCH   8   1
ENDBRANCH  16   8
TORSDOF 7
