REMARK  Name = 75536717
REMARK  10 active torsions:
REMARK  status: ('A' for Active; 'I' for Inactive)
REMARK    1  A    between atoms: S_1  and  N_7
REMARK    2  A    between atoms: S_1  and  C_17
REMARK    3  A    between atoms: O_3  and  C_11
REMARK    4  A    between atoms: N_6  and  C_10
REMARK    5  A    between atoms: N_6  and  C_15
REMARK    6  A    between atoms: N_7  and  C_14
REMARK    7  A    between atoms: N_8  and  C_21
REMARK    8  A    between atoms: C_12  and  C_14
REMARK    9  A    between atoms: C_15  and  C_16
REMARK   10  A    between atoms: C_25  and  C_26
REMARK                            x       y       z     vdW  Elec       q    Type
REMARK                         _______ _______ _______ _____ _____    ______ ____
ROOT
ATOM      2  O   UNL     1      -0.326  -1.355   1.368  0.00  0.00    -0.371 OA
ATOM     10  C   UNL     1      -2.234  -1.134  -0.029  0.00  0.00    +0.111 C 
ATOM     11  C   UNL     1      -0.989  -0.832  -0.841  0.00  0.00    +0.164 C 
ATOM     12  C   UNL     1       0.082  -1.514  -0.001  0.00  0.00    +0.164 C 
ATOM     13  C   UNL     1      -1.713  -0.976   1.391  0.00  0.00    +0.181 C 
ENDROOT
BRANCH  11   3
ATOM      3  O   UNL     1      -1.049  -1.363  -2.151  0.00  0.00    -0.388 OA
ATOM     28  H   UNL     1      -1.207  -2.320  -2.086  0.00  0.00    +0.210 HD
ENDBRANCH  11   3
BRANCH  10   6
ATOM      6  N   UNL     1      -3.352  -0.252  -0.323  0.00  0.00    -0.302 NA
ATOM     27  H   UNL     1      -3.445  -0.156  -1.334  0.00  0.00    +0.123 HD
BRANCH   6  15
ATOM     15  C   UNL     1      -4.597  -0.783   0.218  0.00  0.00    +0.156 C 
BRANCH  15  16
ATOM      8  N   UNL     1      -5.972   1.282   0.639  0.00  0.00    -0.336 N 
ATOM      9  N   UNL     1      -6.689  -0.063  -0.976  0.00  0.00    -0.239 NA
ATOM     16  C   UNL     1      -5.763   0.127  -0.062  0.00  0.00    +0.123 A 
ATOM     18  C   UNL     1      -7.102   1.865   0.140  0.00  0.00    +0.106 A 
ATOM     21  C   UNL     1      -5.158   1.805   1.711  0.00  0.00    +0.150 C 
ATOM     22  C   UNL     1      -7.527   1.017  -0.855  0.00  0.00    +0.130 A 
ENDBRANCH  15  16
ENDBRANCH   6  15
ENDBRANCH  10   6
BRANCH  12  14
ATOM     14  C   UNL     1       1.466  -0.921  -0.197  0.00  0.00    +0.140 C 
BRANCH  14   7
ATOM      7  N   UNL     1       2.437  -1.639   0.652  0.00  0.00    -0.187 NA
ATOM     29  H   UNL     1       2.237  -1.636   1.660  0.00  0.00    +0.148 HD
BRANCH   7   1
ATOM      1  S   UNL     1       4.054  -1.800   0.149  0.00  0.00    +0.058 S 
ATOM      4  O   UNL     1       4.089  -2.386  -1.177  0.00  0.00    -0.153 OA
ATOM      5  O   UNL     1       4.828  -2.387   1.226  0.00  0.00    -0.153 OA
BRANCH   1  17
ATOM     17  C   UNL     1       4.560  -0.112   0.012  0.00  0.00    +0.105 A 
ATOM     19  C   UNL     1       5.117   0.541   1.112  0.00  0.00    +0.029 A 
ATOM     20  C   UNL     1       4.399   0.569  -1.195  0.00  0.00    +0.029 A 
ATOM     23  C   UNL     1       5.513   1.874   1.005  0.00  0.00    +0.005 A 
ATOM     24  C   UNL     1       4.795   1.902  -1.301  0.00  0.00    +0.005 A 
ATOM     25  C   UNL     1       5.353   2.555  -0.201  0.00  0.00    -0.050 A 
ATOM     26  C   UNL     1       5.777   3.980  -0.315  0.00  0.00    +0.044 C 
ENDBRANCH   1  17
ENDBRANCH   7   1
ENDBRANCH  14   7
ENDBRANCH  12  14
TORSDOF 8
