MODEL 1
REMARK VINA RESULT:      -6.1      0.000      0.000
REMARK  Name = 75536712
REMARK  11 active torsions:
REMARK  status: ('A' for Active; 'I' for Inactive)
REMARK    1  A    between atoms: S_1  and  N_9
REMARK    2  A    between atoms: S_1  and  C_17
REMARK    3  A    between atoms: O_3  and  C_11
REMARK    4  A    between atoms: O_6  and  C_29
REMARK    5  A    between atoms: N_8  and  C_10
REMARK    6  A    between atoms: N_8  and  C_15
REMARK    7  A    between atoms: N_9  and  C_14
REMARK    8  A    between atoms: C_12  and  C_14
REMARK    9  A    between atoms: C_15  and  C_16
REMARK   10  A    between atoms: C_24  and  C_29
REMARK   11  A    between atoms: C_27  and  C_28
REMARK                            x       y       z     vdW  Elec       q    Type
REMARK                         _______ _______ _______ _____ _____    ______ ____
ROOT
ATOM      2  O   UNL     1      13.131  14.093  23.909  0.00  0.00    -0.371 OA
ATOM     10  C   UNL     1      11.317  12.579  23.659  0.00  0.00    +0.111 C 
ATOM     11  C   UNL     1      12.479  11.856  24.318  0.00  0.00    +0.164 C 
ATOM     12  C   UNL     1      13.281  13.028  24.864  0.00  0.00    +0.164 C 
ATOM     13  C   UNL     1      12.019  13.782  23.050  0.00  0.00    +0.181 C 
ENDROOT
BRANCH  11   3
ATOM      3  O   UNL     1      12.061  10.978  25.346  0.00  0.00    -0.388 OA
ATOM     31  H   UNL     1      11.367  10.399  24.990  0.00  0.00    +0.210 HD
ENDBRANCH  11   3
BRANCH  10   8
ATOM      8  N   UNL     1      10.615  11.774  22.671  0.00  0.00    -0.305 NA
ATOM     30  H   UNL     1      10.884  12.084  21.738  0.00  0.00    +0.123 HD
BRANCH   8  15
ATOM     15  C   UNL     1      10.949  10.362  22.813  0.00  0.00    +0.116 C 
BRANCH  15  16
ATOM     16  C   UNL     1      11.405   9.761  21.510  0.00  0.00    -0.034 A 
ATOM     18  C   UNL     1      11.004   8.472  21.159  0.00  0.00    +0.006 A 
ATOM     19  C   UNL     1      12.229  10.493  20.655  0.00  0.00    +0.006 A 
ATOM     22  C   UNL     1      11.427   7.915  19.952  0.00  0.00    +0.015 A 
ATOM     23  C   UNL     1      12.652   9.936  19.448  0.00  0.00    +0.015 A 
ATOM     24  C   UNL     1      12.251   8.647  19.095  0.00  0.00    +0.059 A 
BRANCH  24  29
ATOM      7  O   UNL     1      13.676   8.429  17.187  0.00  0.00    -0.245 OA
ATOM     29  C   UNL     1      12.690   8.067  17.837  0.00  0.00    +0.337 C 
BRANCH  29   6
ATOM      6  O   UNL     1      11.885   7.049  17.423  0.00  0.00    -0.477 OA
ATOM     33  H   UNL     1      11.028   7.045  17.899  0.00  0.00    +0.295 HD
ENDBRANCH  29   6
ENDBRANCH  24  29
ENDBRANCH  15  16
ENDBRANCH   8  15
ENDBRANCH  10   8
BRANCH  12  14
ATOM     14  C   UNL     1      14.755  12.712  25.052  0.00  0.00    +0.140 C 
BRANCH  14   9
ATOM      9  N   UNL     1      15.113  11.526  24.249  0.00  0.00    -0.187 NA
ATOM     32  H   UNL     1      15.206  10.645  24.771  0.00  0.00    +0.148 HD
BRANCH   9   1
ATOM      1  S   UNL     1      15.994  11.709  22.805  0.00  0.00    +0.058 S 
ATOM      4  O   UNL     1      17.407  11.816  23.115  0.00  0.00    -0.153 OA
ATOM      5  O   UNL     1      15.348  12.715  21.984  0.00  0.00    -0.153 OA
BRANCH   1  17
ATOM     17  C   UNL     1      15.726  10.150  22.018  0.00  0.00    +0.105 A 
ATOM     20  C   UNL     1      14.906   9.196  22.622  0.00  0.00    +0.029 A 
ATOM     21  C   UNL     1      16.337   9.872  20.795  0.00  0.00    +0.029 A 
ATOM     25  C   UNL     1      14.697   7.964  22.001  0.00  0.00    +0.005 A 
ATOM     26  C   UNL     1      16.127   8.639  20.176  0.00  0.00    +0.005 A 
ATOM     27  C   UNL     1      15.307   7.685  20.779  0.00  0.00    -0.050 A 
ATOM     28  C   UNL     1      15.083   6.368  20.117  0.00  0.00    +0.044 C 
ENDBRANCH   1  17
ENDBRANCH   9   1
ENDBRANCH  14   9
ENDBRANCH  12  14
TORSDOF 10
ENDMDL
MODEL 2
REMARK VINA RESULT:      -5.8     27.055     29.476
REMARK  Name = 75536712
REMARK  11 active torsions:
REMARK  status: ('A' for Active; 'I' for Inactive)
REMARK    1  A    between atoms: S_1  and  N_9
REMARK    2  A    between atoms: S_1  and  C_17
REMARK    3  A    between atoms: O_3  and  C_11
REMARK    4  A    between atoms: O_6  and  C_29
REMARK    5  A    between atoms: N_8  and  C_10
REMARK    6  A    between atoms: N_8  and  C_15
REMARK    7  A    between atoms: N_9  and  C_14
REMARK    8  A    between atoms: C_12  and  C_14
REMARK    9  A    between atoms: C_15  and  C_16
REMARK   10  A    between atoms: C_24  and  C_29
REMARK   11  A    between atoms: C_27  and  C_28
REMARK                            x       y       z     vdW  Elec       q    Type
REMARK                         _______ _______ _______ _____ _____    ______ ____
ROOT
ATOM      2  O   UNL     1      -5.648 -12.516  17.602  0.00  0.00    -0.371 OA
ATOM     10  C   UNL     1      -7.352 -10.863  17.667  0.00  0.00    +0.111 C 
ATOM     11  C   UNL     1      -6.056 -10.219  17.209  0.00  0.00    +0.164 C 
ATOM     12  C   UNL     1      -5.279 -11.436  16.726  0.00  0.00    +0.164 C 
ATOM     13  C   UNL     1      -6.842 -12.141  18.311  0.00  0.00    +0.181 C 
ENDROOT
BRANCH  11   3
ATOM      3  O   UNL     1      -6.252  -9.274  16.175  0.00  0.00    -0.388 OA
ATOM     31  H   UNL     1      -5.533  -8.621  16.217  0.00  0.00    +0.210 HD
ENDBRANCH  11   3
BRANCH  10   8
ATOM      8  N   UNL     1      -8.122 -10.036  18.583  0.00  0.00    -0.305 NA
ATOM     30  H   UNL     1      -7.967  -9.054  18.355  0.00  0.00    +0.123 HD
BRANCH   8  15
ATOM     15  C   UNL     1      -9.547 -10.324  18.478  0.00  0.00    +0.116 C 
BRANCH  15  16
ATOM     16  C   UNL     1     -10.277  -9.264  17.696  0.00  0.00    -0.034 A 
ATOM     18  C   UNL     1     -11.645  -9.392  17.456  0.00  0.00    +0.006 A 
ATOM     19  C   UNL     1      -9.584  -8.155  17.210  0.00  0.00    +0.006 A 
ATOM     22  C   UNL     1     -12.321  -8.411  16.731  0.00  0.00    +0.015 A 
ATOM     23  C   UNL     1     -10.260  -7.174  16.484  0.00  0.00    +0.015 A 
ATOM     24  C   UNL     1     -11.629  -7.300  16.246  0.00  0.00    +0.059 A 
BRANCH  24  29
ATOM      7  O   UNL     1     -13.560  -6.176  15.393  0.00  0.00    -0.245 OA
ATOM     29  C   UNL     1     -12.333  -6.277  15.491  0.00  0.00    +0.337 C 
BRANCH  29   6
ATOM      6  O   UNL     1     -11.485  -5.405  14.878  0.00  0.00    -0.477 OA
ATOM     33  H   UNL     1     -11.459  -4.538  15.336  0.00  0.00    +0.295 HD
ENDBRANCH  29   6
ENDBRANCH  24  29
ENDBRANCH  15  16
ENDBRANCH   8  15
ENDBRANCH  10   8
BRANCH  12  14
ATOM     14  C   UNL     1      -3.773 -11.239  16.760  0.00  0.00    +0.140 C 
BRANCH  14   9
ATOM      9  N   UNL     1      -3.370 -10.316  15.681  0.00  0.00    -0.187 NA
ATOM     32  H   UNL     1      -4.121  -9.735  15.287  0.00  0.00    +0.148 HD
BRANCH   9   1
ATOM      1  S   UNL     1      -2.032 -10.686  14.699  0.00  0.00    +0.058 S 
ATOM      4  O   UNL     1      -1.766 -12.111  14.767  0.00  0.00    -0.153 OA
ATOM      5  O   UNL     1      -0.972  -9.732  14.967  0.00  0.00    -0.153 OA
BRANCH   1  17
ATOM     17  C   UNL     1      -2.656 -10.325  13.086  0.00  0.00    +0.105 A 
ATOM     20  C   UNL     1      -4.025 -10.410  12.833  0.00  0.00    +0.029 A 
ATOM     21  C   UNL     1      -1.779  -9.959  12.064  0.00  0.00    +0.029 A 
ATOM     25  C   UNL     1      -4.518 -10.128  11.559  0.00  0.00    +0.005 A 
ATOM     26  C   UNL     1      -2.273  -9.677  10.790  0.00  0.00    +0.005 A 
ATOM     27  C   UNL     1      -3.642  -9.762  10.537  0.00  0.00    -0.050 A 
ATOM     28  C   UNL     1      -4.169  -9.461   9.175  0.00  0.00    +0.044 C 
ENDBRANCH   1  17
ENDBRANCH   9   1
ENDBRANCH  14   9
ENDBRANCH  12  14
TORSDOF 10
ENDMDL
MODEL 3
REMARK VINA RESULT:      -5.8     28.453     30.844
REMARK  Name = 75536712
REMARK  11 active torsions:
REMARK  status: ('A' for Active; 'I' for Inactive)
REMARK    1  A    between atoms: S_1  and  N_9
REMARK    2  A    between atoms: S_1  and  C_17
REMARK    3  A    between atoms: O_3  and  C_11
REMARK    4  A    between atoms: O_6  and  C_29
REMARK    5  A    between atoms: N_8  and  C_10
REMARK    6  A    between atoms: N_8  and  C_15
REMARK    7  A    between atoms: N_9  and  C_14
REMARK    8  A    between atoms: C_12  and  C_14
REMARK    9  A    between atoms: C_15  and  C_16
REMARK   10  A    between atoms: C_24  and  C_29
REMARK   11  A    between atoms: C_27  and  C_28
REMARK                            x       y       z     vdW  Elec       q    Type
REMARK                         _______ _______ _______ _____ _____    ______ ____
ROOT
ATOM      2  O   UNL     1     -12.433  -7.829  16.405  0.00  0.00    -0.371 OA
ATOM     10  C   UNL     1     -10.100  -7.678  16.825  0.00  0.00    +0.111 C 
ATOM     11  C   UNL     1     -10.426  -6.906  15.559  0.00  0.00    +0.164 C 
ATOM     12  C   UNL     1     -11.918  -6.662  15.741  0.00  0.00    +0.164 C 
ATOM     13  C   UNL     1     -11.328  -8.563  16.962  0.00  0.00    +0.181 C 
ENDROOT
BRANCH  11   3
ATOM      3  O   UNL     1      -9.702  -5.694  15.457  0.00  0.00    -0.388 OA
ATOM     31  H   UNL     1      -9.359  -5.619  14.552  0.00  0.00    +0.210 HD
ENDBRANCH  11   3
BRANCH  10   8
ATOM      8  N   UNL     1      -8.862  -8.437  16.742  0.00  0.00    -0.305 NA
ATOM     30  H   UNL     1      -8.097  -7.865  17.099  0.00  0.00    +0.123 HD
BRANCH   8  15
ATOM     15  C   UNL     1      -8.944  -9.660  17.531  0.00  0.00    +0.116 C 
BRANCH  15  16
ATOM     16  C   UNL     1      -7.580 -10.199  17.872  0.00  0.00    -0.034 A 
ATOM     18  C   UNL     1      -7.388 -10.914  19.054  0.00  0.00    +0.006 A 
ATOM     19  C   UNL     1      -6.507  -9.981  17.007  0.00  0.00    +0.006 A 
ATOM     22  C   UNL     1      -6.124 -11.412  19.371  0.00  0.00    +0.015 A 
ATOM     23  C   UNL     1      -5.244 -10.479  17.324  0.00  0.00    +0.015 A 
ATOM     24  C   UNL     1      -5.052 -11.196  18.505  0.00  0.00    +0.059 A 
BRANCH  24  29
ATOM      7  O   UNL     1      -3.413 -12.222  19.914  0.00  0.00    -0.245 OA
ATOM     29  C   UNL     1      -3.735 -11.716  18.834  0.00  0.00    +0.337 C 
BRANCH  29   6
ATOM      6  O   UNL     1      -2.852 -11.590  17.804  0.00  0.00    -0.477 OA
ATOM     33  H   UNL     1      -3.273 -11.780  16.939  0.00  0.00    +0.295 HD
ENDBRANCH  29   6
ENDBRANCH  24  29
ENDBRANCH  15  16
ENDBRANCH   8  15
ENDBRANCH  10   8
BRANCH  12  14
ATOM     14  C   UNL     1     -12.656  -6.451  14.430  0.00  0.00    +0.140 C 
BRANCH  14   9
ATOM      9  N   UNL     1     -11.985  -5.393  13.649  0.00  0.00    -0.187 NA
ATOM     32  H   UNL     1     -11.167  -4.959  14.096  0.00  0.00    +0.148 HD
BRANCH   9   1
ATOM      1  S   UNL     1     -12.867  -4.482  12.515  0.00  0.00    +0.058 S 
ATOM      4  O   UNL     1     -12.563  -3.075  12.690  0.00  0.00    -0.153 OA
ATOM      5  O   UNL     1     -14.244  -4.937  12.514  0.00  0.00    -0.153 OA
BRANCH   1  17
ATOM     17  C   UNL     1     -12.148  -5.009  10.989  0.00  0.00    +0.105 A 
ATOM     20  C   UNL     1     -12.157  -6.361  10.645  0.00  0.00    +0.029 A 
ATOM     21  C   UNL     1     -11.566  -4.075  10.133  0.00  0.00    +0.029 A 
ATOM     25  C   UNL     1     -11.587  -6.778   9.442  0.00  0.00    +0.005 A 
ATOM     26  C   UNL     1     -10.995  -4.493   8.930  0.00  0.00    +0.005 A 
ATOM     27  C   UNL     1     -11.006  -5.845   8.585  0.00  0.00    -0.050 A 
ATOM     28  C   UNL     1     -10.396  -6.290   7.299  0.00  0.00    +0.044 C 
ENDBRANCH   1  17
ENDBRANCH   9   1
ENDBRANCH  14   9
ENDBRANCH  12  14
TORSDOF 10
ENDMDL
MODEL 4
REMARK VINA RESULT:      -5.7      1.947      2.614
REMARK  Name = 75536712
REMARK  11 active torsions:
REMARK  status: ('A' for Active; 'I' for Inactive)
REMARK    1  A    between atoms: S_1  and  N_9
REMARK    2  A    between atoms: S_1  and  C_17
REMARK    3  A    between atoms: O_3  and  C_11
REMARK    4  A    between atoms: O_6  and  C_29
REMARK    5  A    between atoms: N_8  and  C_10
REMARK    6  A    between atoms: N_8  and  C_15
REMARK    7  A    between atoms: N_9  and  C_14
REMARK    8  A    between atoms: C_12  and  C_14
REMARK    9  A    between atoms: C_15  and  C_16
REMARK   10  A    between atoms: C_24  and  C_29
REMARK   11  A    between atoms: C_27  and  C_28
REMARK                            x       y       z     vdW  Elec       q    Type
REMARK                         _______ _______ _______ _____ _____    ______ ____
ROOT
ATOM      2  O   UNL     1      13.314  14.026  24.269  0.00  0.00    -0.371 OA
ATOM     10  C   UNL     1      12.642  11.925  25.152  0.00  0.00    +0.111 C 
ATOM     11  C   UNL     1      13.816  11.715  24.212  0.00  0.00    +0.164 C 
ATOM     12  C   UNL     1      14.421  13.112  24.182  0.00  0.00    +0.164 C 
ATOM     13  C   UNL     1      12.158  13.301  24.724  0.00  0.00    +0.181 C 
ENDROOT
BRANCH  11   3
ATOM      3  O   UNL     1      14.735  10.753  24.695  0.00  0.00    -0.388 OA
ATOM     31  H   UNL     1      14.951  10.973  25.616  0.00  0.00    +0.210 HD
ENDBRANCH  11   3
BRANCH  10   8
ATOM      8  N   UNL     1      11.615  10.903  25.039  0.00  0.00    -0.305 NA
ATOM     30  H   UNL     1      11.046  10.907  25.885  0.00  0.00    +0.123 HD
BRANCH   8  15
ATOM     15  C   UNL     1      10.752  11.152  23.890  0.00  0.00    +0.116 C 
BRANCH  15  16
ATOM     16  C   UNL     1      10.999  10.167  22.779  0.00  0.00    -0.034 A 
ATOM     18  C   UNL     1      10.718   8.814  22.971  0.00  0.00    +0.006 A 
ATOM     19  C   UNL     1      11.511  10.606  21.558  0.00  0.00    +0.006 A 
ATOM     22  C   UNL     1      10.948   7.901  21.942  0.00  0.00    +0.015 A 
ATOM     23  C   UNL     1      11.741   9.693  20.529  0.00  0.00    +0.015 A 
ATOM     24  C   UNL     1      11.458   8.340  20.720  0.00  0.00    +0.059 A 
BRANCH  24  29
ATOM      7  O   UNL     1      11.555   7.617  18.442  0.00  0.00    -0.245 OA
ATOM     29  C   UNL     1      11.697   7.388  19.647  0.00  0.00    +0.337 C 
BRANCH  29   6
ATOM      6  O   UNL     1      12.106   6.174  20.109  0.00  0.00    -0.477 OA
ATOM     33  H   UNL     1      11.927   5.459  19.463  0.00  0.00    +0.295 HD
ENDBRANCH  29   6
ENDBRANCH  24  29
ENDBRANCH  15  16
ENDBRANCH   8  15
ENDBRANCH  10   8
BRANCH  12  14
ATOM     14  C   UNL     1      15.219  13.393  22.921  0.00  0.00    +0.140 C 
BRANCH  14   9
ATOM      9  N   UNL     1      14.834  12.435  21.866  0.00  0.00    -0.187 NA
ATOM     32  H   UNL     1      13.850  12.137  21.872  0.00  0.00    +0.148 HD
BRANCH   9   1
ATOM      1  S   UNL     1      15.995  11.382  21.205  0.00  0.00    +0.058 S 
ATOM      4  O   UNL     1      16.144  10.228  22.071  0.00  0.00    -0.153 OA
ATOM      5  O   UNL     1      17.158  12.153  20.808  0.00  0.00    -0.153 OA
BRANCH   1  17
ATOM     17  C   UNL     1      15.197  10.850  19.721  0.00  0.00    +0.105 A 
ATOM     20  C   UNL     1      15.231   9.504  19.356  0.00  0.00    +0.029 A 
ATOM     21  C   UNL     1      14.539  11.776  18.912  0.00  0.00    +0.029 A 
ATOM     25  C   UNL     1      14.604   9.084  18.182  0.00  0.00    +0.005 A 
ATOM     26  C   UNL     1      13.912  11.355  17.738  0.00  0.00    +0.005 A 
ATOM     27  C   UNL     1      13.945  10.009  17.374  0.00  0.00    -0.050 A 
ATOM     28  C   UNL     1      13.275   9.559  16.120  0.00  0.00    +0.044 C 
ENDBRANCH   1  17
ENDBRANCH   9   1
ENDBRANCH  14   9
ENDBRANCH  12  14
TORSDOF 10
ENDMDL
MODEL 5
REMARK VINA RESULT:      -5.6     27.439     29.653
REMARK  Name = 75536712
REMARK  11 active torsions:
REMARK  status: ('A' for Active; 'I' for Inactive)
REMARK    1  A    between atoms: S_1  and  N_9
REMARK    2  A    between atoms: S_1  and  C_17
REMARK    3  A    between atoms: O_3  and  C_11
REMARK    4  A    between atoms: O_6  and  C_29
REMARK    5  A    between atoms: N_8  and  C_10
REMARK    6  A    between atoms: N_8  and  C_15
REMARK    7  A    between atoms: N_9  and  C_14
REMARK    8  A    between atoms: C_12  and  C_14
REMARK    9  A    between atoms: C_15  and  C_16
REMARK   10  A    between atoms: C_24  and  C_29
REMARK   11  A    between atoms: C_27  and  C_28
REMARK                            x       y       z     vdW  Elec       q    Type
REMARK                         _______ _______ _______ _____ _____    ______ ____
ROOT
ATOM      2  O   UNL     1      -5.021 -11.518  15.764  0.00  0.00    -0.371 OA
ATOM     10  C   UNL     1      -2.974 -11.127  14.624  0.00  0.00    +0.111 C 
ATOM     11  C   UNL     1      -2.802 -10.766  16.089  0.00  0.00    +0.164 C 
ATOM     12  C   UNL     1      -3.946 -11.547  16.719  0.00  0.00    +0.164 C 
ATOM     13  C   UNL     1      -4.487 -11.118  14.489  0.00  0.00    +0.181 C 
ENDROOT
BRANCH  11   3
ATOM      3  O   UNL     1      -1.545 -11.164  16.604  0.00  0.00    -0.388 OA
ATOM     31  H   UNL     1      -0.850 -10.781  16.044  0.00  0.00    +0.210 HD
ENDBRANCH  11   3
BRANCH  10   8
ATOM      8  N   UNL     1      -2.319 -10.199  13.715  0.00  0.00    -0.305 NA
ATOM     30  H   UNL     1      -1.537  -9.757  14.198  0.00  0.00    +0.123 HD
BRANCH   8  15
ATOM     15  C   UNL     1      -1.816 -10.890  12.534  0.00  0.00    +0.116 C 
BRANCH  15  16
ATOM     16  C   UNL     1      -2.680 -10.639  11.328  0.00  0.00    -0.034 A 
ATOM     18  C   UNL     1      -3.380 -11.693  10.740  0.00  0.00    +0.006 A 
ATOM     19  C   UNL     1      -2.781  -9.353  10.796  0.00  0.00    +0.006 A 
ATOM     22  C   UNL     1      -4.181 -11.461   9.622  0.00  0.00    +0.015 A 
ATOM     23  C   UNL     1      -3.581  -9.122   9.678  0.00  0.00    +0.015 A 
ATOM     24  C   UNL     1      -4.282 -10.175   9.091  0.00  0.00    +0.059 A 
BRANCH  24  29
ATOM      7  O   UNL     1      -5.127 -10.616   6.896  0.00  0.00    -0.245 OA
ATOM     29  C   UNL     1      -5.118  -9.933   7.926  0.00  0.00    +0.337 C 
BRANCH  29   6
ATOM      6  O   UNL     1      -5.920  -8.843   8.077  0.00  0.00    -0.477 OA
ATOM     33  H   UNL     1      -5.684  -8.325   8.876  0.00  0.00    +0.295 HD
ENDBRANCH  29   6
ENDBRANCH  24  29
ENDBRANCH  15  16
ENDBRANCH   8  15
ENDBRANCH  10   8
BRANCH  12  14
ATOM     14  C   UNL     1      -4.417 -10.962  18.039  0.00  0.00    +0.140 C 
BRANCH  14   9
ATOM      9  N   UNL     1      -5.773 -10.401  17.877  0.00  0.00    -0.187 NA
ATOM     32  H   UNL     1      -5.818  -9.395  17.671  0.00  0.00    +0.148 HD
BRANCH   9   1
ATOM      1  S   UNL     1      -7.095 -11.126  18.665  0.00  0.00    +0.058 S 
ATOM      4  O   UNL     1      -6.972 -10.922  20.096  0.00  0.00    -0.153 OA
ATOM      5  O   UNL     1      -7.287 -12.461  18.132  0.00  0.00    -0.153 OA
BRANCH   1  17
ATOM     17  C   UNL     1      -8.444 -10.141  18.088  0.00  0.00    +0.105 A 
ATOM     20  C   UNL     1      -8.233  -9.181  17.099  0.00  0.00    +0.029 A 
ATOM     21  C   UNL     1      -9.719 -10.321  18.626  0.00  0.00    +0.029 A 
ATOM     25  C   UNL     1      -9.298  -8.401  16.646  0.00  0.00    +0.005 A 
ATOM     26  C   UNL     1     -10.783  -9.540  18.173  0.00  0.00    +0.005 A 
ATOM     27  C   UNL     1     -10.572  -8.580  17.183  0.00  0.00    -0.050 A 
ATOM     28  C   UNL     1     -11.710  -7.747  16.698  0.00  0.00    +0.044 C 
ENDBRANCH   1  17
ENDBRANCH   9   1
ENDBRANCH  14   9
ENDBRANCH  12  14
TORSDOF 10
ENDMDL
MODEL 6
REMARK VINA RESULT:      -5.5     27.874     30.467
REMARK  Name = 75536712
REMARK  11 active torsions:
REMARK  status: ('A' for Active; 'I' for Inactive)
REMARK    1  A    between atoms: S_1  and  N_9
REMARK    2  A    between atoms: S_1  and  C_17
REMARK    3  A    between atoms: O_3  and  C_11
REMARK    4  A    between atoms: O_6  and  C_29
REMARK    5  A    between atoms: N_8  and  C_10
REMARK    6  A    between atoms: N_8  and  C_15
REMARK    7  A    between atoms: N_9  and  C_14
REMARK    8  A    between atoms: C_12  and  C_14
REMARK    9  A    between atoms: C_15  and  C_16
REMARK   10  A    between atoms: C_24  and  C_29
REMARK   11  A    between atoms: C_27  and  C_28
REMARK                            x       y       z     vdW  Elec       q    Type
REMARK                         _______ _______ _______ _____ _____    ______ ____
ROOT
ATOM      2  O   UNL     1      -5.137 -11.958  11.752  0.00  0.00    -0.371 OA
ATOM     10  C   UNL     1      -7.224 -11.302  12.677  0.00  0.00    +0.111 C 
ATOM     11  C   UNL     1      -6.124 -10.445  13.279  0.00  0.00    +0.164 C 
ATOM     12  C   UNL     1      -5.023 -10.610  12.241  0.00  0.00    +0.164 C 
ATOM     13  C   UNL     1      -6.426 -12.474  12.129  0.00  0.00    +0.181 C 
ENDROOT
BRANCH  11   3
ATOM      3  O   UNL     1      -6.509  -9.091  13.429  0.00  0.00    -0.388 OA
ATOM     31  H   UNL     1      -7.386  -9.067  13.845  0.00  0.00    +0.210 HD
ENDBRANCH  11   3
BRANCH  10   8
ATOM      8  N   UNL     1      -8.238 -11.708  13.637  0.00  0.00    -0.305 NA
ATOM     30  H   UNL     1      -8.749 -12.507  13.263  0.00  0.00    +0.123 HD
BRANCH   8  15
ATOM     15  C   UNL     1      -7.633 -12.089  14.908  0.00  0.00    +0.116 C 
BRANCH  15  16
ATOM     16  C   UNL     1      -8.424 -11.573  16.082  0.00  0.00    -0.034 A 
ATOM     18  C   UNL     1      -9.203 -12.450  16.836  0.00  0.00    +0.006 A 
ATOM     19  C   UNL     1      -8.377 -10.219  16.413  0.00  0.00    +0.006 A 
ATOM     22  C   UNL     1      -9.937 -11.972  17.923  0.00  0.00    +0.015 A 
ATOM     23  C   UNL     1      -9.110  -9.742  17.500  0.00  0.00    +0.015 A 
ATOM     24  C   UNL     1      -9.889 -10.618  18.256  0.00  0.00    +0.059 A 
BRANCH  24  29
ATOM      7  O   UNL     1     -11.782  -9.624  19.330  0.00  0.00    -0.245 OA
ATOM     29  C   UNL     1     -10.652 -10.120  19.389  0.00  0.00    +0.337 C 
BRANCH  29   6
ATOM      6  O   UNL     1      -9.983 -10.256  20.567  0.00  0.00    -0.477 OA
ATOM     33  H   UNL     1      -9.439  -9.465  20.770  0.00  0.00    +0.295 HD
ENDBRANCH  29   6
ENDBRANCH  24  29
ENDBRANCH  15  16
ENDBRANCH   8  15
ENDBRANCH  10   8
BRANCH  12  14
ATOM     14  C   UNL     1      -3.630 -10.384  12.803  0.00  0.00    +0.140 C 
BRANCH  14   9
ATOM      9  N   UNL     1      -3.693 -10.325  14.276  0.00  0.00    -0.187 NA
ATOM     32  H   UNL     1      -3.759  -9.383  14.683  0.00  0.00    +0.148 HD
BRANCH   9   1
ATOM      1  S   UNL     1      -2.992 -11.563  15.209  0.00  0.00    +0.058 S 
ATOM      4  O   UNL     1      -1.714 -11.111  15.723  0.00  0.00    -0.153 OA
ATOM      5  O   UNL     1      -3.085 -12.813  14.479  0.00  0.00    -0.153 OA
BRANCH   1  17
ATOM     17  C   UNL     1      -4.117 -11.674  16.567  0.00  0.00    +0.105 A 
ATOM     20  C   UNL     1      -4.408 -10.540  17.326  0.00  0.00    +0.029 A 
ATOM     21  C   UNL     1      -4.711 -12.896  16.884  0.00  0.00    +0.029 A 
ATOM     25  C   UNL     1      -5.294 -10.628  18.400  0.00  0.00    +0.005 A 
ATOM     26  C   UNL     1      -5.596 -12.984  17.959  0.00  0.00    +0.005 A 
ATOM     27  C   UNL     1      -5.888 -11.849  18.717  0.00  0.00    -0.050 A 
ATOM     28  C   UNL     1      -6.835 -11.943  19.865  0.00  0.00    +0.044 C 
ENDBRANCH   1  17
ENDBRANCH   9   1
ENDBRANCH  14   9
ENDBRANCH  12  14
TORSDOF 10
ENDMDL
MODEL 7
REMARK VINA RESULT:      -5.4     27.497     29.912
REMARK  Name = 75536712
REMARK  11 active torsions:
REMARK  status: ('A' for Active; 'I' for Inactive)
REMARK    1  A    between atoms: S_1  and  N_9
REMARK    2  A    between atoms: S_1  and  C_17
REMARK    3  A    between atoms: O_3  and  C_11
REMARK    4  A    between atoms: O_6  and  C_29
REMARK    5  A    between atoms: N_8  and  C_10
REMARK    6  A    between atoms: N_8  and  C_15
REMARK    7  A    between atoms: N_9  and  C_14
REMARK    8  A    between atoms: C_12  and  C_14
REMARK    9  A    between atoms: C_15  and  C_16
REMARK   10  A    between atoms: C_24  and  C_29
REMARK   11  A    between atoms: C_27  and  C_28
REMARK                            x       y       z     vdW  Elec       q    Type
REMARK                         _______ _______ _______ _____ _____    ______ ____
ROOT
ATOM      2  O   UNL     1      -2.125  -9.959  12.742  0.00  0.00    -0.371 OA
ATOM     10  C   UNL     1      -1.875 -11.971  13.981  0.00  0.00    +0.111 C 
ATOM     11  C   UNL     1      -2.659 -12.264  12.714  0.00  0.00    +0.164 C 
ATOM     12  C   UNL     1      -2.268 -11.076  11.847  0.00  0.00    +0.164 C 
ATOM     13  C   UNL     1      -2.027 -10.462  14.086  0.00  0.00    +0.181 C 
ENDROOT
BRANCH  11   3
ATOM      3  O   UNL     1      -2.293 -13.495  12.119  0.00  0.00    -0.388 OA
ATOM     31  H   UNL     1      -2.209 -14.160  12.822  0.00  0.00    +0.210 HD
ENDBRANCH  11   3
BRANCH  10   8
ATOM      8  N   UNL     1      -2.376 -12.673  15.152  0.00  0.00    -0.305 NA
ATOM     30  H   UNL     1      -2.216 -12.098  15.979  0.00  0.00    +0.123 HD
BRANCH   8  15
ATOM     15  C   UNL     1      -3.805 -12.938  15.032  0.00  0.00    +0.116 C 
BRANCH  15  16
ATOM     16  C   UNL     1      -4.550 -12.565  16.287  0.00  0.00    -0.034 A 
ATOM     18  C   UNL     1      -5.761 -13.187  16.589  0.00  0.00    +0.006 A 
ATOM     19  C   UNL     1      -4.030 -11.597  17.145  0.00  0.00    +0.006 A 
ATOM     22  C   UNL     1      -6.452 -12.842  17.750  0.00  0.00    +0.015 A 
ATOM     23  C   UNL     1      -4.721 -11.251  18.307  0.00  0.00    +0.015 A 
ATOM     24  C   UNL     1      -5.932 -11.874  18.611  0.00  0.00    +0.059 A 
BRANCH  24  29
ATOM      7  O   UNL     1      -7.877 -11.407  19.922  0.00  0.00    -0.245 OA
ATOM     29  C   UNL     1      -6.651 -11.515  19.822  0.00  0.00    +0.337 C 
BRANCH  29   6
ATOM      6  O   UNL     1      -5.818 -11.299  20.878  0.00  0.00    -0.477 OA
ATOM     33  H   UNL     1      -6.232 -10.727  21.558  0.00  0.00    +0.295 HD
ENDBRANCH  29   6
ENDBRANCH  24  29
ENDBRANCH  15  16
ENDBRANCH   8  15
ENDBRANCH  10   8
BRANCH  12  14
ATOM     14  C   UNL     1      -3.297 -10.748  10.779  0.00  0.00    +0.140 C 
BRANCH  14   9
ATOM      9  N   UNL     1      -4.253  -9.752  11.301  0.00  0.00    -0.187 NA
ATOM     32  H   UNL     1      -3.961  -9.257  12.153  0.00  0.00    +0.148 HD
BRANCH   9   1
ATOM      1  S   UNL     1      -5.917  -9.925  10.995  0.00  0.00    +0.058 S 
ATOM      4  O   UNL     1      -6.169 -11.245  10.448  0.00  0.00    -0.153 OA
ATOM      5  O   UNL     1      -6.395  -8.744  10.302  0.00  0.00    -0.153 OA
BRANCH   1  17
ATOM     17  C   UNL     1      -6.592  -9.874  12.627  0.00  0.00    +0.105 A 
ATOM     20  C   UNL     1      -5.743  -9.902  13.733  0.00  0.00    +0.029 A 
ATOM     21  C   UNL     1      -7.974  -9.811  12.809  0.00  0.00    +0.029 A 
ATOM     25  C   UNL     1      -6.277  -9.864  15.023  0.00  0.00    +0.005 A 
ATOM     26  C   UNL     1      -8.506  -9.774  14.098  0.00  0.00    +0.005 A 
ATOM     27  C   UNL     1      -7.657  -9.801  15.205  0.00  0.00    -0.050 A 
ATOM     28  C   UNL     1      -8.227  -9.761  16.582  0.00  0.00    +0.044 C 
ENDBRANCH   1  17
ENDBRANCH   9   1
ENDBRANCH  14   9
ENDBRANCH  12  14
TORSDOF 10
ENDMDL
MODEL 8
REMARK VINA RESULT:      -5.4     17.030     21.031
REMARK  Name = 75536712
REMARK  11 active torsions:
REMARK  status: ('A' for Active; 'I' for Inactive)
REMARK    1  A    between atoms: S_1  and  N_9
REMARK    2  A    between atoms: S_1  and  C_17
REMARK    3  A    between atoms: O_3  and  C_11
REMARK    4  A    between atoms: O_6  and  C_29
REMARK    5  A    between atoms: N_8  and  C_10
REMARK    6  A    between atoms: N_8  and  C_15
REMARK    7  A    between atoms: N_9  and  C_14
REMARK    8  A    between atoms: C_12  and  C_14
REMARK    9  A    between atoms: C_15  and  C_16
REMARK   10  A    between atoms: C_24  and  C_29
REMARK   11  A    between atoms: C_27  and  C_28
REMARK                            x       y       z     vdW  Elec       q    Type
REMARK                         _______ _______ _______ _____ _____    ______ ____
ROOT
ATOM      2  O   UNL     1      10.555   6.696   1.089  0.00  0.00    -0.371 OA
ATOM     10  C   UNL     1      11.723   6.148   3.084  0.00  0.00    +0.111 C 
ATOM     11  C   UNL     1      11.661   4.920   2.193  0.00  0.00    +0.164 C 
ATOM     12  C   UNL     1      11.394   5.556   0.836  0.00  0.00    +0.164 C 
ATOM     13  C   UNL     1      10.615   7.004   2.494  0.00  0.00    +0.181 C 
ENDROOT
BRANCH  11   3
ATOM      3  O   UNL     1      12.867   4.179   2.200  0.00  0.00    -0.388 OA
ATOM     31  H   UNL     1      13.021   3.838   1.304  0.00  0.00    +0.210 HD
ENDBRANCH  11   3
BRANCH  10   8
ATOM      8  N   UNL     1      11.522   5.855   4.494  0.00  0.00    -0.305 NA
ATOM     30  H   UNL     1      12.253   6.315   5.036  0.00  0.00    +0.123 HD
BRANCH   8  15
ATOM     15  C   UNL     1      10.224   6.338   4.949  0.00  0.00    +0.116 C 
BRANCH  15  16
ATOM     16  C   UNL     1       9.922   5.891   6.355  0.00  0.00    -0.034 A 
ATOM     18  C   UNL     1      10.039   4.545   6.699  0.00  0.00    +0.006 A 
ATOM     19  C   UNL     1       9.525   6.824   7.313  0.00  0.00    +0.006 A 
ATOM     22  C   UNL     1       9.759   4.131   8.001  0.00  0.00    +0.015 A 
ATOM     23  C   UNL     1       9.245   6.410   8.615  0.00  0.00    +0.015 A 
ATOM     24  C   UNL     1       9.363   5.064   8.960  0.00  0.00    +0.059 A 
BRANCH  24  29
ATOM      7  O   UNL     1       7.967   4.689  10.866  0.00  0.00    -0.245 OA
ATOM     29  C   UNL     1       9.072   4.632  10.318  0.00  0.00    +0.337 C 
BRANCH  29   6
ATOM      6  O   UNL     1      10.171   4.142  10.956  0.00  0.00    -0.477 OA
ATOM     33  H   UNL     1      10.180   3.162  10.966  0.00  0.00    +0.295 HD
ENDBRANCH  29   6
ENDBRANCH  24  29
ENDBRANCH  15  16
ENDBRANCH   8  15
ENDBRANCH  10   8
BRANCH  12  14
ATOM     14  C   UNL     1      10.705   4.619  -0.141  0.00  0.00    +0.140 C 
BRANCH  14   9
ATOM      9  N   UNL     1      11.657   3.586  -0.593  0.00  0.00    -0.187 NA
ATOM     32  H   UNL     1      12.300   3.227   0.125  0.00  0.00    +0.148 HD
BRANCH   9   1
ATOM      1  S   UNL     1      12.150   3.535  -2.220  0.00  0.00    +0.058 S 
ATOM      4  O   UNL     1      11.404   4.520  -2.979  0.00  0.00    -0.153 OA
ATOM      5  O   UNL     1      12.189   2.152  -2.658  0.00  0.00    -0.153 OA
BRANCH   1  17
ATOM     17  C   UNL     1      13.825   4.088  -2.109  0.00  0.00    +0.105 A 
ATOM     20  C   UNL     1      14.524   3.956  -0.909  0.00  0.00    +0.029 A 
ATOM     21  C   UNL     1      14.446   4.661  -3.219  0.00  0.00    +0.029 A 
ATOM     25  C   UNL     1      15.845   4.396  -0.820  0.00  0.00    +0.005 A 
ATOM     26  C   UNL     1      15.768   5.100  -3.129  0.00  0.00    +0.005 A 
ATOM     27  C   UNL     1      16.467   4.967  -1.929  0.00  0.00    -0.050 A 
ATOM     28  C   UNL     1      17.879   5.437  -1.833  0.00  0.00    +0.044 C 
ENDBRANCH   1  17
ENDBRANCH   9   1
ENDBRANCH  14   9
ENDBRANCH  12  14
TORSDOF 10
ENDMDL
MODEL 9
REMARK VINA RESULT:      -5.4     27.832     30.573
REMARK  Name = 75536712
REMARK  11 active torsions:
REMARK  status: ('A' for Active; 'I' for Inactive)
REMARK    1  A    between atoms: S_1  and  N_9
REMARK    2  A    between atoms: S_1  and  C_17
REMARK    3  A    between atoms: O_3  and  C_11
REMARK    4  A    between atoms: O_6  and  C_29
REMARK    5  A    between atoms: N_8  and  C_10
REMARK    6  A    between atoms: N_8  and  C_15
REMARK    7  A    between atoms: N_9  and  C_14
REMARK    8  A    between atoms: C_12  and  C_14
REMARK    9  A    between atoms: C_15  and  C_16
REMARK   10  A    between atoms: C_24  and  C_29
REMARK   11  A    between atoms: C_27  and  C_28
REMARK                            x       y       z     vdW  Elec       q    Type
REMARK                         _______ _______ _______ _____ _____    ______ ____
ROOT
ATOM      2  O   UNL     1     -10.956 -11.631  17.742  0.00  0.00    -0.371 OA
ATOM     10  C   UNL     1      -9.353 -11.648  19.495  0.00  0.00    +0.111 C 
ATOM     11  C   UNL     1     -10.163 -10.367  19.578  0.00  0.00    +0.164 C 
ATOM     12  C   UNL     1     -11.406 -10.756  18.790  0.00  0.00    +0.164 C 
ATOM     13  C   UNL     1      -9.630 -12.088  18.068  0.00  0.00    +0.181 C 
ENDROOT
BRANCH  11   3
ATOM      3  O   UNL     1     -10.475 -10.003  20.910  0.00  0.00    -0.388 OA
ATOM     31  H   UNL     1      -9.965  -9.208  21.136  0.00  0.00    +0.210 HD
ENDBRANCH  11   3
BRANCH  10   8
ATOM      8  N   UNL     1      -7.936 -11.459  19.764  0.00  0.00    -0.305 NA
ATOM     30  H   UNL     1      -7.800 -11.346  20.768  0.00  0.00    +0.123 HD
BRANCH   8  15
ATOM     15  C   UNL     1      -7.159 -12.607  19.310  0.00  0.00    +0.116 C 
BRANCH  15  16
ATOM     16  C   UNL     1      -6.008 -12.192  18.433  0.00  0.00    -0.034 A 
ATOM     18  C   UNL     1      -5.640 -12.984  17.344  0.00  0.00    +0.006 A 
ATOM     19  C   UNL     1      -5.308 -11.018  18.708  0.00  0.00    +0.006 A 
ATOM     22  C   UNL     1      -4.573 -12.601  16.532  0.00  0.00    +0.015 A 
ATOM     23  C   UNL     1      -4.241 -10.634  17.896  0.00  0.00    +0.015 A 
ATOM     24  C   UNL     1      -3.874 -11.425  16.807  0.00  0.00    +0.059 A 
BRANCH  24  29
ATOM      7  O   UNL     1      -2.851 -10.684  14.775  0.00  0.00    -0.245 OA
ATOM     29  C   UNL     1      -2.763 -11.024  15.959  0.00  0.00    +0.337 C 
BRANCH  29   6
ATOM      6  O   UNL     1      -1.569 -11.060  16.614  0.00  0.00    -0.477 OA
ATOM     33  H   UNL     1      -1.148 -11.944  16.556  0.00  0.00    +0.295 HD
ENDBRANCH  29   6
ENDBRANCH  24  29
ENDBRANCH  15  16
ENDBRANCH   8  15
ENDBRANCH  10   8
BRANCH  12  14
ATOM     14  C   UNL     1     -12.132  -9.565  18.187  0.00  0.00    +0.140 C 
BRANCH  14   9
ATOM      9  N   UNL     1     -11.727  -9.401  16.777  0.00  0.00    -0.187 NA
ATOM     32  H   UNL     1     -11.724 -10.259  16.211  0.00  0.00    +0.148 HD
BRANCH   9   1
ATOM      1  S   UNL     1     -10.685  -8.133  16.332  0.00  0.00    +0.058 S 
ATOM      4  O   UNL     1     -10.154  -7.506  17.528  0.00  0.00    -0.153 OA
ATOM      5  O   UNL     1     -11.329  -7.329  15.311  0.00  0.00    -0.153 OA
BRANCH   1  17
ATOM     17  C   UNL     1      -9.366  -9.007  15.546  0.00  0.00    +0.105 A 
ATOM     20  C   UNL     1      -9.478  -9.378  14.205  0.00  0.00    +0.029 A 
ATOM     21  C   UNL     1      -8.216  -9.332  16.266  0.00  0.00    +0.029 A 
ATOM     25  C   UNL     1      -8.438 -10.071  13.585  0.00  0.00    +0.005 A 
ATOM     26  C   UNL     1      -7.177 -10.026  15.645  0.00  0.00    +0.005 A 
ATOM     27  C   UNL     1      -7.288 -10.395  14.304  0.00  0.00    -0.050 A 
ATOM     28  C   UNL     1      -6.178 -11.136  13.640  0.00  0.00    +0.044 C 
ENDBRANCH   1  17
ENDBRANCH   9   1
ENDBRANCH  14   9
ENDBRANCH  12  14
TORSDOF 10
ENDMDL
MODEL 10
REMARK VINA RESULT:      -5.3     27.612     30.762
REMARK  Name = 75536712
REMARK  11 active torsions:
REMARK  status: ('A' for Active; 'I' for Inactive)
REMARK    1  A    between atoms: S_1  and  N_9
REMARK    2  A    between atoms: S_1  and  C_17
REMARK    3  A    between atoms: O_3  and  C_11
REMARK    4  A    between atoms: O_6  and  C_29
REMARK    5  A    between atoms: N_8  and  C_10
REMARK    6  A    between atoms: N_8  and  C_15
REMARK    7  A    between atoms: N_9  and  C_14
REMARK    8  A    between atoms: C_12  and  C_14
REMARK    9  A    between atoms: C_15  and  C_16
REMARK   10  A    between atoms: C_24  and  C_29
REMARK   11  A    between atoms: C_27  and  C_28
REMARK                            x       y       z     vdW  Elec       q    Type
REMARK                         _______ _______ _______ _____ _____    ______ ____
ROOT
ATOM      2  O   UNL     1     -11.295 -10.358  16.639  0.00  0.00    -0.371 OA
ATOM     10  C   UNL     1      -9.679  -8.980  17.703  0.00  0.00    +0.111 C 
ATOM     11  C   UNL     1     -10.095  -8.335  16.393  0.00  0.00    +0.164 C 
ATOM     12  C   UNL     1     -11.433  -9.015  16.142  0.00  0.00    +0.164 C 
ATOM     13  C   UNL     1     -10.136 -10.413  17.490  0.00  0.00    +0.181 C 
ENDROOT
BRANCH  11   3
ATOM      3  O   UNL     1     -10.229  -6.930  16.495  0.00  0.00    -0.388 OA
ATOM     31  H   UNL     1      -9.799  -6.641  17.317  0.00  0.00    +0.210 HD
ENDBRANCH  11   3
BRANCH  10   8
ATOM      8  N   UNL     1      -8.255  -8.875  17.978  0.00  0.00    -0.305 NA
ATOM     30  H   UNL     1      -8.118  -8.280  18.795  0.00  0.00    +0.123 HD
BRANCH   8  15
ATOM     15  C   UNL     1      -7.676 -10.186  18.247  0.00  0.00    +0.116 C 
BRANCH  15  16
ATOM     16  C   UNL     1      -6.358 -10.370  17.542  0.00  0.00    -0.034 A 
ATOM     18  C   UNL     1      -6.166  -9.831  16.270  0.00  0.00    +0.006 A 
ATOM     19  C   UNL     1      -5.329 -11.080  18.162  0.00  0.00    +0.006 A 
ATOM     22  C   UNL     1      -4.945 -10.003  15.617  0.00  0.00    +0.015 A 
ATOM     23  C   UNL     1      -4.109 -11.252  17.509  0.00  0.00    +0.015 A 
ATOM     24  C   UNL     1      -3.916 -10.712  16.237  0.00  0.00    +0.059 A 
BRANCH  24  29
ATOM      7  O   UNL     1      -2.197 -11.963  15.139  0.00  0.00    -0.245 OA
ATOM     29  C   UNL     1      -2.643 -10.890  15.557  0.00  0.00    +0.337 C 
BRANCH  29   6
ATOM      6  O   UNL     1      -1.959  -9.720  15.417  0.00  0.00    -0.477 OA
ATOM     33  H   UNL     1      -2.467  -8.957  15.767  0.00  0.00    +0.295 HD
ENDBRANCH  29   6
ENDBRANCH  24  29
ENDBRANCH  15  16
ENDBRANCH   8  15
ENDBRANCH  10   8
BRANCH  12  14
ATOM     14  C   UNL     1     -11.825  -9.048  14.675  0.00  0.00    +0.140 C 
BRANCH  14   9
ATOM      9  N   UNL     1     -11.606  -7.718  14.074  0.00  0.00    -0.187 NA
ATOM     32  H   UNL     1     -10.634  -7.383  14.073  0.00  0.00    +0.148 HD
BRANCH   9   1
ATOM      1  S   UNL     1     -12.859  -6.568  14.071  0.00  0.00    +0.058 S 
ATOM      4  O   UNL     1     -12.723  -5.707  15.230  0.00  0.00    -0.153 OA
ATOM      5  O   UNL     1     -14.116  -7.241  13.804  0.00  0.00    -0.153 OA
BRANCH   1  17
ATOM     17  C   UNL     1     -12.470  -5.613  12.635  0.00  0.00    +0.105 A 
ATOM     20  C   UNL     1     -12.248  -6.250  11.414  0.00  0.00    +0.029 A 
ATOM     21  C   UNL     1     -12.381  -4.224  12.725  0.00  0.00    +0.029 A 
ATOM     25  C   UNL     1     -11.938  -5.496  10.281  0.00  0.00    +0.005 A 
ATOM     26  C   UNL     1     -12.070  -3.471  11.591  0.00  0.00    +0.005 A 
ATOM     27  C   UNL     1     -11.849  -4.108  10.370  0.00  0.00    -0.050 A 
ATOM     28  C   UNL     1     -11.517  -3.303   9.159  0.00  0.00    +0.044 C 
ENDBRANCH   1  17
ENDBRANCH   9   1
ENDBRANCH  14   9
ENDBRANCH  12  14
TORSDOF 10
ENDMDL
