MODEL 1
REMARK VINA RESULT:      -7.4      0.000      0.000
REMARK  Name = 9419217
REMARK  3 active torsions:
REMARK  status: ('A' for Active; 'I' for Inactive)
REMARK    1  A    between atoms: C_14  and  C_19
REMARK    2  A    between atoms: C_16  and  C_20
REMARK    3  A    between atoms: C_24  and  C_29
REMARK                            x       y       z     vdW  Elec       q    Type
REMARK                         _______ _______ _______ _____ _____    ______ ____
ROOT
ATOM      1  O   UNL     1      11.046   9.203  17.290  0.00  0.00    -0.268 OA
ATOM      2  O   UNL     1      11.665  11.528  21.213  0.00  0.00    -0.267 OA
ATOM      4  N   UNL     1      12.174   8.285  19.124  0.00  0.00    -0.311 N 
ATOM      5  N   UNL     1      12.448   9.484  22.033  0.00  0.00    -0.294 N 
ATOM      7  C   UNL     1      10.939   7.661  21.284  0.00  0.00    +0.027 C 
ATOM      8  C   UNL     1      13.376   7.361  21.130  0.00  0.00    +0.054 C 
ATOM      9  C   UNL     1      12.063   6.653  21.464  0.00  0.00    +0.018 C 
ATOM     10  C   UNL     1      10.892   8.079  19.813  0.00  0.00    +0.130 C 
ATOM     11  C   UNL     1      11.137   8.865  22.220  0.00  0.00    +0.113 C 
ATOM     12  C   UNL     1      13.581   8.548  22.095  0.00  0.00    +0.117 C 
ATOM     13  C   UNL     1      13.396   7.855  19.681  0.00  0.00    +0.034 A 
ATOM     14  C   UNL     1      14.537   7.922  18.946  0.00  0.00    +0.002 A 
ATOM     15  C   UNL     1      12.086   8.826  17.829  0.00  0.00    +0.252 A 
ATOM     16  C   UNL     1      12.532  10.851  21.765  0.00  0.00    +0.282 C 
ATOM     17  C   UNL     1      14.484   8.478  17.607  0.00  0.00    +0.015 A 
ATOM     18  C   UNL     1      13.351   8.923  17.066  0.00  0.00    +0.071 A 
ENDROOT
BRANCH  14  19
ATOM     19  C   UNL     1      15.836   7.459  19.480  0.00  0.00    -0.015 A 
ATOM     21  C   UNL     1      16.564   8.280  20.335  0.00  0.00    +0.027 A 
ATOM     22  C   UNL     1      16.321   6.203  19.124  0.00  0.00    +0.008 A 
ATOM     24  C   UNL     1      17.790   7.843  20.838  0.00  0.00    +0.052 A 
ATOM     25  C   UNL     1      17.546   5.766  19.627  0.00  0.00    +0.002 A 
ATOM     26  C   UNL     1      18.281   6.586  20.485  0.00  0.00    +0.019 A 
BRANCH  24  29
ATOM      6  N   UNL     1      19.155   9.364  22.431  0.00  0.00    -0.191 NA
ATOM     29  C   UNL     1      18.543   8.682  21.717  0.00  0.00    +0.099 C 
ENDBRANCH  24  29
ENDBRANCH  14  19
BRANCH  16  20
ATOM      3  O   UNL     1      13.780  12.163  23.360  0.00  0.00    -0.458 OA
ATOM     20  C   UNL     1      13.759  11.560  22.148  0.00  0.00    +0.189 A 
ATOM     23  C   UNL     1      14.942  11.738  21.484  0.00  0.00    +0.054 A 
ATOM     27  C   UNL     1      15.758  12.507  22.348  0.00  0.00    +0.042 A 
ATOM     28  C   UNL     1      15.005  12.740  23.476  0.00  0.00    +0.196 A 
ENDBRANCH  16  20
TORSDOF 3
ENDMDL
MODEL 2
REMARK VINA RESULT:      -6.8     14.064     16.793
REMARK  Name = 9419217
REMARK  3 active torsions:
REMARK  status: ('A' for Active; 'I' for Inactive)
REMARK    1  A    between atoms: C_14  and  C_19
REMARK    2  A    between atoms: C_16  and  C_20
REMARK    3  A    between atoms: C_24  and  C_29
REMARK                            x       y       z     vdW  Elec       q    Type
REMARK                         _______ _______ _______ _____ _____    ______ ____
ROOT
ATOM      1  O   UNL     1       7.246   9.000   4.223  0.00  0.00    -0.268 OA
ATOM      2  O   UNL     1      11.002   9.907   6.722  0.00  0.00    -0.267 OA
ATOM      4  N   UNL     1       8.792   7.341   4.806  0.00  0.00    -0.311 N 
ATOM      5  N   UNL     1      11.246   7.583   6.778  0.00  0.00    -0.294 N 
ATOM      7  C   UNL     1       9.043   6.532   7.227  0.00  0.00    +0.027 C 
ATOM      8  C   UNL     1      10.491   5.611   5.465  0.00  0.00    +0.054 C 
ATOM      9  C   UNL     1       9.527   5.238   6.591  0.00  0.00    +0.018 C 
ATOM     10  C   UNL     1       8.264   7.327   6.178  0.00  0.00    +0.130 C 
ATOM     11  C   UNL     1      10.227   7.332   7.795  0.00  0.00    +0.113 C 
ATOM     12  C   UNL     1      11.692   6.385   6.051  0.00  0.00    +0.117 C 
ATOM     13  C   UNL     1       9.801   6.451   4.388  0.00  0.00    +0.034 A 
ATOM     14  C   UNL     1      10.151   6.390   3.076  0.00  0.00    +0.002 A 
ATOM     15  C   UNL     1       8.142   8.214   3.915  0.00  0.00    +0.252 A 
ATOM     16  C   UNL     1      11.671   8.891   6.537  0.00  0.00    +0.282 C 
ATOM     17  C   UNL     1       9.503   7.278   2.129  0.00  0.00    +0.015 A 
ATOM     18  C   UNL     1       8.569   8.153   2.499  0.00  0.00    +0.071 A 
ENDROOT
BRANCH  14  19
ATOM     19  C   UNL     1      11.186   5.453   2.589  0.00  0.00    -0.015 A 
ATOM     21  C   UNL     1      12.421   5.942   2.174  0.00  0.00    +0.027 A 
ATOM     22  C   UNL     1      10.919   4.087   2.548  0.00  0.00    +0.008 A 
ATOM     24  C   UNL     1      13.398   5.057   1.714  0.00  0.00    +0.052 A 
ATOM     25  C   UNL     1      11.894   3.203   2.089  0.00  0.00    +0.002 A 
ATOM     26  C   UNL     1      13.134   3.689   1.672  0.00  0.00    +0.019 A 
BRANCH  24  29
ATOM      6  N   UNL     1      15.700   5.957   0.938  0.00  0.00    -0.191 NA
ATOM     29  C   UNL     1      14.668   5.554   1.286  0.00  0.00    +0.099 C 
ENDBRANCH  24  29
ENDBRANCH  14  19
BRANCH  16  20
ATOM      3  O   UNL     1      14.057   9.029   6.868  0.00  0.00    -0.458 OA
ATOM     20  C   UNL     1      13.021   9.094   5.999  0.00  0.00    +0.189 A 
ATOM     23  C   UNL     1      13.455   9.349   4.726  0.00  0.00    +0.054 A 
ATOM     27  C   UNL     1      14.864   9.450   4.813  0.00  0.00    +0.042 A 
ATOM     28  C   UNL     1      15.181   9.247   6.136  0.00  0.00    +0.196 A 
ENDBRANCH  16  20
TORSDOF 3
ENDMDL
MODEL 3
REMARK VINA RESULT:      -6.6      1.987      3.510
REMARK  Name = 9419217
REMARK  3 active torsions:
REMARK  status: ('A' for Active; 'I' for Inactive)
REMARK    1  A    between atoms: C_14  and  C_19
REMARK    2  A    between atoms: C_16  and  C_20
REMARK    3  A    between atoms: C_24  and  C_29
REMARK                            x       y       z     vdW  Elec       q    Type
REMARK                         _______ _______ _______ _____ _____    ______ ____
ROOT
ATOM      1  O   UNL     1      13.082   8.553  16.574  0.00  0.00    -0.268 OA
ATOM      2  O   UNL     1      10.622   8.840  20.452  0.00  0.00    -0.267 OA
ATOM      4  N   UNL     1      14.081   8.564  18.692  0.00  0.00    -0.311 N 
ATOM      5  N   UNL     1      12.661   8.399  21.508  0.00  0.00    -0.294 N 
ATOM      7  C   UNL     1      13.840   6.579  20.299  0.00  0.00    +0.027 C 
ATOM      8  C   UNL     1      15.087   8.582  20.995  0.00  0.00    +0.054 C 
ATOM      9  C   UNL     1      15.168   7.061  20.862  0.00  0.00    +0.018 C 
ATOM     10  C   UNL     1      13.664   7.170  18.899  0.00  0.00    +0.130 C 
ATOM     11  C   UNL     1      12.683   6.963  21.237  0.00  0.00    +0.113 C 
ATOM     12  C   UNL     1      13.944   8.955  21.963  0.00  0.00    +0.117 C 
ATOM     13  C   UNL     1      14.864   9.254  19.638  0.00  0.00    +0.034 A 
ATOM     14  C   UNL     1      15.360  10.484  19.340  0.00  0.00    +0.002 A 
ATOM     15  C   UNL     1      13.750   9.116  17.442  0.00  0.00    +0.252 A 
ATOM     16  C   UNL     1      11.492   9.126  21.274  0.00  0.00    +0.282 C 
ATOM     17  C   UNL     1      15.036  11.087  18.061  0.00  0.00    +0.015 A 
ATOM     18  C   UNL     1      14.271  10.473  17.159  0.00  0.00    +0.071 A 
ENDROOT
BRANCH  14  19
ATOM     19  C   UNL     1      16.208  11.234  20.293  0.00  0.00    -0.015 A 
ATOM     21  C   UNL     1      17.563  10.936  20.395  0.00  0.00    +0.027 A 
ATOM     22  C   UNL     1      15.644  12.233  21.082  0.00  0.00    +0.008 A 
ATOM     24  C   UNL     1      18.362  11.642  21.294  0.00  0.00    +0.052 A 
ATOM     25  C   UNL     1      16.442  12.939  21.980  0.00  0.00    +0.002 A 
ATOM     26  C   UNL     1      17.802  12.644  22.087  0.00  0.00    +0.019 A 
BRANCH  24  29
ATOM      6  N   UNL     1      20.887  11.096  21.493  0.00  0.00    -0.191 NA
ATOM     29  C   UNL     1      19.755  11.341  21.404  0.00  0.00    +0.099 C 
ENDBRANCH  24  29
ENDBRANCH  14  19
BRANCH  16  20
ATOM      3  O   UNL     1      10.916  10.212  23.350  0.00  0.00    -0.458 OA
ATOM     20  C   UNL     1      11.270  10.351  22.051  0.00  0.00    +0.189 A 
ATOM     23  C   UNL     1      11.356  11.670  21.698  0.00  0.00    +0.054 A 
ATOM     27  C   UNL     1      11.031  12.403  22.864  0.00  0.00    +0.042 A 
ATOM     28  C   UNL     1      10.771  11.471  23.841  0.00  0.00    +0.196 A 
ENDBRANCH  16  20
TORSDOF 3
ENDMDL
MODEL 4
REMARK VINA RESULT:      -6.4     13.843     17.160
REMARK  Name = 9419217
REMARK  3 active torsions:
REMARK  status: ('A' for Active; 'I' for Inactive)
REMARK    1  A    between atoms: C_14  and  C_19
REMARK    2  A    between atoms: C_16  and  C_20
REMARK    3  A    between atoms: C_24  and  C_29
REMARK                            x       y       z     vdW  Elec       q    Type
REMARK                         _______ _______ _______ _____ _____    ______ ____
ROOT
ATOM      1  O   UNL     1      10.548   5.138   8.673  0.00  0.00    -0.268 OA
ATOM      2  O   UNL     1       9.386   9.461   7.605  0.00  0.00    -0.267 OA
ATOM      4  N   UNL     1      11.366   6.219   6.763  0.00  0.00    -0.311 N 
ATOM      5  N   UNL     1      11.035   9.255   5.961  0.00  0.00    -0.294 N 
ATOM      7  C   UNL     1      13.038   8.158   6.932  0.00  0.00    +0.027 C 
ATOM      8  C   UNL     1      12.205   7.438   4.732  0.00  0.00    +0.054 C 
ATOM      9  C   UNL     1      13.471   7.713   5.543  0.00  0.00    +0.018 C 
ATOM     10  C   UNL     1      12.287   7.004   7.599  0.00  0.00    +0.130 C 
ATOM     11  C   UNL     1      12.181   9.433   6.850  0.00  0.00    +0.113 C 
ATOM     12  C   UNL     1      11.368   8.732   4.628  0.00  0.00    +0.117 C 
ATOM     13  C   UNL     1      11.367   6.322   5.358  0.00  0.00    +0.034 A 
ATOM     14  C   UNL     1      10.613   5.468   4.616  0.00  0.00    +0.002 A 
ATOM     15  C   UNL     1      10.577   5.280   7.450  0.00  0.00    +0.252 A 
ATOM     16  C   UNL     1       9.750   9.530   6.432  0.00  0.00    +0.282 C 
ATOM     17  C   UNL     1       9.783   4.488   5.291  0.00  0.00    +0.015 A 
ATOM     18  C   UNL     1       9.736   4.389   6.618  0.00  0.00    +0.071 A 
ENDROOT
BRANCH  14  19
ATOM     19  C   UNL     1      10.603   5.522   3.138  0.00  0.00    -0.015 A 
ATOM     21  C   UNL     1      11.419   4.663   2.408  0.00  0.00    +0.027 A 
ATOM     22  C   UNL     1       9.776   6.433   2.486  0.00  0.00    +0.008 A 
ATOM     24  C   UNL     1      11.410   4.715   1.014  0.00  0.00    +0.052 A 
ATOM     25  C   UNL     1       9.767   6.486   1.092  0.00  0.00    +0.002 A 
ATOM     26  C   UNL     1      10.583   5.626   0.356  0.00  0.00    +0.019 A 
BRANCH  24  29
ATOM      6  N   UNL     1      12.925   3.120  -0.353  0.00  0.00    -0.191 NA
ATOM     29  C   UNL     1      12.245   3.836   0.260  0.00  0.00    +0.099 C 
ENDBRANCH  24  29
ENDBRANCH  14  19
BRANCH  16  20
ATOM      3  O   UNL     1       8.585  11.238   5.187  0.00  0.00    -0.458 OA
ATOM     20  C   UNL     1       8.722   9.919   5.459  0.00  0.00    +0.189 A 
ATOM     23  C   UNL     1       7.832   9.168   4.740  0.00  0.00    +0.054 A 
ATOM     27  C   UNL     1       7.089  10.089   3.964  0.00  0.00    +0.042 A 
ATOM     28  C   UNL     1       7.584  11.335   4.272  0.00  0.00    +0.196 A 
ENDBRANCH  16  20
TORSDOF 3
ENDMDL
MODEL 5
REMARK VINA RESULT:      -6.2     16.185     20.009
REMARK  Name = 9419217
REMARK  3 active torsions:
REMARK  status: ('A' for Active; 'I' for Inactive)
REMARK    1  A    between atoms: C_14  and  C_19
REMARK    2  A    between atoms: C_16  and  C_20
REMARK    3  A    between atoms: C_24  and  C_29
REMARK                            x       y       z     vdW  Elec       q    Type
REMARK                         _______ _______ _______ _____ _____    ______ ____
ROOT
ATOM      1  O   UNL     1      15.917   6.985   1.363  0.00  0.00    -0.268 OA
ATOM      2  O   UNL     1      12.677   6.464  -1.862  0.00  0.00    -0.267 OA
ATOM      4  N   UNL     1      13.970   5.738   1.735  0.00  0.00    -0.311 N 
ATOM      5  N   UNL     1      11.760   4.918  -0.366  0.00  0.00    -0.294 N 
ATOM      7  C   UNL     1      13.569   3.493   0.560  0.00  0.00    +0.027 C 
ATOM      8  C   UNL     1      11.858   4.417   2.067  0.00  0.00    +0.054 C 
ATOM      9  C   UNL     1      12.705   3.180   1.772  0.00  0.00    +0.018 C 
ATOM     10  C   UNL     1      14.514   4.641   0.922  0.00  0.00    +0.130 C 
ATOM     11  C   UNL     1      12.693   3.831  -0.658  0.00  0.00    +0.113 C 
ATOM     12  C   UNL     1      10.958   4.728   0.851  0.00  0.00    +0.117 C 
ATOM     13  C   UNL     1      12.731   5.630   2.396  0.00  0.00    +0.034 A 
ATOM     14  C   UNL     1      12.337   6.602   3.262  0.00  0.00    +0.002 A 
ATOM     15  C   UNL     1      14.820   6.846   1.904  0.00  0.00    +0.252 A 
ATOM     16  C   UNL     1      11.733   6.041  -1.196  0.00  0.00    +0.282 C 
ATOM     17  C   UNL     1      13.187   7.761   3.458  0.00  0.00    +0.015 A 
ATOM     18  C   UNL     1      14.349   7.907   2.822  0.00  0.00    +0.071 A 
ENDROOT
BRANCH  14  19
ATOM     19  C   UNL     1      11.057   6.518   3.997  0.00  0.00    -0.015 A 
ATOM     21  C   UNL     1      11.002   5.850   5.216  0.00  0.00    +0.027 A 
ATOM     22  C   UNL     1       9.914   7.107   3.463  0.00  0.00    +0.008 A 
ATOM     24  C   UNL     1       9.793   5.770   5.909  0.00  0.00    +0.052 A 
ATOM     25  C   UNL     1       8.706   7.027   4.155  0.00  0.00    +0.002 A 
ATOM     26  C   UNL     1       8.645   6.359   5.379  0.00  0.00    +0.019 A 
BRANCH  24  29
ATOM      6  N   UNL     1       9.679   4.528   8.180  0.00  0.00    -0.191 NA
ATOM     29  C   UNL     1       9.730   5.085   7.161  0.00  0.00    +0.099 C 
ENDBRANCH  24  29
ENDBRANCH  14  19
BRANCH  16  20
ATOM      3  O   UNL     1       9.591   6.451  -2.230  0.00  0.00    -0.458 OA
ATOM     20  C   UNL     1      10.486   6.811  -1.280  0.00  0.00    +0.189 A 
ATOM     23  C   UNL     1      10.032   7.875  -0.548  0.00  0.00    +0.054 A 
ATOM     27  C   UNL     1       8.762   8.197  -1.083  0.00  0.00    +0.042 A 
ATOM     28  C   UNL     1       8.540   7.302  -2.104  0.00  0.00    +0.196 A 
ENDBRANCH  16  20
TORSDOF 3
ENDMDL
MODEL 6
REMARK VINA RESULT:      -6.2     27.577     29.596
REMARK  Name = 9419217
REMARK  3 active torsions:
REMARK  status: ('A' for Active; 'I' for Inactive)
REMARK    1  A    between atoms: C_14  and  C_19
REMARK    2  A    between atoms: C_16  and  C_20
REMARK    3  A    between atoms: C_24  and  C_29
REMARK                            x       y       z     vdW  Elec       q    Type
REMARK                         _______ _______ _______ _____ _____    ______ ____
ROOT
ATOM      1  O   UNL     1      -7.391 -14.816  17.174  0.00  0.00    -0.268 OA
ATOM      2  O   UNL     1      -9.290 -10.887  18.636  0.00  0.00    -0.267 OA
ATOM      4  N   UNL     1      -6.448 -12.722  16.715  0.00  0.00    -0.311 N 
ATOM      5  N   UNL     1      -7.312  -9.910  17.862  0.00  0.00    -0.294 N 
ATOM      7  C   UNL     1      -5.377 -11.299  18.561  0.00  0.00    +0.027 C 
ATOM      8  C   UNL     1      -5.490 -10.444  16.257  0.00  0.00    +0.054 C 
ATOM      9  C   UNL     1      -4.546 -10.716  17.428  0.00  0.00    +0.018 C 
ATOM     10  C   UNL     1      -5.958 -12.636  18.098  0.00  0.00    +0.130 C 
ATOM     11  C   UNL     1      -6.475 -10.311  18.991  0.00  0.00    +0.113 C 
ATOM     12  C   UNL     1      -6.569  -9.427  16.689  0.00  0.00    +0.117 C 
ATOM     13  C   UNL     1      -6.153 -11.730  15.759  0.00  0.00    +0.034 A 
ATOM     14  C   UNL     1      -6.490 -11.923  14.456  0.00  0.00    +0.002 A 
ATOM     15  C   UNL     1      -7.121 -13.912  16.383  0.00  0.00    +0.252 A 
ATOM     16  C   UNL     1      -8.698 -10.057  17.947  0.00  0.00    +0.282 C 
ATOM     17  C   UNL     1      -7.189 -13.137  14.078  0.00  0.00    +0.015 A 
ATOM     18  C   UNL     1      -7.511 -14.078  14.965  0.00  0.00    +0.071 A 
ENDROOT
BRANCH  14  19
ATOM     19  C   UNL     1      -6.178 -10.921  13.414  0.00  0.00    -0.015 A 
ATOM     21  C   UNL     1      -4.898 -10.863  12.871  0.00  0.00    +0.027 A 
ATOM     22  C   UNL     1      -7.167 -10.041  12.984  0.00  0.00    +0.008 A 
ATOM     24  C   UNL     1      -4.604  -9.916  11.890  0.00  0.00    +0.052 A 
ATOM     25  C   UNL     1      -6.873  -9.094  12.003  0.00  0.00    +0.002 A 
ATOM     26  C   UNL     1      -5.591  -9.032  11.455  0.00  0.00    +0.019 A 
BRANCH  24  29
ATOM      6  N   UNL     1      -2.224  -9.799  10.872  0.00  0.00    -0.191 NA
ATOM     29  C   UNL     1      -3.291  -9.851  11.328  0.00  0.00    +0.099 C 
ENDBRANCH  24  29
ENDBRANCH  14  19
BRANCH  16  20
ATOM      3  O   UNL     1      -9.812  -7.940  17.637  0.00  0.00    -0.458 OA
ATOM     20  C   UNL     1      -9.541  -9.169  17.139  0.00  0.00    +0.189 A 
ATOM     23  C   UNL     1     -10.135  -9.353  15.919  0.00  0.00    +0.054 A 
ATOM     27  C   UNL     1     -10.825  -8.148  15.641  0.00  0.00    +0.042 A 
ATOM     28  C   UNL     1     -10.598  -7.321  16.717  0.00  0.00    +0.196 A 
ENDBRANCH  16  20
TORSDOF 3
ENDMDL
MODEL 7
REMARK VINA RESULT:      -6.1     27.369     29.266
REMARK  Name = 9419217
REMARK  3 active torsions:
REMARK  status: ('A' for Active; 'I' for Inactive)
REMARK    1  A    between atoms: C_14  and  C_19
REMARK    2  A    between atoms: C_16  and  C_20
REMARK    3  A    between atoms: C_24  and  C_29
REMARK                            x       y       z     vdW  Elec       q    Type
REMARK                         _______ _______ _______ _____ _____    ______ ____
ROOT
ATOM      1  O   UNL     1      -5.392 -15.345  16.716  0.00  0.00    -0.268 OA
ATOM      2  O   UNL     1      -8.291 -11.813  17.265  0.00  0.00    -0.267 OA
ATOM      4  N   UNL     1      -4.758 -13.129  16.304  0.00  0.00    -0.311 N 
ATOM      5  N   UNL     1      -6.390 -10.497  16.918  0.00  0.00    -0.294 N 
ATOM      7  C   UNL     1      -4.490 -11.434  18.211  0.00  0.00    +0.027 C 
ATOM      8  C   UNL     1      -4.143 -10.729  15.879  0.00  0.00    +0.054 C 
ATOM      9  C   UNL     1      -3.509 -10.750  17.270  0.00  0.00    +0.018 C 
ATOM     10  C   UNL     1      -4.675 -12.881  17.751  0.00  0.00    +0.130 C 
ATOM     11  C   UNL     1      -5.822 -10.667  18.254  0.00  0.00    +0.113 C 
ATOM     12  C   UNL     1      -5.464  -9.930  15.927  0.00  0.00    +0.117 C 
ATOM     13  C   UNL     1      -4.406 -12.144  15.359  0.00  0.00    +0.034 A 
ATOM     14  C   UNL     1      -4.346 -12.463  14.039  0.00  0.00    +0.002 A 
ATOM     15  C   UNL     1      -5.092 -14.444  15.933  0.00  0.00    +0.252 A 
ATOM     16  C   UNL     1      -7.699 -10.915  16.668  0.00  0.00    +0.282 C 
ATOM     17  C   UNL     1      -4.688 -13.809  13.620  0.00  0.00    +0.015 A 
ATOM     18  C   UNL     1      -5.056 -14.752  14.486  0.00  0.00    +0.071 A 
ENDROOT
BRANCH  14  19
ATOM     19  C   UNL     1      -3.957 -11.468  13.016  0.00  0.00    -0.015 A 
ATOM     21  C   UNL     1      -4.941 -10.774  12.317  0.00  0.00    +0.027 A 
ATOM     22  C   UNL     1      -2.610 -11.233  12.757  0.00  0.00    +0.008 A 
ATOM     24  C   UNL     1      -4.574  -9.837  11.351  0.00  0.00    +0.052 A 
ATOM     25  C   UNL     1      -2.243 -10.297  11.792  0.00  0.00    +0.002 A 
ATOM     26  C   UNL     1      -3.225  -9.598  11.089  0.00  0.00    +0.019 A 
BRANCH  24  29
ATOM      6  N   UNL     1      -6.396  -8.539  10.045  0.00  0.00    -0.191 NA
ATOM     29  C   UNL     1      -5.579  -9.121  10.630  0.00  0.00    +0.099 C 
ENDBRANCH  24  29
ENDBRANCH  14  19
BRANCH  16  20
ATOM      3  O   UNL     1      -9.207  -9.184  15.924  0.00  0.00    -0.458 OA
ATOM     20  C   UNL     1      -8.445 -10.253  15.592  0.00  0.00    +0.189 A 
ATOM     23  C   UNL     1      -8.524 -10.521  14.252  0.00  0.00    +0.054 A 
ATOM     27  C   UNL     1      -9.398  -9.547  13.714  0.00  0.00    +0.042 A 
ATOM     28  C   UNL     1      -9.787  -8.758  14.771  0.00  0.00    +0.196 A 
ENDBRANCH  16  20
TORSDOF 3
ENDMDL
MODEL 8
REMARK VINA RESULT:      -5.9     14.362     18.162
REMARK  Name = 9419217
REMARK  3 active torsions:
REMARK  status: ('A' for Active; 'I' for Inactive)
REMARK    1  A    between atoms: C_14  and  C_19
REMARK    2  A    between atoms: C_16  and  C_20
REMARK    3  A    between atoms: C_24  and  C_29
REMARK                            x       y       z     vdW  Elec       q    Type
REMARK                         _______ _______ _______ _____ _____    ______ ____
ROOT
ATOM      1  O   UNL     1      10.063   9.728   8.491  0.00  0.00    -0.268 OA
ATOM      2  O   UNL     1      12.697   7.161   5.724  0.00  0.00    -0.267 OA
ATOM      4  N   UNL     1       9.175   8.484   6.717  0.00  0.00    -0.311 N 
ATOM      5  N   UNL     1      10.658   6.381   4.888  0.00  0.00    -0.294 N 
ATOM      7  C   UNL     1       9.113   5.920   6.775  0.00  0.00    +0.027 C 
ATOM      8  C   UNL     1       8.288   7.127   4.796  0.00  0.00    +0.054 C 
ATOM      9  C   UNL     1       7.922   6.073   5.841  0.00  0.00    +0.018 C 
ATOM     10  C   UNL     1       9.335   7.249   7.498  0.00  0.00    +0.130 C 
ATOM     11  C   UNL     1      10.360   5.473   5.994  0.00  0.00    +0.113 C 
ATOM     12  C   UNL     1       9.521   6.654   3.996  0.00  0.00    +0.117 C 
ATOM     13  C   UNL     1       8.574   8.485   5.443  0.00  0.00    +0.034 A 
ATOM     14  C   UNL     1       8.302   9.664   4.822  0.00  0.00    +0.002 A 
ATOM     15  C   UNL     1       9.548   9.670   7.374  0.00  0.00    +0.252 A 
ATOM     16  C   UNL     1      11.930   6.947   4.786  0.00  0.00    +0.282 C 
ATOM     17  C   UNL     1       8.677  10.906   5.469  0.00  0.00    +0.015 A 
ATOM     18  C   UNL     1       9.277  10.937   6.658  0.00  0.00    +0.071 A 
ENDROOT
BRANCH  14  19
ATOM     19  C   UNL     1       7.649   9.712   3.496  0.00  0.00    -0.015 A 
ATOM     21  C   UNL     1       6.274   9.912   3.409  0.00  0.00    +0.027 A 
ATOM     22  C   UNL     1       8.414   9.557   2.343  0.00  0.00    +0.008 A 
ATOM     24  C   UNL     1       5.659   9.957   2.157  0.00  0.00    +0.052 A 
ATOM     25  C   UNL     1       7.798   9.602   1.092  0.00  0.00    +0.002 A 
ATOM     26  C   UNL     1       6.421   9.803   1.000  0.00  0.00    +0.019 A 
BRANCH  24  29
ATOM      6  N   UNL     1       3.101  10.328   1.983  0.00  0.00    -0.191 NA
ATOM     29  C   UNL     1       4.248  10.162   2.061  0.00  0.00    +0.099 C 
ENDBRANCH  24  29
ENDBRANCH  14  19
BRANCH  16  20
ATOM      3  O   UNL     1      12.891   6.374   2.648  0.00  0.00    -0.458 OA
ATOM     20  C   UNL     1      12.408   7.346   3.457  0.00  0.00    +0.189 A 
ATOM     23  C   UNL     1      12.463   8.571   2.849  0.00  0.00    +0.054 A 
ATOM     27  C   UNL     1      13.020   8.341   1.568  0.00  0.00    +0.042 A 
ATOM     28  C   UNL     1      13.263   6.990   1.495  0.00  0.00    +0.196 A 
ENDBRANCH  16  20
TORSDOF 3
ENDMDL
MODEL 9
REMARK VINA RESULT:      -5.8     12.949     15.154
REMARK  Name = 9419217
REMARK  3 active torsions:
REMARK  status: ('A' for Active; 'I' for Inactive)
REMARK    1  A    between atoms: C_14  and  C_19
REMARK    2  A    between atoms: C_16  and  C_20
REMARK    3  A    between atoms: C_24  and  C_29
REMARK                            x       y       z     vdW  Elec       q    Type
REMARK                         _______ _______ _______ _____ _____    ______ ____
ROOT
ATOM      1  O   UNL     1      19.914  -5.029  21.797  0.00  0.00    -0.268 OA
ATOM      2  O   UNL     1      20.696  -1.556  24.713  0.00  0.00    -0.267 OA
ATOM      4  N   UNL     1      18.304  -4.297  23.332  0.00  0.00    -0.311 N 
ATOM      5  N   UNL     1      18.416  -1.749  25.194  0.00  0.00    -0.294 N 
ATOM      7  C   UNL     1      17.146  -2.022  23.079  0.00  0.00    +0.027 C 
ATOM      8  C   UNL     1      16.624  -3.462  25.004  0.00  0.00    +0.054 C 
ATOM      9  C   UNL     1      16.008  -2.680  23.844  0.00  0.00    +0.018 C 
ATOM     10  C   UNL     1      18.035  -3.120  22.493  0.00  0.00    +0.130 C 
ATOM     11  C   UNL     1      17.934  -1.069  23.994  0.00  0.00    +0.113 C 
ATOM     12  C   UNL     1      17.385  -2.492  25.934  0.00  0.00    +0.117 C 
ATOM     13  C   UNL     1      17.568  -4.558  24.505  0.00  0.00    +0.034 A 
ATOM     14  C   UNL     1      17.740  -5.734  25.165  0.00  0.00    +0.002 A 
ATOM     15  C   UNL     1      19.254  -5.200  22.822  0.00  0.00    +0.252 A 
ATOM     16  C   UNL     1      19.774  -1.698  25.516  0.00  0.00    +0.282 C 
ATOM     17  C   UNL     1      18.715  -6.687  24.670  0.00  0.00    +0.015 A 
ATOM     18  C   UNL     1      19.449  -6.455  23.583  0.00  0.00    +0.071 A 
ENDROOT
BRANCH  14  19
ATOM     19  C   UNL     1      16.971  -6.060  26.386  0.00  0.00    -0.015 A 
ATOM     21  C   UNL     1      17.404  -5.591  27.622  0.00  0.00    +0.027 A 
ATOM     22  C   UNL     1      15.819  -6.836  26.290  0.00  0.00    +0.008 A 
ATOM     24  C   UNL     1      16.679  -5.901  28.773  0.00  0.00    +0.052 A 
ATOM     25  C   UNL     1      15.094  -7.145  27.440  0.00  0.00    +0.002 A 
ATOM     26  C   UNL     1      15.524  -6.677  28.682  0.00  0.00    +0.019 A 
BRANCH  24  29
ATOM      6  N   UNL     1      17.477  -5.033  31.081  0.00  0.00    -0.191 NA
ATOM     29  C   UNL     1      17.119  -5.422  30.046  0.00  0.00    +0.099 C 
ENDBRANCH  24  29
ENDBRANCH  14  19
BRANCH  16  20
ATOM      3  O   UNL     1      20.715  -0.768  27.534  0.00  0.00    -0.458 OA
ATOM     20  C   UNL     1      20.159  -1.841  26.925  0.00  0.00    +0.189 A 
ATOM     23  C   UNL     1      20.061  -2.904  27.782  0.00  0.00    +0.054 A 
ATOM     27  C   UNL     1      20.595  -2.455  29.014  0.00  0.00    +0.042 A 
ATOM     28  C   UNL     1      20.979  -1.150  28.811  0.00  0.00    +0.196 A 
ENDBRANCH  16  20
TORSDOF 3
ENDMDL
MODEL 10
REMARK VINA RESULT:      -5.6     13.102     15.904
REMARK  Name = 9419217
REMARK  3 active torsions:
REMARK  status: ('A' for Active; 'I' for Inactive)
REMARK    1  A    between atoms: C_14  and  C_19
REMARK    2  A    between atoms: C_16  and  C_20
REMARK    3  A    between atoms: C_24  and  C_29
REMARK                            x       y       z     vdW  Elec       q    Type
REMARK                         _______ _______ _______ _____ _____    ______ ____
ROOT
ATOM      1  O   UNL     1      21.889  -0.515  29.203  0.00  0.00    -0.268 OA
ATOM      2  O   UNL     1      21.345  -5.078  29.440  0.00  0.00    -0.267 OA
ATOM      4  N   UNL     1      20.010  -1.599  28.323  0.00  0.00    -0.311 N 
ATOM      5  N   UNL     1      19.195  -4.634  28.637  0.00  0.00    -0.294 N 
ATOM      7  C   UNL     1      18.250  -2.681  29.844  0.00  0.00    +0.027 C 
ATOM      8  C   UNL     1      18.020  -2.826  27.399  0.00  0.00    +0.054 C 
ATOM      9  C   UNL     1      17.300  -2.422  28.685  0.00  0.00    +0.018 C 
ATOM     10  C   UNL     1      19.473  -1.778  29.680  0.00  0.00    +0.130 C 
ATOM     11  C   UNL     1      18.636  -4.169  29.905  0.00  0.00    +0.113 C 
ATOM     12  C   UNL     1      18.374  -4.328  27.456  0.00  0.00    +0.117 C 
ATOM     13  C   UNL     1      19.288  -1.998  27.180  0.00  0.00    +0.034 A 
ATOM     14  C   UNL     1      19.746  -1.673  25.941  0.00  0.00    +0.002 A 
ATOM     15  C   UNL     1      21.226  -0.899  28.239  0.00  0.00    +0.252 A 
ATOM     16  C   UNL     1      20.443  -5.261  28.624  0.00  0.00    +0.282 C 
ATOM     17  C   UNL     1      21.000  -0.955  25.817  0.00  0.00    +0.015 A 
ATOM     18  C   UNL     1      21.721  -0.593  26.877  0.00  0.00    +0.071 A 
ENDROOT
BRANCH  14  19
ATOM     19  C   UNL     1      19.009  -2.049  24.716  0.00  0.00    -0.015 A 
ATOM     21  C   UNL     1      19.247  -3.282  24.116  0.00  0.00    +0.027 A 
ATOM     22  C   UNL     1      18.082  -1.166  24.169  0.00  0.00    +0.008 A 
ATOM     24  C   UNL     1      18.552  -3.636  22.958  0.00  0.00    +0.052 A 
ATOM     25  C   UNL     1      17.387  -1.520  23.013  0.00  0.00    +0.002 A 
ATOM     26  C   UNL     1      17.622  -2.755  22.408  0.00  0.00    +0.019 A 
BRANCH  24  29
ATOM      6  N   UNL     1      18.988  -5.928  21.833  0.00  0.00    -0.191 NA
ATOM     29  C   UNL     1      18.793  -4.900  22.338  0.00  0.00    +0.099 C 
ENDBRANCH  24  29
ENDBRANCH  14  19
BRANCH  16  20
ATOM      3  O   UNL     1      20.299  -7.482  27.693  0.00  0.00    -0.458 OA
ATOM     20  C   UNL     1      20.732  -6.209  27.541  0.00  0.00    +0.189 A 
ATOM     23  C   UNL     1      21.387  -6.045  26.351  0.00  0.00    +0.054 A 
ATOM     27  C   UNL     1      21.358  -7.310  25.717  0.00  0.00    +0.042 A 
ATOM     28  C   UNL     1      20.685  -8.150  26.574  0.00  0.00    +0.196 A 
ENDBRANCH  16  20
TORSDOF 3
ENDMDL
