MODEL 1
REMARK VINA RESULT:      -6.5      0.000      0.000
REMARK  Name = 38027918
REMARK  11 active torsions:
REMARK  status: ('A' for Active; 'I' for Inactive)
REMARK    1  A    between atoms: N_4  and  C_15
REMARK    2  A    between atoms: N_5  and  C_25
REMARK    3  A    between atoms: N_6  and  C_26
REMARK    4  A    between atoms: C_7  and  C_11
REMARK    5  A    between atoms: C_8  and  C_15
REMARK    6  A    between atoms: C_10  and  C_14
REMARK    7  A    between atoms: C_11  and  C_16
REMARK    8  A    between atoms: C_11  and  C_17
REMARK    9  A    between atoms: C_12  and  C_18
REMARK   10  A    between atoms: C_14  and  C_19
REMARK   11  A    between atoms: C_26  and  C_27
REMARK                            x       y       z     vdW  Elec       q    Type
REMARK                         _______ _______ _______ _____ _____    ______ ____
ROOT
ATOM      7  C   UNL     1      20.211   6.022  21.943  0.00  0.00    +0.000 C 
ATOM      8  C   UNL     1      20.608   7.297  22.730  0.00  0.00    +0.032 C 
ATOM      9  C   UNL     1      19.618   6.398  20.577  0.00  0.00    +0.012 C 
ATOM     10  C   UNL     1      18.373   7.298  20.710  0.00  0.00    +0.023 C 
ATOM     12  C   UNL     1      18.601   8.435  21.684  0.00  0.00    -0.073 C 
ATOM     13  C   UNL     1      19.613   8.423  22.571  0.00  0.00    -0.022 C 
ATOM     18  C   UNL     1      17.667   9.608  21.587  0.00  0.00    +0.039 C 
ENDROOT
BRANCH   7  11
ATOM     11  C   UNL     1      21.403   5.080  21.749  0.00  0.00    -0.013 C 
ATOM     16  C   UNL     1      21.004   3.890  20.883  0.00  0.00    +0.007 C 
ATOM     17  C   UNL     1      22.578   5.831  21.131  0.00  0.00    +0.007 C 
ENDBRANCH   7  11
BRANCH  10  14
ATOM     14  C   UNL     1      17.140   6.478  21.102  0.00  0.00    +0.103 C 
BRANCH  14  19
ATOM      1  O   UNL     1      16.458   5.830  18.926  0.00  0.00    -0.276 OA
ATOM      3  N   UNL     1      14.955   7.116  20.144  0.00  0.00    -0.299 N 
ATOM      5  N   UNL     1      12.228   7.780  20.722  0.00  0.00    -0.302 NA
ATOM     19  C   UNL     1      16.161   6.442  19.955  0.00  0.00    +0.216 C 
ATOM     20  C   UNL     1      13.951   7.125  19.081  0.00  0.00    +0.123 C 
ATOM     21  C   UNL     1      14.627   7.960  21.297  0.00  0.00    +0.123 C 
ATOM     22  C   UNL     1      12.554   6.846  19.636  0.00  0.00    +0.103 C 
ATOM     23  C   UNL     1      13.214   7.670  21.808  0.00  0.00    +0.103 C 
ATOM     25  C   UNL     1      10.879   7.531  21.226  0.00  0.00    +0.105 C 
ENDBRANCH  14  19
ENDBRANCH  10  14
BRANCH   8  15
ATOM     15  C   UNL     1      20.798   6.991  24.220  0.00  0.00    +0.113 C 
BRANCH  15   4
ATOM      2  O   UNL     1      21.308   7.656  26.982  0.00  0.00    -0.253 OA
ATOM      4  N   UNL     1      20.082   7.929  25.026  0.00  0.00    -0.299 N 
ATOM      6  N   UNL     1      19.536   9.152  26.912  0.00  0.00    -0.300 N 
ATOM     24  C   UNL     1      20.391   8.198  26.366  0.00  0.00    +0.300 C 
ATOM     28  H   UNL     1      19.349   8.483  24.592  0.00  0.00    +0.150 HD
ATOM     29  H   UNL     1      18.797   9.535  26.331  0.00  0.00    +0.150 HD
BRANCH   6  26
ATOM     26  C   UNL     1      19.642   9.607  28.279  0.00  0.00    +0.102 C 
ATOM     27  C   UNL     1      18.379  10.312  28.727  0.00  0.00    +0.024 C 
ENDBRANCH   6  26
ENDBRANCH  15   4
ENDBRANCH   8  15
TORSDOF 6
ENDMDL
MODEL 2
REMARK VINA RESULT:      -6.3      4.324      7.923
REMARK  Name = 38027918
REMARK  11 active torsions:
REMARK  status: ('A' for Active; 'I' for Inactive)
REMARK    1  A    between atoms: N_4  and  C_15
REMARK    2  A    between atoms: N_5  and  C_25
REMARK    3  A    between atoms: N_6  and  C_26
REMARK    4  A    between atoms: C_7  and  C_11
REMARK    5  A    between atoms: C_8  and  C_15
REMARK    6  A    between atoms: C_10  and  C_14
REMARK    7  A    between atoms: C_11  and  C_16
REMARK    8  A    between atoms: C_11  and  C_17
REMARK    9  A    between atoms: C_12  and  C_18
REMARK   10  A    between atoms: C_14  and  C_19
REMARK   11  A    between atoms: C_26  and  C_27
REMARK                            x       y       z     vdW  Elec       q    Type
REMARK                         _______ _______ _______ _____ _____    ______ ____
ROOT
ATOM      7  C   UNL     1      11.920  12.391  22.597  0.00  0.00    +0.000 C 
ATOM      8  C   UNL     1      10.909  11.846  23.638  0.00  0.00    +0.032 C 
ATOM      9  C   UNL     1      11.674  11.749  21.223  0.00  0.00    +0.012 C 
ATOM     10  C   UNL     1      11.798  10.214  21.267  0.00  0.00    +0.023 C 
ATOM     12  C   UNL     1      11.040   9.620  22.436  0.00  0.00    -0.073 C 
ATOM     13  C   UNL     1      10.639  10.367  23.480  0.00  0.00    -0.022 C 
ATOM     18  C   UNL     1      10.712   8.155  22.358  0.00  0.00    +0.039 C 
ENDROOT
BRANCH   7  11
ATOM     11  C   UNL     1      11.846  13.916  22.478  0.00  0.00    -0.013 C 
ATOM     16  C   UNL     1      12.883  14.423  21.480  0.00  0.00    +0.007 C 
ATOM     17  C   UNL     1      10.442  14.349  22.067  0.00  0.00    +0.007 C 
ENDBRANCH   7  11
BRANCH  10  14
ATOM     14  C   UNL     1      13.267   9.780  21.288  0.00  0.00    +0.103 C 
BRANCH  14  19
ATOM      1  O   UNL     1      12.762   8.615  19.287  0.00  0.00    -0.276 OA
ATOM      3  N   UNL     1      14.543   7.803  20.537  0.00  0.00    -0.299 N 
ATOM      5  N   UNL     1      17.081   6.475  20.584  0.00  0.00    -0.302 NA
ATOM     19  C   UNL     1      13.494   8.683  20.278  0.00  0.00    +0.216 C 
ATOM     20  C   UNL     1      14.829   6.715  19.604  0.00  0.00    +0.123 C 
ATOM     21  C   UNL     1      15.341   7.775  21.766  0.00  0.00    +0.123 C 
ATOM     22  C   UNL     1      16.328   6.602  19.328  0.00  0.00    +0.103 C 
ATOM     23  C   UNL     1      16.832   7.636  21.451  0.00  0.00    +0.103 C 
ATOM     25  C   UNL     1      18.511   6.333  20.313  0.00  0.00    +0.105 C 
ENDBRANCH  14  19
ENDBRANCH  10  14
BRANCH   8  15
ATOM     15  C   UNL     1      11.381  12.129  25.068  0.00  0.00    +0.113 C 
BRANCH  15   4
ATOM      2  O   UNL     1      13.648  13.150  26.534  0.00  0.00    -0.253 OA
ATOM      4  N   UNL     1      12.607  11.448  25.343  0.00  0.00    -0.299 N 
ATOM      6  N   UNL     1      14.738  11.132  26.185  0.00  0.00    -0.300 N 
ATOM     24  C   UNL     1      13.667  12.013  26.064  0.00  0.00    +0.300 C 
ATOM     28  H   UNL     1      12.697  10.476  25.057  0.00  0.00    +0.150 HD
ATOM     29  H   UNL     1      14.669  10.216  25.751  0.00  0.00    +0.150 HD
BRANCH   6  26
ATOM     26  C   UNL     1      15.956  11.471  26.883  0.00  0.00    +0.102 C 
ATOM     27  C   UNL     1      15.899  11.043  28.335  0.00  0.00    +0.024 C 
ENDBRANCH   6  26
ENDBRANCH  15   4
ENDBRANCH   8  15
TORSDOF 6
ENDMDL
MODEL 3
REMARK VINA RESULT:      -6.3      5.493      7.824
REMARK  Name = 38027918
REMARK  11 active torsions:
REMARK  status: ('A' for Active; 'I' for Inactive)
REMARK    1  A    between atoms: N_4  and  C_15
REMARK    2  A    between atoms: N_5  and  C_25
REMARK    3  A    between atoms: N_6  and  C_26
REMARK    4  A    between atoms: C_7  and  C_11
REMARK    5  A    between atoms: C_8  and  C_15
REMARK    6  A    between atoms: C_10  and  C_14
REMARK    7  A    between atoms: C_11  and  C_16
REMARK    8  A    between atoms: C_11  and  C_17
REMARK    9  A    between atoms: C_12  and  C_18
REMARK   10  A    between atoms: C_14  and  C_19
REMARK   11  A    between atoms: C_26  and  C_27
REMARK                            x       y       z     vdW  Elec       q    Type
REMARK                         _______ _______ _______ _____ _____    ______ ____
ROOT
ATOM      7  C   UNL     1      11.951  11.764  22.442  0.00  0.00    +0.000 C 
ATOM      8  C   UNL     1      10.847  11.307  23.429  0.00  0.00    +0.032 C 
ATOM      9  C   UNL     1      11.749  11.106  21.068  0.00  0.00    +0.012 C 
ATOM     10  C   UNL     1      11.775   9.567  21.151  0.00  0.00    +0.023 C 
ATOM     12  C   UNL     1      10.912   9.049  22.283  0.00  0.00    -0.073 C 
ATOM     13  C   UNL     1      10.496   9.844  23.285  0.00  0.00    -0.022 C 
ATOM     18  C   UNL     1      10.499   7.605  22.214  0.00  0.00    +0.039 C 
ENDROOT
BRANCH   7  11
ATOM     11  C   UNL     1      11.979  13.288  22.287  0.00  0.00    -0.013 C 
ATOM     16  C   UNL     1      13.011  13.697  21.241  0.00  0.00    +0.007 C 
ATOM     17  C   UNL     1      10.595  13.810  21.915  0.00  0.00    +0.007 C 
ENDBRANCH   7  11
BRANCH  10  14
ATOM     14  C   UNL     1      13.211   9.045  21.272  0.00  0.00    +0.103 C 
BRANCH  14  19
ATOM      1  O   UNL     1      13.294   6.959  20.151  0.00  0.00    -0.276 OA
ATOM      3  N   UNL     1      14.107   8.797  18.985  0.00  0.00    -0.299 N 
ATOM      5  N   UNL     1      14.528  10.088  16.462  0.00  0.00    -0.302 NA
ATOM     19  C   UNL     1      13.540   8.167  20.091  0.00  0.00    +0.216 C 
ATOM     20  C   UNL     1      14.450   8.015  17.798  0.00  0.00    +0.123 C 
ATOM     21  C   UNL     1      14.531  10.199  18.933  0.00  0.00    +0.123 C 
ATOM     22  C   UNL     1      13.996   8.719  16.520  0.00  0.00    +0.103 C 
ATOM     23  C   UNL     1      14.081  10.862  17.630  0.00  0.00    +0.103 C 
ATOM     25  C   UNL     1      14.119  10.746  15.222  0.00  0.00    +0.105 C 
ENDBRANCH  14  19
ENDBRANCH  10  14
BRANCH   8  15
ATOM     15  C   UNL     1      11.248  11.595  24.879  0.00  0.00    +0.113 C 
BRANCH  15   4
ATOM      2  O   UNL     1      13.275  12.876  26.486  0.00  0.00    -0.253 OA
ATOM      4  N   UNL     1      12.566  11.113  25.148  0.00  0.00    -0.299 N 
ATOM      6  N   UNL     1      14.702  11.102  26.036  0.00  0.00    -0.300 N 
ATOM     24  C   UNL     1      13.498  11.796  25.940  0.00  0.00    +0.300 C 
ATOM     28  H   UNL     1      12.827  10.194  24.800  0.00  0.00    +0.150 HD
ATOM     29  H   UNL     1      14.799  10.222  25.540  0.00  0.00    +0.150 HD
BRANCH   6  26
ATOM     26  C   UNL     1      15.828  11.591  26.796  0.00  0.00    +0.102 C 
ATOM     27  C   UNL     1      15.805  11.070  28.218  0.00  0.00    +0.024 C 
ENDBRANCH   6  26
ENDBRANCH  15   4
ENDBRANCH   8  15
TORSDOF 6
ENDMDL
MODEL 4
REMARK VINA RESULT:      -6.2     28.628     31.576
REMARK  Name = 38027918
REMARK  11 active torsions:
REMARK  status: ('A' for Active; 'I' for Inactive)
REMARK    1  A    between atoms: N_4  and  C_15
REMARK    2  A    between atoms: N_5  and  C_25
REMARK    3  A    between atoms: N_6  and  C_26
REMARK    4  A    between atoms: C_7  and  C_11
REMARK    5  A    between atoms: C_8  and  C_15
REMARK    6  A    between atoms: C_10  and  C_14
REMARK    7  A    between atoms: C_11  and  C_16
REMARK    8  A    between atoms: C_11  and  C_17
REMARK    9  A    between atoms: C_12  and  C_18
REMARK   10  A    between atoms: C_14  and  C_19
REMARK   11  A    between atoms: C_26  and  C_27
REMARK                            x       y       z     vdW  Elec       q    Type
REMARK                         _______ _______ _______ _____ _____    ______ ____
ROOT
ATOM      7  C   UNL     1      -7.321 -12.002  17.016  0.00  0.00    +0.000 C 
ATOM      8  C   UNL     1      -7.428 -12.373  18.517  0.00  0.00    +0.032 C 
ATOM      9  C   UNL     1      -6.036 -12.586  16.410  0.00  0.00    +0.012 C 
ATOM     10  C   UNL     1      -4.771 -12.080  17.129  0.00  0.00    +0.023 C 
ATOM     12  C   UNL     1      -4.906 -12.165  18.635  0.00  0.00    -0.073 C 
ATOM     13  C   UNL     1      -6.101 -12.309  19.237  0.00  0.00    -0.022 C 
ATOM     18  C   UNL     1      -3.633 -12.126  19.434  0.00  0.00    +0.039 C 
ENDROOT
BRANCH   7  11
ATOM     11  C   UNL     1      -8.537 -12.490  16.223  0.00  0.00    -0.013 C 
ATOM     16  C   UNL     1      -8.860 -11.517  15.093  0.00  0.00    +0.007 C 
ATOM     17  C   UNL     1      -8.288 -13.892  15.676  0.00  0.00    +0.007 C 
ENDBRANCH   7  11
BRANCH  10  14
ATOM     14  C   UNL     1      -4.418 -10.655  16.688  0.00  0.00    +0.103 C 
BRANCH  14  19
ATOM      1  O   UNL     1      -2.060 -10.704  16.468  0.00  0.00    -0.276 OA
ATOM      3  N   UNL     1      -3.284 -10.641  14.495  0.00  0.00    -0.299 N 
ATOM      5  N   UNL     1      -3.485 -11.363  11.730  0.00  0.00    -0.302 NA
ATOM     19  C   UNL     1      -3.145 -10.667  15.882  0.00  0.00    +0.216 C 
ATOM     20  C   UNL     1      -2.096 -10.655  13.643  0.00  0.00    +0.123 C 
ATOM     21  C   UNL     1      -4.548 -10.464  13.774  0.00  0.00    +0.123 C 
ATOM     22  C   UNL     1      -2.256 -11.641  12.486  0.00  0.00    +0.103 C 
ATOM     23  C   UNL     1      -4.660 -11.450  12.609  0.00  0.00    +0.103 C 
ATOM     25  C   UNL     1      -3.616 -12.287  10.604  0.00  0.00    +0.105 C 
ENDBRANCH  14  19
ENDBRANCH  10  14
BRANCH   8  15
ATOM     15  C   UNL     1      -8.443 -11.478  19.237  0.00  0.00    +0.113 C 
BRANCH  15   4
ATOM      2  O   UNL     1     -10.769 -10.101  18.226  0.00  0.00    -0.253 OA
ATOM      4  N   UNL     1      -8.485 -10.178  18.644  0.00  0.00    -0.299 N 
ATOM      6  N   UNL     1      -9.414  -8.311  17.644  0.00  0.00    -0.300 N 
ATOM     24  C   UNL     1      -9.659  -9.575  18.174  0.00  0.00    +0.300 C 
ATOM     28  H   UNL     1      -7.630  -9.629  18.616  0.00  0.00    +0.150 HD
ATOM     29  H   UNL     1      -8.460  -7.963  17.631  0.00  0.00    +0.150 HD
BRANCH   6  26
ATOM     26  C   UNL     1     -10.457  -7.478  17.093  0.00  0.00    +0.102 C 
ATOM     27  C   UNL     1     -10.156  -7.088  15.661  0.00  0.00    +0.024 C 
ENDBRANCH   6  26
ENDBRANCH  15   4
ENDBRANCH   8  15
TORSDOF 6
ENDMDL
MODEL 5
REMARK VINA RESULT:      -6.2     29.055     30.932
REMARK  Name = 38027918
REMARK  11 active torsions:
REMARK  status: ('A' for Active; 'I' for Inactive)
REMARK    1  A    between atoms: N_4  and  C_15
REMARK    2  A    between atoms: N_5  and  C_25
REMARK    3  A    between atoms: N_6  and  C_26
REMARK    4  A    between atoms: C_7  and  C_11
REMARK    5  A    between atoms: C_8  and  C_15
REMARK    6  A    between atoms: C_10  and  C_14
REMARK    7  A    between atoms: C_11  and  C_16
REMARK    8  A    between atoms: C_11  and  C_17
REMARK    9  A    between atoms: C_12  and  C_18
REMARK   10  A    between atoms: C_14  and  C_19
REMARK   11  A    between atoms: C_26  and  C_27
REMARK                            x       y       z     vdW  Elec       q    Type
REMARK                         _______ _______ _______ _____ _____    ______ ____
ROOT
ATOM      7  C   UNL     1     -12.390   8.742  19.925  0.00  0.00    +0.000 C 
ATOM      8  C   UNL     1     -11.580   9.976  20.398  0.00  0.00    +0.032 C 
ATOM      9  C   UNL     1     -11.612   7.969  18.850  0.00  0.00    +0.012 C 
ATOM     10  C   UNL     1     -11.292   8.844  17.622  0.00  0.00    +0.023 C 
ATOM     12  C   UNL     1     -10.734  10.194  18.021  0.00  0.00    -0.073 C 
ATOM     13  C   UNL     1     -10.861  10.678  19.270  0.00  0.00    -0.022 C 
ATOM     18  C   UNL     1      -9.986  10.958  16.964  0.00  0.00    +0.039 C 
ENDROOT
BRANCH   7  11
ATOM     11  C   UNL     1     -12.733   7.808  21.089  0.00  0.00    -0.013 C 
ATOM     16  C   UNL     1     -14.227   7.501  21.103  0.00  0.00    +0.007 C 
ATOM     17  C   UNL     1     -11.918   6.522  20.996  0.00  0.00    +0.007 C 
ENDBRANCH   7  11
BRANCH  10  14
ATOM     14  C   UNL     1     -12.522   9.002  16.722  0.00  0.00    +0.103 C 
BRANCH  14  19
ATOM      1  O   UNL     1     -11.048   8.367  14.979  0.00  0.00    -0.276 OA
ATOM      3  N   UNL     1     -13.318   8.122  14.557  0.00  0.00    -0.299 N 
ATOM      5  N   UNL     1     -15.406   6.689  13.216  0.00  0.00    -0.302 NA
ATOM     19  C   UNL     1     -12.222   8.472  15.343  0.00  0.00    +0.216 C 
ATOM     20  C   UNL     1     -13.110   7.595  13.208  0.00  0.00    +0.123 C 
ATOM     21  C   UNL     1     -14.722   8.358  14.907  0.00  0.00    +0.123 C 
ATOM     22  C   UNL     1     -13.994   6.377  12.947  0.00  0.00    +0.103 C 
ATOM     23  C   UNL     1     -15.579   7.126  14.608  0.00  0.00    +0.103 C 
ATOM     25  C   UNL     1     -16.250   5.529  12.932  0.00  0.00    +0.105 C 
ENDBRANCH  14  19
ENDBRANCH  10  14
BRANCH   8  15
ATOM     15  C   UNL     1     -12.477  10.978  21.134  0.00  0.00    +0.113 C 
BRANCH  15   4
ATOM      2  O   UNL     1     -13.364  10.091  23.733  0.00  0.00    -0.253 OA
ATOM      4  N   UNL     1     -11.915  11.327  22.401  0.00  0.00    -0.299 N 
ATOM      6  N   UNL     1     -11.673  11.350  24.701  0.00  0.00    -0.300 N 
ATOM     24  C   UNL     1     -12.405  10.854  23.626  0.00  0.00    +0.300 C 
ATOM     28  H   UNL     1     -11.075  11.898  22.419  0.00  0.00    +0.150 HD
ATOM     29  H   UNL     1     -10.904  11.986  24.516  0.00  0.00    +0.150 HD
BRANCH   6  26
ATOM     26  C   UNL     1     -11.974  11.014  26.073  0.00  0.00    +0.102 C 
ATOM     27  C   UNL     1     -10.854  10.215  26.707  0.00  0.00    +0.024 C 
ENDBRANCH   6  26
ENDBRANCH  15   4
ENDBRANCH   8  15
TORSDOF 6
ENDMDL
MODEL 6
REMARK VINA RESULT:      -6.2     27.823     30.751
REMARK  Name = 38027918
REMARK  11 active torsions:
REMARK  status: ('A' for Active; 'I' for Inactive)
REMARK    1  A    between atoms: N_4  and  C_15
REMARK    2  A    between atoms: N_5  and  C_25
REMARK    3  A    between atoms: N_6  and  C_26
REMARK    4  A    between atoms: C_7  and  C_11
REMARK    5  A    between atoms: C_8  and  C_15
REMARK    6  A    between atoms: C_10  and  C_14
REMARK    7  A    between atoms: C_11  and  C_16
REMARK    8  A    between atoms: C_11  and  C_17
REMARK    9  A    between atoms: C_12  and  C_18
REMARK   10  A    between atoms: C_14  and  C_19
REMARK   11  A    between atoms: C_26  and  C_27
REMARK                            x       y       z     vdW  Elec       q    Type
REMARK                         _______ _______ _______ _____ _____    ______ ____
ROOT
ATOM      7  C   UNL     1      -4.974 -12.391  16.013  0.00  0.00    +0.000 C 
ATOM      8  C   UNL     1      -4.171 -11.832  17.214  0.00  0.00    +0.032 C 
ATOM      9  C   UNL     1      -4.028 -12.763  14.861  0.00  0.00    +0.012 C 
ATOM     10  C   UNL     1      -3.199 -11.558  14.376  0.00  0.00    +0.023 C 
ATOM     12  C   UNL     1      -2.590 -10.791  15.532  0.00  0.00    -0.073 C 
ATOM     13  C   UNL     1      -3.028 -10.937  16.795  0.00  0.00    -0.022 C 
ATOM     18  C   UNL     1      -1.433  -9.886  15.210  0.00  0.00    +0.039 C 
ENDROOT
BRANCH   7  11
ATOM     11  C   UNL     1      -5.814 -13.610  16.408  0.00  0.00    -0.013 C 
ATOM     16  C   UNL     1      -6.776 -13.980  15.284  0.00  0.00    +0.007 C 
ATOM     17  C   UNL     1      -4.909 -14.788  16.756  0.00  0.00    +0.007 C 
ENDBRANCH   7  11
BRANCH  10  14
ATOM     14  C   UNL     1      -4.038 -10.634  13.486  0.00  0.00    +0.103 C 
BRANCH  14  19
ATOM      1  O   UNL     1      -2.294 -11.029  11.931  0.00  0.00    -0.276 OA
ATOM      3  N   UNL     1      -4.087  -9.761  11.177  0.00  0.00    -0.299 N 
ATOM      5  N   UNL     1      -5.759  -8.966   8.990  0.00  0.00    -0.302 NA
ATOM     19  C   UNL     1      -3.388 -10.495  12.133  0.00  0.00    +0.216 C 
ATOM     20  C   UNL     1      -3.526  -9.584   9.839  0.00  0.00    +0.123 C 
ATOM     21  C   UNL     1      -5.320  -9.006  11.423  0.00  0.00    +0.123 C 
ATOM     22  C   UNL     1      -4.583  -9.816   8.759  0.00  0.00    +0.103 C 
ATOM     23  C   UNL     1      -6.342  -9.243  10.311  0.00  0.00    +0.103 C 
ATOM     25  C   UNL     1      -6.753  -9.167   7.936  0.00  0.00    +0.105 C 
ENDBRANCH  14  19
ENDBRANCH  10  14
BRANCH   8  15
ATOM     15  C   UNL     1      -5.084 -11.075  18.185  0.00  0.00    +0.113 C 
BRANCH  15   4
ATOM      2  O   UNL     1      -7.933 -11.030  17.726  0.00  0.00    -0.253 OA
ATOM      4  N   UNL     1      -5.830 -10.067  17.500  0.00  0.00    -0.299 N 
ATOM      6  N   UNL     1      -7.686  -9.008  16.615  0.00  0.00    -0.300 N 
ATOM     24  C   UNL     1      -7.218 -10.117  17.315  0.00  0.00    +0.300 C 
ATOM     28  H   UNL     1      -5.342  -9.234  17.182  0.00  0.00    +0.150 HD
ATOM     29  H   UNL     1      -7.018  -8.309  16.304  0.00  0.00    +0.150 HD
BRANCH   6  26
ATOM     26  C   UNL     1      -9.081  -8.817  16.293  0.00  0.00    +0.102 C 
ATOM     27  C   UNL     1      -9.778  -7.963  17.332  0.00  0.00    +0.024 C 
ENDBRANCH   6  26
ENDBRANCH  15   4
ENDBRANCH   8  15
TORSDOF 6
ENDMDL
MODEL 7
REMARK VINA RESULT:      -6.1     28.229     30.578
REMARK  Name = 38027918
REMARK  11 active torsions:
REMARK  status: ('A' for Active; 'I' for Inactive)
REMARK    1  A    between atoms: N_4  and  C_15
REMARK    2  A    between atoms: N_5  and  C_25
REMARK    3  A    between atoms: N_6  and  C_26
REMARK    4  A    between atoms: C_7  and  C_11
REMARK    5  A    between atoms: C_8  and  C_15
REMARK    6  A    between atoms: C_10  and  C_14
REMARK    7  A    between atoms: C_11  and  C_16
REMARK    8  A    between atoms: C_11  and  C_17
REMARK    9  A    between atoms: C_12  and  C_18
REMARK   10  A    between atoms: C_14  and  C_19
REMARK   11  A    between atoms: C_26  and  C_27
REMARK                            x       y       z     vdW  Elec       q    Type
REMARK                         _______ _______ _______ _____ _____    ______ ____
ROOT
ATOM      7  C   UNL     1      -3.169 -12.287  14.018  0.00  0.00    +0.000 C 
ATOM      8  C   UNL     1      -2.081 -11.354  14.608  0.00  0.00    +0.032 C 
ATOM      9  C   UNL     1      -2.826 -12.663  12.569  0.00  0.00    +0.012 C 
ATOM     10  C   UNL     1      -2.699 -11.424  11.661  0.00  0.00    +0.023 C 
ATOM     12  C   UNL     1      -1.851 -10.342  12.297  0.00  0.00    -0.073 C 
ATOM     13  C   UNL     1      -1.575 -10.335  13.614  0.00  0.00    -0.022 C 
ATOM     18  C   UNL     1      -1.291  -9.293  11.379  0.00  0.00    +0.039 C 
ENDROOT
BRANCH   7  11
ATOM     11  C   UNL     1      -3.344 -13.557  14.856  0.00  0.00    -0.013 C 
ATOM     16  C   UNL     1      -4.807 -13.739  15.247  0.00  0.00    +0.007 C 
ATOM     17  C   UNL     1      -2.832 -14.773  14.091  0.00  0.00    +0.007 C 
ENDBRANCH   7  11
BRANCH  10  14
ATOM     14  C   UNL     1      -4.079 -10.883  11.271  0.00  0.00    +0.103 C 
BRANCH  14  19
ATOM      1  O   UNL     1      -3.819 -12.022   9.209  0.00  0.00    -0.276 OA
ATOM      3  N   UNL     1      -5.029 -10.040   9.153  0.00  0.00    -0.299 N 
ATOM      5  N   UNL     1      -7.130  -8.503   7.956  0.00  0.00    -0.302 NA
ATOM     19  C   UNL     1      -4.291 -11.039   9.786  0.00  0.00    +0.216 C 
ATOM     20  C   UNL     1      -5.283 -10.122   7.716  0.00  0.00    +0.123 C 
ATOM     21  C   UNL     1      -5.488  -8.798   9.782  0.00  0.00    +0.123 C 
ATOM     22  C   UNL     1      -6.742  -9.803   7.391  0.00  0.00    +0.103 C 
ATOM     23  C   UNL     1      -6.943  -8.500   9.414  0.00  0.00    +0.103 C 
ATOM     25  C   UNL     1      -8.516  -8.187   7.614  0.00  0.00    +0.105 C 
ENDBRANCH  14  19
ENDBRANCH  10  14
BRANCH   8  15
ATOM     15  C   UNL     1      -2.588 -10.635  15.863  0.00  0.00    +0.113 C 
BRANCH  15   4
ATOM      2  O   UNL     1      -4.811 -10.591  17.704  0.00  0.00    -0.253 OA
ATOM      4  N   UNL     1      -3.883 -10.073  15.637  0.00  0.00    -0.299 N 
ATOM      6  N   UNL     1      -6.068  -9.475  16.105  0.00  0.00    -0.300 N 
ATOM     24  C   UNL     1      -4.915 -10.092  16.584  0.00  0.00    +0.300 C 
ATOM     28  H   UNL     1      -4.050  -9.574  14.768  0.00  0.00    +0.150 HD
ATOM     29  H   UNL     1      -6.065  -9.102  15.160  0.00  0.00    +0.150 HD
BRANCH   6  26
ATOM     26  C   UNL     1      -7.277  -9.361  16.886  0.00  0.00    +0.102 C 
ATOM     27  C   UNL     1      -8.222 -10.514  16.618  0.00  0.00    +0.024 C 
ENDBRANCH   6  26
ENDBRANCH  15   4
ENDBRANCH   8  15
TORSDOF 6
ENDMDL
MODEL 8
REMARK VINA RESULT:      -6.1     17.418     21.701
REMARK  Name = 38027918
REMARK  11 active torsions:
REMARK  status: ('A' for Active; 'I' for Inactive)
REMARK    1  A    between atoms: N_4  and  C_15
REMARK    2  A    between atoms: N_5  and  C_25
REMARK    3  A    between atoms: N_6  and  C_26
REMARK    4  A    between atoms: C_7  and  C_11
REMARK    5  A    between atoms: C_8  and  C_15
REMARK    6  A    between atoms: C_10  and  C_14
REMARK    7  A    between atoms: C_11  and  C_16
REMARK    8  A    between atoms: C_11  and  C_17
REMARK    9  A    between atoms: C_12  and  C_18
REMARK   10  A    between atoms: C_14  and  C_19
REMARK   11  A    between atoms: C_26  and  C_27
REMARK                            x       y       z     vdW  Elec       q    Type
REMARK                         _______ _______ _______ _____ _____    ______ ____
ROOT
ATOM      7  C   UNL     1      10.323   7.408   3.146  0.00  0.00    +0.000 C 
ATOM      8  C   UNL     1      10.410   6.343   4.269  0.00  0.00    +0.032 C 
ATOM      9  C   UNL     1       9.871   6.762   1.827  0.00  0.00    +0.012 C 
ATOM     10  C   UNL     1      10.829   5.645   1.368  0.00  0.00    +0.023 C 
ATOM     12  C   UNL     1      11.176   4.700   2.500  0.00  0.00    -0.073 C 
ATOM     13  C   UNL     1      10.970   5.024   3.789  0.00  0.00    -0.022 C 
ATOM     18  C   UNL     1      11.726   3.355   2.115  0.00  0.00    +0.039 C 
ENDROOT
BRANCH   7  11
ATOM     11  C   UNL     1       9.371   8.549   3.518  0.00  0.00    -0.013 C 
ATOM     16  C   UNL     1       9.098   9.431   2.304  0.00  0.00    +0.007 C 
ATOM     17  C   UNL     1       8.070   7.991   4.086  0.00  0.00    +0.007 C 
ENDBRANCH   7  11
BRANCH  10  14
ATOM     14  C   UNL     1      12.094   6.231   0.733  0.00  0.00    +0.103 C 
BRANCH  14  19
ATOM      1  O   UNL     1      11.478   5.634  -1.476  0.00  0.00    -0.276 OA
ATOM      3  N   UNL     1      13.579   4.947  -0.765  0.00  0.00    -0.299 N 
ATOM      5  N   UNL     1      16.297   4.332  -1.434  0.00  0.00    -0.302 NA
ATOM     19  C   UNL     1      12.348   5.578  -0.603  0.00  0.00    +0.216 C 
ATOM     20  C   UNL     1      13.903   4.294  -2.033  0.00  0.00    +0.123 C 
ATOM     21  C   UNL     1      14.576   4.748   0.292  0.00  0.00    +0.123 C 
ATOM     22  C   UNL     1      15.320   4.641  -2.488  0.00  0.00    +0.103 C 
ATOM     23  C   UNL     1      15.983   5.081  -0.208  0.00  0.00    +0.103 C 
ATOM     25  C   UNL     1      17.654   4.634  -1.887  0.00  0.00    +0.105 C 
ENDBRANCH  14  19
ENDBRANCH  10  14
BRANCH   8  15
ATOM     15  C   UNL     1      11.242   6.852   5.451  0.00  0.00    +0.113 C 
BRANCH  15   4
ATOM      2  O   UNL     1       8.999   5.882   6.987  0.00  0.00    -0.253 OA
ATOM      4  N   UNL     1      11.272   5.885   6.504  0.00  0.00    -0.299 N 
ATOM      6  N   UNL     1      10.449   4.517   8.177  0.00  0.00    -0.300 N 
ATOM     24  C   UNL     1      10.135   5.465   7.206  0.00  0.00    +0.300 C 
ATOM     28  H   UNL     1      12.154   5.426   6.716  0.00  0.00    +0.150 HD
ATOM     29  H   UNL     1      11.419   4.242   8.296  0.00  0.00    +0.150 HD
BRANCH   6  26
ATOM     26  C   UNL     1       9.455   3.922   9.040  0.00  0.00    +0.102 C 
ATOM     27  C   UNL     1       9.286   4.715  10.320  0.00  0.00    +0.024 C 
ENDBRANCH   6  26
ENDBRANCH  15   4
ENDBRANCH   8  15
TORSDOF 6
ENDMDL
MODEL 9
REMARK VINA RESULT:      -6.1      4.484      8.674
REMARK  Name = 38027918
REMARK  11 active torsions:
REMARK  status: ('A' for Active; 'I' for Inactive)
REMARK    1  A    between atoms: N_4  and  C_15
REMARK    2  A    between atoms: N_5  and  C_25
REMARK    3  A    between atoms: N_6  and  C_26
REMARK    4  A    between atoms: C_7  and  C_11
REMARK    5  A    between atoms: C_8  and  C_15
REMARK    6  A    between atoms: C_10  and  C_14
REMARK    7  A    between atoms: C_11  and  C_16
REMARK    8  A    between atoms: C_11  and  C_17
REMARK    9  A    between atoms: C_12  and  C_18
REMARK   10  A    between atoms: C_14  and  C_19
REMARK   11  A    between atoms: C_26  and  C_27
REMARK                            x       y       z     vdW  Elec       q    Type
REMARK                         _______ _______ _______ _____ _____    ______ ____
ROOT
ATOM      7  C   UNL     1      14.627   8.313  20.211  0.00  0.00    +0.000 C 
ATOM      8  C   UNL     1      13.877   7.142  19.528  0.00  0.00    +0.032 C 
ATOM      9  C   UNL     1      14.293   8.364  21.710  0.00  0.00    +0.012 C 
ATOM     10  C   UNL     1      12.783   8.537  21.964  0.00  0.00    +0.023 C 
ATOM     12  C   UNL     1      11.956   7.590  21.118  0.00  0.00    -0.073 C 
ATOM     13  C   UNL     1      12.466   6.966  20.041  0.00  0.00    -0.022 C 
ATOM     18  C   UNL     1      10.543   7.341  21.564  0.00  0.00    +0.039 C 
ENDROOT
BRANCH   7  11
ATOM     11  C   UNL     1      16.143   8.204  20.021  0.00  0.00    -0.013 C 
ATOM     16  C   UNL     1      16.865   9.205  20.917  0.00  0.00    +0.007 C 
ATOM     17  C   UNL     1      16.613   6.782  20.309  0.00  0.00    +0.007 C 
ENDBRANCH   7  11
BRANCH  10  14
ATOM     14  C   UNL     1      12.349   9.990  21.743  0.00  0.00    +0.103 C 
BRANCH  14  19
ATOM      1  O   UNL     1      10.918  10.310  23.604  0.00  0.00    -0.276 OA
ATOM      3  N   UNL     1      12.892  11.533  23.593  0.00  0.00    -0.299 N 
ATOM      5  N   UNL     1      14.996  12.775  25.090  0.00  0.00    -0.302 NA
ATOM     19  C   UNL     1      11.981  10.622  23.062  0.00  0.00    +0.216 C 
ATOM     20  C   UNL     1      12.610  12.185  24.871  0.00  0.00    +0.123 C 
ATOM     21  C   UNL     1      14.095  12.023  22.914  0.00  0.00    +0.123 C 
ATOM     22  C   UNL     1      13.840  12.183  25.778  0.00  0.00    +0.103 C 
ATOM     23  C   UNL     1      15.298  12.030  23.859  0.00  0.00    +0.103 C 
ATOM     25  C   UNL     1      16.161  12.800  25.974  0.00  0.00    +0.105 C 
ENDBRANCH  14  19
ENDBRANCH  10  14
BRANCH   8  15
ATOM     15  C   UNL     1      13.848   7.316  18.005  0.00  0.00    +0.113 C 
BRANCH  15   4
ATOM      2  O   UNL     1      13.636   8.453  15.361  0.00  0.00    -0.253 OA
ATOM      4  N   UNL     1      13.959   8.696  17.650  0.00  0.00    -0.299 N 
ATOM      6  N   UNL     1      13.993  10.556  16.275  0.00  0.00    -0.300 N 
ATOM     24  C   UNL     1      13.844   9.173  16.337  0.00  0.00    +0.300 C 
ATOM     28  H   UNL     1      14.062   9.382  18.392  0.00  0.00    +0.150 HD
ATOM     29  H   UNL     1      14.176  11.066  17.133  0.00  0.00    +0.150 HD
BRANCH   6  26
ATOM     26  C   UNL     1      13.918  11.296  15.037  0.00  0.00    +0.102 C 
ATOM     27  C   UNL     1      15.290  11.506  14.433  0.00  0.00    +0.024 C 
ENDBRANCH   6  26
ENDBRANCH  15   4
ENDBRANCH   8  15
TORSDOF 6
ENDMDL
MODEL 10
REMARK VINA RESULT:      -6.1      1.919      2.847
REMARK  Name = 38027918
REMARK  11 active torsions:
REMARK  status: ('A' for Active; 'I' for Inactive)
REMARK    1  A    between atoms: N_4  and  C_15
REMARK    2  A    between atoms: N_5  and  C_25
REMARK    3  A    between atoms: N_6  and  C_26
REMARK    4  A    between atoms: C_7  and  C_11
REMARK    5  A    between atoms: C_8  and  C_15
REMARK    6  A    between atoms: C_10  and  C_14
REMARK    7  A    between atoms: C_11  and  C_16
REMARK    8  A    between atoms: C_11  and  C_17
REMARK    9  A    between atoms: C_12  and  C_18
REMARK   10  A    between atoms: C_14  and  C_19
REMARK   11  A    between atoms: C_26  and  C_27
REMARK                            x       y       z     vdW  Elec       q    Type
REMARK                         _______ _______ _______ _____ _____    ______ ____
ROOT
ATOM      7  C   UNL     1      20.160   6.029  21.983  0.00  0.00    +0.000 C 
ATOM      8  C   UNL     1      20.550   7.314  22.757  0.00  0.00    +0.032 C 
ATOM      9  C   UNL     1      19.588   6.386  20.603  0.00  0.00    +0.012 C 
ATOM     10  C   UNL     1      18.345   7.292  20.705  0.00  0.00    +0.023 C 
ATOM     12  C   UNL     1      18.563   8.443  21.665  0.00  0.00    -0.073 C 
ATOM     13  C   UNL     1      19.562   8.441  22.566  0.00  0.00    -0.022 C 
ATOM     18  C   UNL     1      17.634   9.618  21.537  0.00  0.00    +0.039 C 
ENDROOT
BRANCH   7  11
ATOM     11  C   UNL     1      21.351   5.080  21.821  0.00  0.00    -0.013 C 
ATOM     16  C   UNL     1      20.987   3.921  20.899  0.00  0.00    +0.007 C 
ATOM     17  C   UNL     1      22.564   5.836  21.288  0.00  0.00    +0.007 C 
ENDBRANCH   7  11
BRANCH  10  14
ATOM     14  C   UNL     1      17.103   6.482  21.091  0.00  0.00    +0.103 C 
BRANCH  14  19
ATOM      1  O   UNL     1      16.427   5.854  18.908  0.00  0.00    -0.276 OA
ATOM      3  N   UNL     1      14.923   7.132  20.132  0.00  0.00    -0.299 N 
ATOM      5  N   UNL     1      12.196   7.798  20.707  0.00  0.00    -0.302 NA
ATOM     19  C   UNL     1      16.127   6.458  19.941  0.00  0.00    +0.216 C 
ATOM     20  C   UNL     1      13.922   7.152  19.066  0.00  0.00    +0.123 C 
ATOM     21  C   UNL     1      14.593   7.968  21.291  0.00  0.00    +0.123 C 
ATOM     22  C   UNL     1      12.523   6.872  19.614  0.00  0.00    +0.103 C 
ATOM     23  C   UNL     1      13.178   7.677  21.795  0.00  0.00    +0.103 C 
ATOM     25  C   UNL     1      10.844   7.547  21.205  0.00  0.00    +0.105 C 
ENDBRANCH  14  19
ENDBRANCH  10  14
BRANCH   8  15
ATOM     15  C   UNL     1      20.718   7.029  24.254  0.00  0.00    +0.113 C 
BRANCH  15   4
ATOM      2  O   UNL     1      22.284   4.826  25.265  0.00  0.00    -0.253 OA
ATOM      4  N   UNL     1      22.099   7.052  24.623  0.00  0.00    -0.299 N 
ATOM      6  N   UNL     1      24.122   6.236  25.391  0.00  0.00    -0.300 N 
ATOM     24  C   UNL     1      22.792   5.936  25.109  0.00  0.00    +0.300 C 
ATOM     28  H   UNL     1      22.629   7.904  24.466  0.00  0.00    +0.150 HD
ATOM     29  H   UNL     1      24.450   7.185  25.243  0.00  0.00    +0.150 HD
BRANCH   6  26
ATOM     26  C   UNL     1      25.053   5.259  25.905  0.00  0.00    +0.102 C 
ATOM     27  C   UNL     1      25.821   4.583  24.787  0.00  0.00    +0.024 C 
ENDBRANCH   6  26
ENDBRANCH  15   4
ENDBRANCH   8  15
TORSDOF 6
ENDMDL
