MODEL 1
REMARK VINA RESULT:      -7.7      0.000      0.000
REMARK  Name = 11912433
REMARK  4 active torsions:
REMARK  status: ('A' for Active; 'I' for Inactive)
REMARK    1  A    between atoms: O_6  and  C_33
REMARK    2  A    between atoms: O_6  and  C_34
REMARK    3  A    between atoms: N_9  and  C_18
REMARK    4  A    between atoms: C_25  and  C_28
REMARK                            x       y       z     vdW  Elec       q    Type
REMARK                         _______ _______ _______ _____ _____    ______ ____
ROOT
ATOM      4  O   UNL     1      13.493   6.521   7.319  0.00  0.00    -0.253 OA
ATOM      5  O   UNL     1      10.437   7.372   2.194  0.00  0.00    -0.267 OA
ATOM      7  N   UNL     1      11.436   7.584   7.142  0.00  0.00    -0.285 N 
ATOM      8  N   UNL     1       9.961   6.774   4.397  0.00  0.00    -0.311 N 
ATOM      9  N   UNL     1      13.452   8.697   6.596  0.00  0.00    -0.296 N 
ATOM     10  C   UNL     1       9.301   8.489   6.178  0.00  0.00    +0.027 C 
ATOM     11  C   UNL     1       9.454   6.114   6.774  0.00  0.00    +0.054 C 
ATOM     12  C   UNL     1       8.542   7.336   6.818  0.00  0.00    +0.018 C 
ATOM     13  C   UNL     1      10.609   8.783   6.939  0.00  0.00    +0.114 C 
ATOM     14  C   UNL     1      10.716   6.393   7.608  0.00  0.00    +0.119 C 
ATOM     15  C   UNL     1       9.559   8.153   4.704  0.00  0.00    +0.130 C 
ATOM     16  C   UNL     1       9.844   5.761   5.351  0.00  0.00    +0.027 A 
ATOM     17  C   UNL     1      12.838   7.530   7.037  0.00  0.00    +0.302 C 
ATOM     19  C   UNL     1      10.099   4.487   5.014  0.00  0.00    +0.022 A 
ATOM     20  C   UNL     1      10.358   6.510   3.072  0.00  0.00    +0.259 A 
ATOM     25  C   UNL     1      10.674   5.078   2.734  0.00  0.00    +0.047 A 
ATOM     27  C   UNL     1      10.527   4.145   3.688  0.00  0.00    +0.015 A 
ATOM     35  H   UNL     1      12.929   9.556   6.512  0.00  0.00    +0.151 HD
ENDROOT
BRANCH   9  18
ATOM     18  C   UNL     1      14.885   8.802   6.441  0.00  0.00    +0.074 C 
ATOM     21  C   UNL     1      15.342   8.185   5.115  0.00  0.00    +0.022 C 
ATOM     22  C   UNL     1      15.347  10.257   6.565  0.00  0.00    +0.022 C 
ATOM     23  C   UNL     1      14.944   9.033   3.907  0.00  0.00    +0.002 C 
ATOM     24  C   UNL     1      14.950  11.103   5.355  0.00  0.00    +0.002 C 
ATOM     26  C   UNL     1      15.425  10.473   4.048  0.00  0.00    +0.000 C 
ENDBRANCH   9  18
BRANCH  25  28
ATOM     28  C   UNL     1      11.145   4.695   1.392  0.00  0.00    -0.012 A 
ATOM     29  C   UNL     1      12.448   4.228   1.215  0.00  0.00    +0.012 A 
ATOM     30  C   UNL     1      10.289   4.799   0.295  0.00  0.00    +0.012 A 
ATOM     31  C   UNL     1      12.895   3.866  -0.055  0.00  0.00    +0.046 A 
ATOM     32  C   UNL     1      10.736   4.437  -0.976  0.00  0.00    +0.046 A 
ATOM     33  C   UNL     1      12.038   3.970  -1.151  0.00  0.00    +0.130 A 
BRANCH  33   6
ATOM      6  O   UNL     1      12.473   3.616  -2.391  0.00  0.00    -0.406 OA
BRANCH   6  34
ATOM      1  F   UNL     1      12.880   2.013  -3.927  0.00  0.00    -0.133 F 
ATOM      2  F   UNL     1      12.084   1.399  -1.986  0.00  0.00    -0.133 F 
ATOM      3  F   UNL     1      10.798   2.462  -3.436  0.00  0.00    -0.133 F 
ATOM     34  C   UNL     1      12.044   2.368  -2.925  0.00  0.00    +0.575 C 
ENDBRANCH   6  34
ENDBRANCH  33   6
ENDBRANCH  25  28
TORSDOF 4
ENDMDL
MODEL 2
REMARK VINA RESULT:      -7.1      4.823      9.407
REMARK  Name = 11912433
REMARK  4 active torsions:
REMARK  status: ('A' for Active; 'I' for Inactive)
REMARK    1  A    between atoms: O_6  and  C_33
REMARK    2  A    between atoms: O_6  and  C_34
REMARK    3  A    between atoms: N_9  and  C_18
REMARK    4  A    between atoms: C_25  and  C_28
REMARK                            x       y       z     vdW  Elec       q    Type
REMARK                         _______ _______ _______ _____ _____    ______ ____
ROOT
ATOM      4  O   UNL     1      10.102   3.230  -2.622  0.00  0.00    -0.253 OA
ATOM      5  O   UNL     1      11.957   7.120   1.592  0.00  0.00    -0.267 OA
ATOM      7  N   UNL     1      11.998   4.563  -2.766  0.00  0.00    -0.285 N 
ATOM      8  N   UNL     1      12.922   5.558   0.154  0.00  0.00    -0.311 N 
ATOM      9  N   UNL     1       9.841   5.436  -3.194  0.00  0.00    -0.296 N 
ATOM     10  C   UNL     1      13.818   6.185  -2.159  0.00  0.00    +0.027 C 
ATOM     11  C   UNL     1      13.957   3.859  -1.390  0.00  0.00    +0.054 C 
ATOM     12  C   UNL     1      14.772   5.016  -1.961  0.00  0.00    +0.018 C 
ATOM     13  C   UNL     1      12.680   5.814  -3.131  0.00  0.00    +0.114 C 
ATOM     14  C   UNL     1      12.881   3.446  -2.407  0.00  0.00    +0.119 C 
ATOM     15  C   UNL     1      13.282   6.623  -0.791  0.00  0.00    +0.130 C 
ATOM     16  C   UNL     1      13.305   4.235  -0.073  0.00  0.00    +0.027 A 
ATOM     17  C   UNL     1      10.612   4.334  -2.844  0.00  0.00    +0.302 C 
ATOM     19  C   UNL     1      13.075   3.298   0.861  0.00  0.00    +0.022 A 
ATOM     20  C   UNL     1      12.277   5.957   1.341  0.00  0.00    +0.259 A 
ATOM     25  C   UNL     1      11.998   4.877   2.353  0.00  0.00    +0.047 A 
ATOM     27  C   UNL     1      12.404   3.626   2.087  0.00  0.00    +0.015 A 
ATOM     35  H   UNL     1      10.274   6.289  -3.517  0.00  0.00    +0.151 HD
ENDROOT
BRANCH   9  18
ATOM     18  C   UNL     1       8.403   5.360  -3.321  0.00  0.00    +0.074 C 
ATOM     21  C   UNL     1       7.735   6.629  -2.782  0.00  0.00    +0.022 C 
ATOM     22  C   UNL     1       7.992   5.089  -4.772  0.00  0.00    +0.022 C 
ATOM     23  C   UNL     1       7.956   7.838  -3.691  0.00  0.00    +0.002 C 
ATOM     24  C   UNL     1       8.212   6.300  -5.679  0.00  0.00    +0.002 C 
ATOM     26  C   UNL     1       7.529   7.548  -5.126  0.00  0.00    +0.000 C 
ENDBRANCH   9  18
BRANCH  25  28
ATOM     28  C   UNL     1      11.285   5.172   3.608  0.00  0.00    -0.012 A 
ATOM     29  C   UNL     1      10.167   4.419   3.970  0.00  0.00    +0.012 A 
ATOM     30  C   UNL     1      11.726   6.204   4.436  0.00  0.00    +0.012 A 
ATOM     31  C   UNL     1       9.492   4.699   5.158  0.00  0.00    +0.046 A 
ATOM     32  C   UNL     1      11.051   6.484   5.624  0.00  0.00    +0.046 A 
ATOM     33  C   UNL     1       9.935   5.731   5.985  0.00  0.00    +0.130 A 
BRANCH  33   6
ATOM      6  O   UNL     1       9.276   6.002   7.145  0.00  0.00    -0.406 OA
BRANCH   6  34
ATOM      1  F   UNL     1       8.822   5.607   9.320  0.00  0.00    -0.133 F 
ATOM      2  F   UNL     1       9.781   4.018   8.165  0.00  0.00    -0.133 F 
ATOM      3  F   UNL     1      10.914   5.829   8.732  0.00  0.00    -0.133 F 
ATOM     34  C   UNL     1       9.714   5.356   8.335  0.00  0.00    +0.575 C 
ENDBRANCH   6  34
ENDBRANCH  33   6
ENDBRANCH  25  28
TORSDOF 4
ENDMDL
MODEL 3
REMARK VINA RESULT:      -7.0     24.446     26.621
REMARK  Name = 11912433
REMARK  4 active torsions:
REMARK  status: ('A' for Active; 'I' for Inactive)
REMARK    1  A    between atoms: O_6  and  C_33
REMARK    2  A    between atoms: O_6  and  C_34
REMARK    3  A    between atoms: N_9  and  C_18
REMARK    4  A    between atoms: C_25  and  C_28
REMARK                            x       y       z     vdW  Elec       q    Type
REMARK                         _______ _______ _______ _____ _____    ______ ____
ROOT
ATOM      4  O   UNL     1      -3.518  -9.933  15.995  0.00  0.00    -0.253 OA
ATOM      5  O   UNL     1      -6.333 -12.388  11.264  0.00  0.00    -0.267 OA
ATOM      7  N   UNL     1      -3.166 -12.082  15.190  0.00  0.00    -0.285 N 
ATOM      8  N   UNL     1      -4.173 -12.342  12.142  0.00  0.00    -0.311 N 
ATOM      9  N   UNL     1      -5.036 -11.562  16.543  0.00  0.00    -0.296 N 
ATOM     10  C   UNL     1      -3.300 -14.134  13.747  0.00  0.00    +0.027 C 
ATOM     11  C   UNL     1      -1.839 -12.277  13.086  0.00  0.00    +0.054 C 
ATOM     12  C   UNL     1      -1.933 -13.797  13.169  0.00  0.00    +0.018 C 
ATOM     13  C   UNL     1      -3.477 -13.519  15.150  0.00  0.00    +0.114 C 
ATOM     14  C   UNL     1      -1.932 -11.685  14.502  0.00  0.00    +0.119 C 
ATOM     15  C   UNL     1      -4.381 -13.653  12.771  0.00  0.00    +0.130 C 
ATOM     16  C   UNL     1      -2.936 -11.699  12.212  0.00  0.00    +0.027 A 
ATOM     17  C   UNL     1      -3.882 -11.111  15.913  0.00  0.00    +0.302 C 
ATOM     19  C   UNL     1      -2.730 -10.562  11.528  0.00  0.00    +0.022 A 
ATOM     20  C   UNL     1      -5.241 -11.830  11.379  0.00  0.00    +0.259 A 
ATOM     25  C   UNL     1      -4.991 -10.534  10.655  0.00  0.00    +0.047 A 
ATOM     27  C   UNL     1      -3.777  -9.971  10.745  0.00  0.00    +0.015 A 
ATOM     35  H   UNL     1      -5.245 -12.548  16.595  0.00  0.00    +0.151 HD
ENDROOT
BRANCH   9  18
ATOM     18  C   UNL     1      -5.877 -10.687  17.328  0.00  0.00    +0.074 C 
ATOM     21  C   UNL     1      -7.353 -11.078  17.199  0.00  0.00    +0.022 C 
ATOM     22  C   UNL     1      -5.434 -10.667  18.794  0.00  0.00    +0.022 C 
ATOM     23  C   UNL     1      -7.679 -12.381  17.928  0.00  0.00    +0.002 C 
ATOM     24  C   UNL     1      -5.763 -11.971  19.522  0.00  0.00    +0.002 C 
ATOM     26  C   UNL     1      -7.239 -12.333  19.388  0.00  0.00    +0.000 C 
ENDBRANCH   9  18
BRANCH  25  28
ATOM     28  C   UNL     1      -6.052  -9.883   9.867  0.00  0.00    -0.012 A 
ATOM     29  C   UNL     1      -7.072  -9.183  10.513  0.00  0.00    +0.012 A 
ATOM     30  C   UNL     1      -6.039  -9.965   8.474  0.00  0.00    +0.012 A 
ATOM     31  C   UNL     1      -8.077  -8.567   9.767  0.00  0.00    +0.046 A 
ATOM     32  C   UNL     1      -7.044  -9.349   7.729  0.00  0.00    +0.046 A 
ATOM     33  C   UNL     1      -8.062  -8.649   8.375  0.00  0.00    +0.130 A 
BRANCH  33   6
ATOM      6  O   UNL     1      -9.042  -8.047   7.648  0.00  0.00    -0.406 OA
BRANCH   6  34
ATOM      1  F   UNL     1      -9.904  -6.059   7.015  0.00  0.00    -0.133 F 
ATOM      2  F   UNL     1      -7.860  -6.094   7.788  0.00  0.00    -0.133 F 
ATOM      3  F   UNL     1      -8.315  -6.926   5.792  0.00  0.00    -0.133 F 
ATOM     34  C   UNL     1      -8.762  -6.782   7.057  0.00  0.00    +0.575 C 
ENDBRANCH   6  34
ENDBRANCH  33   6
ENDBRANCH  25  28
TORSDOF 4
ENDMDL
MODEL 4
REMARK VINA RESULT:      -7.0      4.566      8.025
REMARK  Name = 11912433
REMARK  4 active torsions:
REMARK  status: ('A' for Active; 'I' for Inactive)
REMARK    1  A    between atoms: O_6  and  C_33
REMARK    2  A    between atoms: O_6  and  C_34
REMARK    3  A    between atoms: N_9  and  C_18
REMARK    4  A    between atoms: C_25  and  C_28
REMARK                            x       y       z     vdW  Elec       q    Type
REMARK                         _______ _______ _______ _____ _____    ______ ____
ROOT
ATOM      4  O   UNL     1       9.440   8.036   3.009  0.00  0.00    -0.253 OA
ATOM      5  O   UNL     1      13.853   6.817   6.930  0.00  0.00    -0.267 OA
ATOM      7  N   UNL     1       9.150   7.068   5.100  0.00  0.00    -0.285 N 
ATOM      8  N   UNL     1      11.681   7.664   6.998  0.00  0.00    -0.311 N 
ATOM      9  N   UNL     1       9.899   5.801   3.247  0.00  0.00    -0.296 N 
ATOM     10  C   UNL     1       9.636   6.179   7.398  0.00  0.00    +0.027 C 
ATOM     11  C   UNL     1       9.341   8.593   7.066  0.00  0.00    +0.054 C 
ATOM     12  C   UNL     1       9.010   7.431   7.997  0.00  0.00    +0.018 C 
ATOM     13  C   UNL     1       9.077   5.899   5.989  0.00  0.00    +0.114 C 
ATOM     14  C   UNL     1       8.705   8.337   5.689  0.00  0.00    +0.119 C 
ATOM     15  C   UNL     1      11.160   6.347   7.387  0.00  0.00    +0.130 C 
ATOM     16  C   UNL     1      10.839   8.775   6.916  0.00  0.00    +0.027 A 
ATOM     17  C   UNL     1       9.494   7.038   3.736  0.00  0.00    +0.302 C 
ATOM     19  C   UNL     1      11.354   9.992   6.680  0.00  0.00    +0.022 A 
ATOM     20  C   UNL     1      13.076   7.768   6.827  0.00  0.00    +0.259 A 
ATOM     25  C   UNL     1      13.618   9.139   6.527  0.00  0.00    +0.047 A 
ATOM     27  C   UNL     1      12.763  10.172   6.476  0.00  0.00    +0.015 A 
ATOM     35  H   UNL     1       9.799   4.966   3.805  0.00  0.00    +0.151 HD
ENDROOT
BRANCH   9  18
ATOM     18  C   UNL     1      10.280   5.607   1.866  0.00  0.00    +0.074 C 
ATOM     21  C   UNL     1      11.602   6.316   1.554  0.00  0.00    +0.022 C 
ATOM     22  C   UNL     1      10.353   4.117   1.519  0.00  0.00    +0.022 C 
ATOM     23  C   UNL     1      12.803   5.621   2.196  0.00  0.00    +0.002 C 
ATOM     24  C   UNL     1      11.557   3.425   2.161  0.00  0.00    +0.002 C 
ATOM     26  C   UNL     1      12.861   4.143   1.827  0.00  0.00    +0.000 C 
ENDBRANCH   9  18
BRANCH  25  28
ATOM     28  C   UNL     1      15.055   9.355   6.282  0.00  0.00    -0.012 A 
ATOM     29  C   UNL     1      15.802   8.387   5.609  0.00  0.00    +0.012 A 
ATOM     30  C   UNL     1      15.670  10.528   6.721  0.00  0.00    +0.012 A 
ATOM     31  C   UNL     1      17.162   8.591   5.377  0.00  0.00    +0.046 A 
ATOM     32  C   UNL     1      17.030  10.732   6.489  0.00  0.00    +0.046 A 
ATOM     33  C   UNL     1      17.776   9.764   5.816  0.00  0.00    +0.130 A 
BRANCH  33   6
ATOM      6  O   UNL     1      19.103   9.964   5.589  0.00  0.00    -0.406 OA
BRANCH   6  34
ATOM      1  F   UNL     1      21.162   9.820   6.502  0.00  0.00    -0.133 F 
ATOM      2  F   UNL     1      19.543   8.684   7.432  0.00  0.00    -0.133 F 
ATOM      3  F   UNL     1      20.367   8.062   5.478  0.00  0.00    -0.133 F 
ATOM     34  C   UNL     1      20.035   9.116   6.251  0.00  0.00    +0.575 C 
ENDBRANCH   6  34
ENDBRANCH  33   6
ENDBRANCH  25  28
TORSDOF 4
ENDMDL
MODEL 5
REMARK VINA RESULT:      -6.9     27.378     30.581
REMARK  Name = 11912433
REMARK  4 active torsions:
REMARK  status: ('A' for Active; 'I' for Inactive)
REMARK    1  A    between atoms: O_6  and  C_33
REMARK    2  A    between atoms: O_6  and  C_34
REMARK    3  A    between atoms: N_9  and  C_18
REMARK    4  A    between atoms: C_25  and  C_28
REMARK                            x       y       z     vdW  Elec       q    Type
REMARK                         _______ _______ _______ _____ _____    ______ ____
ROOT
ATOM      4  O   UNL     1     -10.875   8.304  14.974  0.00  0.00    -0.253 OA
ATOM      5  O   UNL     1     -14.498   9.221  19.704  0.00  0.00    -0.267 OA
ATOM      7  N   UNL     1     -11.297  10.362  15.965  0.00  0.00    -0.285 N 
ATOM      8  N   UNL     1     -12.424   9.983  18.957  0.00  0.00    -0.311 N 
ATOM      9  N   UNL     1     -12.838   9.376  14.465  0.00  0.00    -0.296 N 
ATOM     10  C   UNL     1     -12.161  12.105  17.552  0.00  0.00    +0.027 C 
ATOM     11  C   UNL     1     -10.178  10.791  18.153  0.00  0.00    +0.054 C 
ATOM     12  C   UNL     1     -10.779  12.193  18.184  0.00  0.00    +0.018 C 
ATOM     13  C   UNL     1     -12.076  11.602  16.098  0.00  0.00    +0.114 C 
ATOM     14  C   UNL     1     -10.022  10.337  16.693  0.00  0.00    +0.119 C 
ATOM     15  C   UNL     1     -13.044  11.201  18.421  0.00  0.00    +0.130 C 
ATOM     16  C   UNL     1     -11.040   9.800  18.911  0.00  0.00    +0.027 A 
ATOM     17  C   UNL     1     -11.619   9.279  15.125  0.00  0.00    +0.302 C 
ATOM     19  C   UNL     1     -10.483   8.739  19.516  0.00  0.00    +0.022 A 
ATOM     20  C   UNL     1     -13.278   9.074  19.612  0.00  0.00    +0.259 A 
ATOM     25  C   UNL     1     -12.627   7.874  20.247  0.00  0.00    +0.047 A 
ATOM     27  C   UNL     1     -11.291   7.760  20.186  0.00  0.00    +0.015 A 
ATOM     35  H   UNL     1     -13.367  10.235  14.477  0.00  0.00    +0.151 HD
ENDROOT
BRANCH   9  18
ATOM     18  C   UNL     1     -13.308   8.347  13.564  0.00  0.00    +0.074 C 
ATOM     21  C   UNL     1     -14.445   7.538  14.198  0.00  0.00    +0.022 C 
ATOM     22  C   UNL     1     -13.735   8.945  12.220  0.00  0.00    +0.022 C 
ATOM     23  C   UNL     1     -15.746   8.334  14.295  0.00  0.00    +0.002 C 
ATOM     24  C   UNL     1     -15.038   9.740  12.320  0.00  0.00    +0.002 C 
ATOM     26  C   UNL     1     -16.156   8.909  12.943  0.00  0.00    +0.000 C 
ENDBRANCH   9  18
BRANCH  25  28
ATOM     28  C   UNL     1     -13.428   6.835  20.916  0.00  0.00    -0.012 A 
ATOM     29  C   UNL     1     -14.804   6.763  20.694  0.00  0.00    +0.012 A 
ATOM     30  C   UNL     1     -12.813   5.920  21.771  0.00  0.00    +0.012 A 
ATOM     31  C   UNL     1     -15.564   5.780  21.328  0.00  0.00    +0.046 A 
ATOM     32  C   UNL     1     -13.572   4.936  22.404  0.00  0.00    +0.046 A 
ATOM     33  C   UNL     1     -14.947   4.866  22.182  0.00  0.00    +0.130 A 
BRANCH  33   6
ATOM      6  O   UNL     1     -15.688   3.905  22.799  0.00  0.00    -0.406 OA
BRANCH   6  34
ATOM      1  F   UNL     1     -17.220   3.584  24.426  0.00  0.00    -0.133 F 
ATOM      2  F   UNL     1     -15.108   3.370  24.946  0.00  0.00    -0.133 F 
ATOM      3  F   UNL     1     -15.961   5.367  24.537  0.00  0.00    -0.133 F 
ATOM     34  C   UNL     1     -15.979   4.065  24.183  0.00  0.00    +0.575 C 
ENDBRANCH   6  34
ENDBRANCH  33   6
ENDBRANCH  25  28
TORSDOF 4
ENDMDL
MODEL 6
REMARK VINA RESULT:      -6.9     35.250     38.549
REMARK  Name = 11912433
REMARK  4 active torsions:
REMARK  status: ('A' for Active; 'I' for Inactive)
REMARK    1  A    between atoms: O_6  and  C_33
REMARK    2  A    between atoms: O_6  and  C_34
REMARK    3  A    between atoms: N_9  and  C_18
REMARK    4  A    between atoms: C_25  and  C_28
REMARK                            x       y       z     vdW  Elec       q    Type
REMARK                         _______ _______ _______ _____ _____    ______ ____
ROOT
ATOM      4  O   UNL     1     -11.217  10.137  31.616  0.00  0.00    -0.253 OA
ATOM      5  O   UNL     1     -15.991   6.457  31.636  0.00  0.00    -0.267 OA
ATOM      7  N   UNL     1     -13.369  10.733  32.252  0.00  0.00    -0.285 N 
ATOM      8  N   UNL     1     -15.104   8.126  33.003  0.00  0.00    -0.311 N 
ATOM      9  N   UNL     1     -12.754  10.578  29.973  0.00  0.00    -0.296 N 
ATOM     10  C   UNL     1     -15.811  10.578  32.819  0.00  0.00    +0.027 C 
ATOM     11  C   UNL     1     -14.134   9.918  34.483  0.00  0.00    +0.054 C 
ATOM     12  C   UNL     1     -15.457  10.654  34.297  0.00  0.00    +0.018 C 
ATOM     13  C   UNL     1     -14.719  11.234  31.951  0.00  0.00    +0.114 C 
ATOM     14  C   UNL     1     -13.037  10.634  33.679  0.00  0.00    +0.119 C 
ATOM     15  C   UNL     1     -16.038   9.109  32.439  0.00  0.00    +0.130 C 
ATOM     16  C   UNL     1     -14.235   8.471  34.041  0.00  0.00    +0.027 A 
ATOM     17  C   UNL     1     -12.368  10.459  31.303  0.00  0.00    +0.302 C 
ATOM     19  C   UNL     1     -13.478   7.528  34.624  0.00  0.00    +0.022 A 
ATOM     20  C   UNL     1     -15.210   6.805  32.524  0.00  0.00    +0.259 A 
ATOM     25  C   UNL     1     -14.321   5.779  33.172  0.00  0.00    +0.047 A 
ATOM     27  C   UNL     1     -13.519   6.165  34.177  0.00  0.00    +0.015 A 
ATOM     35  H   UNL     1     -13.646  10.983  29.727  0.00  0.00    +0.151 HD
ENDROOT
BRANCH   9  18
ATOM     18  C   UNL     1     -11.839  10.335  28.880  0.00  0.00    +0.074 C 
ATOM     21  C   UNL     1     -12.592   9.924  27.611  0.00  0.00    +0.022 C 
ATOM     22  C   UNL     1     -10.949  11.555  28.626  0.00  0.00    +0.022 C 
ATOM     23  C   UNL     1     -13.357  11.088  26.981  0.00  0.00    +0.002 C 
ATOM     24  C   UNL     1     -11.715  12.718  27.994  0.00  0.00    +0.002 C 
ATOM     26  C   UNL     1     -12.447  12.286  26.727  0.00  0.00    +0.000 C 
ENDBRANCH   9  18
BRANCH  25  28
ATOM     28  C   UNL     1     -14.314   4.378  32.718  0.00  0.00    -0.012 A 
ATOM     29  C   UNL     1     -15.058   3.417  33.405  0.00  0.00    +0.012 A 
ATOM     30  C   UNL     1     -13.565   4.009  31.600  0.00  0.00    +0.012 A 
ATOM     31  C   UNL     1     -15.052   2.090  32.975  0.00  0.00    +0.046 A 
ATOM     32  C   UNL     1     -13.559   2.682  31.170  0.00  0.00    +0.046 A 
ATOM     33  C   UNL     1     -14.303   1.723  31.857  0.00  0.00    +0.130 A 
BRANCH  33   6
ATOM      6  O   UNL     1     -14.298   0.429  31.437  0.00  0.00    -0.406 OA
BRANCH   6  34
ATOM      1  F   UNL     1     -14.636  -0.299  29.327  0.00  0.00    -0.133 F 
ATOM      2  F   UNL     1     -15.951  -1.057  30.899  0.00  0.00    -0.133 F 
ATOM      3  F   UNL     1     -16.127   1.034  30.206  0.00  0.00    -0.133 F 
ATOM     34  C   UNL     1     -15.269   0.028  30.476  0.00  0.00    +0.575 C 
ENDBRANCH   6  34
ENDBRANCH  33   6
ENDBRANCH  25  28
TORSDOF 4
ENDMDL
MODEL 7
REMARK VINA RESULT:      -6.8     26.496     29.205
REMARK  Name = 11912433
REMARK  4 active torsions:
REMARK  status: ('A' for Active; 'I' for Inactive)
REMARK    1  A    between atoms: O_6  and  C_33
REMARK    2  A    between atoms: O_6  and  C_34
REMARK    3  A    between atoms: N_9  and  C_18
REMARK    4  A    between atoms: C_25  and  C_28
REMARK                            x       y       z     vdW  Elec       q    Type
REMARK                         _______ _______ _______ _____ _____    ______ ____
ROOT
ATOM      4  O   UNL     1      -5.461 -13.332  13.332  0.00  0.00    -0.253 OA
ATOM      5  O   UNL     1      -7.615  -8.797  16.668  0.00  0.00    -0.267 OA
ATOM      7  N   UNL     1      -4.290 -12.216  14.999  0.00  0.00    -0.285 N 
ATOM      8  N   UNL     1      -6.310 -10.702  16.998  0.00  0.00    -0.311 N 
ATOM      9  N   UNL     1      -4.552 -11.284  12.840  0.00  0.00    -0.296 N 
ATOM     10  C   UNL     1      -3.754 -10.655  16.891  0.00  0.00    +0.027 C 
ATOM     11  C   UNL     1      -4.913 -12.767  17.351  0.00  0.00    +0.054 C 
ATOM     12  C   UNL     1      -3.824 -11.827  17.858  0.00  0.00    +0.018 C 
ATOM     13  C   UNL     1      -3.415 -11.130  15.464  0.00  0.00    +0.114 C 
ATOM     14  C   UNL     1      -4.519 -13.299  15.963  0.00  0.00    +0.119 C 
ATOM     15  C   UNL     1      -5.084  -9.894  16.939  0.00  0.00    +0.130 C 
ATOM     16  C   UNL     1      -6.258 -12.069  17.274  0.00  0.00    +0.027 A 
ATOM     17  C   UNL     1      -4.814 -12.345  13.699  0.00  0.00    +0.302 C 
ATOM     19  C   UNL     1      -7.394 -12.764  17.444  0.00  0.00    +0.022 A 
ATOM     20  C   UNL     1      -7.530 -10.009  16.874  0.00  0.00    +0.259 A 
ATOM     25  C   UNL     1      -8.787 -10.823  17.033  0.00  0.00    +0.047 A 
ATOM     27  C   UNL     1      -8.674 -12.131  17.314  0.00  0.00    +0.015 A 
ATOM     35  H   UNL     1      -3.901 -10.557  13.099  0.00  0.00    +0.151 HD
ENDROOT
BRANCH   9  18
ATOM     18  C   UNL     1      -5.017 -11.270  11.471  0.00  0.00    +0.074 C 
ATOM     21  C   UNL     1      -6.127 -10.232  11.278  0.00  0.00    +0.022 C 
ATOM     22  C   UNL     1      -3.858 -11.031  10.498  0.00  0.00    +0.022 C 
ATOM     23  C   UNL     1      -5.603  -8.797  11.330  0.00  0.00    +0.002 C 
ATOM     24  C   UNL     1      -3.336  -9.594  10.551  0.00  0.00    +0.002 C 
ATOM     26  C   UNL     1      -4.458  -8.581  10.345  0.00  0.00    +0.000 C 
ENDBRANCH   9  18
BRANCH  25  28
ATOM     28  C   UNL     1     -10.118 -10.212  16.876  0.00  0.00    -0.012 A 
ATOM     29  C   UNL     1     -10.803  -9.733  17.993  0.00  0.00    +0.012 A 
ATOM     30  C   UNL     1     -10.695 -10.110  15.610  0.00  0.00    +0.012 A 
ATOM     31  C   UNL     1     -12.063  -9.154  17.845  0.00  0.00    +0.046 A 
ATOM     32  C   UNL     1     -11.956  -9.531  15.461  0.00  0.00    +0.046 A 
ATOM     33  C   UNL     1     -12.639  -9.053  16.579  0.00  0.00    +0.130 A 
BRANCH  33   6
ATOM      6  O   UNL     1     -13.868  -8.487  16.434  0.00  0.00    -0.406 OA
BRANCH   6  34
ATOM      1  F   UNL     1     -15.018  -6.546  16.522  0.00  0.00    -0.133 F 
ATOM      2  F   UNL     1     -12.844  -6.445  16.321  0.00  0.00    -0.133 F 
ATOM      3  F   UNL     1     -14.094  -7.109  14.623  0.00  0.00    -0.133 F 
ATOM     34  C   UNL     1     -13.941  -7.146  15.964  0.00  0.00    +0.575 C 
ENDBRANCH   6  34
ENDBRANCH  33   6
ENDBRANCH  25  28
TORSDOF 4
ENDMDL
MODEL 8
REMARK VINA RESULT:      -6.7      2.020      4.686
REMARK  Name = 11912433
REMARK  4 active torsions:
REMARK  status: ('A' for Active; 'I' for Inactive)
REMARK    1  A    between atoms: O_6  and  C_33
REMARK    2  A    between atoms: O_6  and  C_34
REMARK    3  A    between atoms: N_9  and  C_18
REMARK    4  A    between atoms: C_25  and  C_28
REMARK                            x       y       z     vdW  Elec       q    Type
REMARK                         _______ _______ _______ _____ _____    ______ ____
ROOT
ATOM      4  O   UNL     1       9.640   9.328   5.812  0.00  0.00    -0.253 OA
ATOM      5  O   UNL     1      13.544   5.792   2.880  0.00  0.00    -0.267 OA
ATOM      7  N   UNL     1      11.929   9.247   6.195  0.00  0.00    -0.285 N 
ATOM      8  N   UNL     1      13.470   7.988   3.663  0.00  0.00    -0.311 N 
ATOM      9  N   UNL     1      10.474   7.599   7.067  0.00  0.00    -0.296 N 
ATOM     10  C   UNL     1      14.360   8.659   5.966  0.00  0.00    +0.027 C 
ATOM     11  C   UNL     1      13.379  10.363   4.497  0.00  0.00    +0.054 C 
ATOM     12  C   UNL     1      14.613  10.017   5.326  0.00  0.00    +0.018 C 
ATOM     13  C   UNL     1      13.113   8.694   6.871  0.00  0.00    +0.114 C 
ATOM     14  C   UNL     1      12.159  10.477   5.426  0.00  0.00    +0.119 C 
ATOM     15  C   UNL     1      14.234   7.607   4.858  0.00  0.00    +0.130 C 
ATOM     16  C   UNL     1      13.117   9.318   3.429  0.00  0.00    +0.027 A 
ATOM     17  C   UNL     1      10.614   8.763   6.321  0.00  0.00    +0.302 C 
ATOM     19  C   UNL     1      12.528   9.664   2.273  0.00  0.00    +0.022 A 
ATOM     20  C   UNL     1      13.214   6.970   2.724  0.00  0.00    +0.259 A 
ATOM     25  C   UNL     1      12.518   7.382   1.455  0.00  0.00    +0.047 A 
ATOM     27  C   UNL     1      12.218   8.678   1.278  0.00  0.00    +0.015 A 
ATOM     35  H   UNL     1      11.247   7.229   7.601  0.00  0.00    +0.151 HD
ENDROOT
BRANCH   9  18
ATOM     18  C   UNL     1       9.187   6.980   7.293  0.00  0.00    +0.074 C 
ATOM     21  C   UNL     1       8.956   5.819   6.321  0.00  0.00    +0.022 C 
ATOM     22  C   UNL     1       9.043   6.523   8.748  0.00  0.00    +0.022 C 
ATOM     23  C   UNL     1       9.825   4.604   6.644  0.00  0.00    +0.002 C 
ATOM     24  C   UNL     1       9.912   5.307   9.068  0.00  0.00    +0.002 C 
ATOM     26  C   UNL     1       9.656   4.161   8.094  0.00  0.00    +0.000 C 
ENDBRANCH   9  18
BRANCH  25  28
ATOM     28  C   UNL     1      12.158   6.392   0.425  0.00  0.00    -0.012 A 
ATOM     29  C   UNL     1      10.987   5.644   0.554  0.00  0.00    +0.012 A 
ATOM     30  C   UNL     1      12.987   6.201  -0.681  0.00  0.00    +0.012 A 
ATOM     31  C   UNL     1      10.646   4.706  -0.421  0.00  0.00    +0.046 A 
ATOM     32  C   UNL     1      12.646   5.263  -1.656  0.00  0.00    +0.046 A 
ATOM     33  C   UNL     1      11.475   4.517  -1.526  0.00  0.00    +0.130 A 
BRANCH  33   6
ATOM      6  O   UNL     1      11.142   3.603  -2.478  0.00  0.00    -0.406 OA
BRANCH   6  34
ATOM      1  F   UNL     1      12.512   2.090  -3.442  0.00  0.00    -0.133 F 
ATOM      2  F   UNL     1      12.437   2.165  -1.259  0.00  0.00    -0.133 F 
ATOM      3  F   UNL     1      10.733   1.354  -2.408  0.00  0.00    -0.133 F 
ATOM     34  C   UNL     1      11.698   2.296  -2.381  0.00  0.00    +0.575 C 
ENDBRANCH   6  34
ENDBRANCH  33   6
ENDBRANCH  25  28
TORSDOF 4
ENDMDL
MODEL 9
REMARK VINA RESULT:      -6.7      2.566      4.591
REMARK  Name = 11912433
REMARK  4 active torsions:
REMARK  status: ('A' for Active; 'I' for Inactive)
REMARK    1  A    between atoms: O_6  and  C_33
REMARK    2  A    between atoms: O_6  and  C_34
REMARK    3  A    between atoms: N_9  and  C_18
REMARK    4  A    between atoms: C_25  and  C_28
REMARK                            x       y       z     vdW  Elec       q    Type
REMARK                         _______ _______ _______ _____ _____    ______ ____
ROOT
ATOM      4  O   UNL     1      10.210  10.749   4.561  0.00  0.00    -0.253 OA
ATOM      5  O   UNL     1       9.859   4.881   3.228  0.00  0.00    -0.267 OA
ATOM      7  N   UNL     1       9.542   9.076   6.026  0.00  0.00    -0.285 N 
ATOM      8  N   UNL     1      10.569   6.195   5.019  0.00  0.00    -0.311 N 
ATOM      9  N   UNL     1       8.067   9.946   4.393  0.00  0.00    -0.296 N 
ATOM     10  C   UNL     1       9.033   6.806   6.972  0.00  0.00    +0.027 C 
ATOM     11  C   UNL     1      11.348   7.619   6.945  0.00  0.00    +0.054 C 
ATOM     12  C   UNL     1      10.316   6.874   7.787  0.00  0.00    +0.018 C 
ATOM     13  C   UNL     1       8.514   8.217   6.633  0.00  0.00    +0.114 C 
ATOM     14  C   UNL     1      10.853   9.052   6.687  0.00  0.00    +0.119 C 
ATOM     15  C   UNL     1       9.292   5.973   5.711  0.00  0.00    +0.130 C 
ATOM     16  C   UNL     1      11.600   6.915   5.625  0.00  0.00    +0.027 A 
ATOM     17  C   UNL     1       9.334   9.976   4.965  0.00  0.00    +0.302 C 
ATOM     19  C   UNL     1      12.800   7.002   5.029  0.00  0.00    +0.022 A 
ATOM     20  C   UNL     1      10.734   5.555   3.775  0.00  0.00    +0.259 A 
ATOM     25  C   UNL     1      12.078   5.703   3.114  0.00  0.00    +0.047 A 
ATOM     27  C   UNL     1      13.036   6.392   3.752  0.00  0.00    +0.015 A 
ATOM     35  H   UNL     1       7.318   9.423   4.822  0.00  0.00    +0.151 HD
ENDROOT
BRANCH   9  18
ATOM     18  C   UNL     1       7.697  10.813   3.298  0.00  0.00    +0.074 C 
ATOM     21  C   UNL     1       6.731  10.108   2.339  0.00  0.00    +0.022 C 
ATOM     22  C   UNL     1       7.107  12.130   3.812  0.00  0.00    +0.022 C 
ATOM     23  C   UNL     1       5.337   9.932   2.939  0.00  0.00    +0.002 C 
ATOM     24  C   UNL     1       5.711  11.951   4.410  0.00  0.00    +0.002 C 
ATOM     26  C   UNL     1       4.766  11.257   3.434  0.00  0.00    +0.000 C 
ENDBRANCH   9  18
BRANCH  25  28
ATOM     28  C   UNL     1      12.346   5.116   1.789  0.00  0.00    -0.012 A 
ATOM     29  C   UNL     1      12.815   3.805   1.688  0.00  0.00    +0.012 A 
ATOM     30  C   UNL     1      12.131   5.869   0.635  0.00  0.00    +0.012 A 
ATOM     31  C   UNL     1      13.069   3.249   0.434  0.00  0.00    +0.046 A 
ATOM     32  C   UNL     1      12.385   5.313  -0.619  0.00  0.00    +0.046 A 
ATOM     33  C   UNL     1      12.853   4.003  -0.719  0.00  0.00    +0.130 A 
BRANCH  33   6
ATOM      6  O   UNL     1      13.100   3.460  -1.942  0.00  0.00    -0.406 OA
BRANCH   6  34
ATOM      1  F   UNL     1      12.319   2.525  -3.843  0.00  0.00    -0.133 F 
ATOM      2  F   UNL     1      12.222   1.349  -2.003  0.00  0.00    -0.133 F 
ATOM      3  F   UNL     1      10.874   3.076  -2.299  0.00  0.00    -0.133 F 
ATOM     34  C   UNL     1      12.119   2.597  -2.507  0.00  0.00    +0.575 C 
ENDBRANCH   6  34
ENDBRANCH  33   6
ENDBRANCH  25  28
TORSDOF 4
ENDMDL
MODEL 10
REMARK VINA RESULT:      -6.7     28.510     31.496
REMARK  Name = 11912433
REMARK  4 active torsions:
REMARK  status: ('A' for Active; 'I' for Inactive)
REMARK    1  A    between atoms: O_6  and  C_33
REMARK    2  A    between atoms: O_6  and  C_34
REMARK    3  A    between atoms: N_9  and  C_18
REMARK    4  A    between atoms: C_25  and  C_28
REMARK                            x       y       z     vdW  Elec       q    Type
REMARK                         _______ _______ _______ _____ _____    ______ ____
ROOT
ATOM      4  O   UNL     1     -14.522 -10.634  15.711  0.00  0.00    -0.253 OA
ATOM      5  O   UNL     1      -9.740  -7.511  17.640  0.00  0.00    -0.267 OA
ATOM      7  N   UNL     1     -14.107  -8.395  15.256  0.00  0.00    -0.285 N 
ATOM      8  N   UNL     1     -10.992  -7.699  15.681  0.00  0.00    -0.311 N 
ATOM      9  N   UNL     1     -14.999  -9.087  17.336  0.00  0.00    -0.296 N 
ATOM     10  C   UNL     1     -12.968  -6.159  15.156  0.00  0.00    +0.027 C 
ATOM     11  C   UNL     1     -12.338  -7.916  13.563  0.00  0.00    +0.054 C 
ATOM     12  C   UNL     1     -12.615  -6.422  13.700  0.00  0.00    +0.018 C 
ATOM     13  C   UNL     1     -14.212  -6.965  15.580  0.00  0.00    +0.114 C 
ATOM     14  C   UNL     1     -13.614  -8.702  13.908  0.00  0.00    +0.119 C 
ATOM     15  C   UNL     1     -11.749  -6.488  16.027  0.00  0.00    +0.130 C 
ATOM     16  C   UNL     1     -11.202  -8.355  14.466  0.00  0.00    +0.027 A 
ATOM     17  C   UNL     1     -14.540  -9.454  16.076  0.00  0.00    +0.302 C 
ATOM     19  C   UNL     1     -10.416  -9.385  14.115  0.00  0.00    +0.022 A 
ATOM     20  C   UNL     1      -9.978  -8.089  16.577  0.00  0.00    +0.259 A 
ATOM     25  C   UNL     1      -9.139  -9.271  16.173  0.00  0.00    +0.047 A 
ATOM     27  C   UNL     1      -9.375  -9.852  14.986  0.00  0.00    +0.015 A 
ATOM     35  H   UNL     1     -15.149  -8.116  17.569  0.00  0.00    +0.151 HD
ENDROOT
BRANCH   9  18
ATOM     18  C   UNL     1     -15.482 -10.058  18.292  0.00  0.00    +0.074 C 
ATOM     21  C   UNL     1     -14.342 -10.572  19.178  0.00  0.00    +0.022 C 
ATOM     22  C   UNL     1     -16.623  -9.481  19.134  0.00  0.00    +0.022 C 
ATOM     23  C   UNL     1     -13.861  -9.522  20.180  0.00  0.00    +0.002 C 
ATOM     24  C   UNL     1     -16.139  -8.432  20.136  0.00  0.00    +0.002 C 
ATOM     26  C   UNL     1     -15.013  -8.971  21.014  0.00  0.00    +0.000 C 
ENDBRANCH   9  18
BRANCH  25  28
ATOM     28  C   UNL     1      -8.082  -9.795  17.056  0.00  0.00    -0.012 A 
ATOM     29  C   UNL     1      -8.422 -10.543  18.184  0.00  0.00    +0.012 A 
ATOM     30  C   UNL     1      -6.741  -9.546  16.765  0.00  0.00    +0.012 A 
ATOM     31  C   UNL     1      -7.423 -11.040  19.020  0.00  0.00    +0.046 A 
ATOM     32  C   UNL     1      -5.741 -10.043  17.601  0.00  0.00    +0.046 A 
ATOM     33  C   UNL     1      -6.082 -10.790  18.728  0.00  0.00    +0.130 A 
BRANCH  33   6
ATOM      6  O   UNL     1      -5.107 -11.275  19.544  0.00  0.00    -0.406 OA
BRANCH   6  34
ATOM      1  F   UNL     1      -3.383 -11.445  18.095  0.00  0.00    -0.133 F 
ATOM      2  F   UNL     1      -3.301 -12.624  19.934  0.00  0.00    -0.133 F 
ATOM      3  F   UNL     1      -4.711 -13.166  18.320  0.00  0.00    -0.133 F 
ATOM     34  C   UNL     1      -4.129 -12.144  18.982  0.00  0.00    +0.575 C 
ENDBRANCH   6  34
ENDBRANCH  33   6
ENDBRANCH  25  28
TORSDOF 4
ENDMDL
