MODEL 1
REMARK VINA RESULT:      -6.9      0.000      0.000
REMARK  Name = 45361078
REMARK  8 active torsions:
REMARK  status: ('A' for Active; 'I' for Inactive)
REMARK    1  A    between atoms: O_4  and  C_30
REMARK    2  A    between atoms: O_4  and  C_31
REMARK    3  A    between atoms: N_5  and  C_18
REMARK    4  A    between atoms: N_6  and  C_17
REMARK    5  A    between atoms: C_13  and  C_16
REMARK    6  A    between atoms: C_16  and  C_19
REMARK    7  A    between atoms: C_17  and  C_20
REMARK    8  A    between atoms: C_19  and  C_21
REMARK                            x       y       z     vdW  Elec       q    Type
REMARK                         _______ _______ _______ _____ _____    ______ ____
ROOT
ATOM      1  O   UNL     1      18.054   6.039  19.300  0.00  0.00    -0.274 OA
ATOM      5  N   UNL     1      15.709   9.033  20.023  0.00  0.00    -0.296 NA
ATOM      6  N   UNL     1      18.815   7.624  21.349  0.00  0.00    -0.286 NA
ATOM      7  N   UNL     1      15.818   6.161  19.769  0.00  0.00    -0.312 N 
ATOM      9  C   UNL     1      16.709   8.803  21.088  0.00  0.00    +0.084 C 
ATOM     10  C   UNL     1      17.366   7.396  21.199  0.00  0.00    +0.161 C 
ATOM     11  C   UNL     1      17.940   9.725  20.998  0.00  0.00    +0.036 C 
ATOM     12  C   UNL     1      18.986   8.995  21.815  0.00  0.00    +0.087 C 
ATOM     13  C   UNL     1      14.475   8.208  20.148  0.00  0.00    +0.074 C 
ATOM     14  C   UNL     1      17.143   6.483  19.996  0.00  0.00    +0.232 C 
ATOM     15  C   UNL     1      14.717   6.731  20.519  0.00  0.00    +0.123 C 
ATOM     18  C   UNL     1      15.360  10.460  19.930  0.00  0.00    +0.105 C 
ATOM     32  H   UNL     1      15.609   5.494  19.031  0.00  0.00    +0.149 HD
ENDROOT
BRANCH  13  16
ATOM     16  C   UNL     1      13.676   8.230  18.828  0.00  0.00    +0.029 C 
BRANCH  16  19
ATOM     19  C   UNL     1      12.465   9.139  18.914  0.00  0.00    +0.097 C 
BRANCH  19  21
ATOM      2  O   UNL     1      11.077   7.643  20.121  0.00  0.00    -0.276 OA
ATOM      3  O   UNL     1      11.600  11.320  23.385  0.00  0.00    -0.377 OA
ATOM      8  N   UNL     1      11.405   9.740  21.061  0.00  0.00    -0.297 N 
ATOM     21  C   UNL     1      11.584   8.766  20.080  0.00  0.00    +0.216 C 
ATOM     24  C   UNL     1      10.570   9.459  22.228  0.00  0.00    +0.136 C 
ATOM     25  C   UNL     1      11.888  11.123  20.984  0.00  0.00    +0.136 C 
ATOM     28  C   UNL     1      11.258   9.937  23.499  0.00  0.00    +0.179 C 
ATOM     29  C   UNL     1      12.517  11.536  22.309  0.00  0.00    +0.179 C 
ENDBRANCH  19  21
ENDBRANCH  16  19
ENDBRANCH  13  16
BRANCH   6  17
ATOM     17  C   UNL     1      19.463   6.660  22.230  0.00  0.00    +0.120 C 
BRANCH  17  20
ATOM     20  C   UNL     1      20.726   6.109  21.624  0.00  0.00    -0.033 A 
ATOM     22  C   UNL     1      20.822   4.748  21.331  0.00  0.00    +0.008 A 
ATOM     23  C   UNL     1      21.800   6.957  21.357  0.00  0.00    +0.008 A 
ATOM     26  C   UNL     1      21.992   4.237  20.769  0.00  0.00    +0.046 A 
ATOM     27  C   UNL     1      22.970   6.446  20.796  0.00  0.00    +0.046 A 
ATOM     30  C   UNL     1      23.066   5.085  20.502  0.00  0.00    +0.120 A 
BRANCH  30   4
ATOM      4  O   UNL     1      24.207   4.587  19.954  0.00  0.00    -0.495 OA
ATOM     31  C   UNL     1      24.525   3.226  20.238  0.00  0.00    +0.277 C 
ENDBRANCH  30   4
ENDBRANCH  17  20
ENDBRANCH   6  17
TORSDOF 6
ENDMDL
MODEL 2
REMARK VINA RESULT:      -6.9      2.847      9.905
REMARK  Name = 45361078
REMARK  8 active torsions:
REMARK  status: ('A' for Active; 'I' for Inactive)
REMARK    1  A    between atoms: O_4  and  C_30
REMARK    2  A    between atoms: O_4  and  C_31
REMARK    3  A    between atoms: N_5  and  C_18
REMARK    4  A    between atoms: N_6  and  C_17
REMARK    5  A    between atoms: C_13  and  C_16
REMARK    6  A    between atoms: C_16  and  C_19
REMARK    7  A    between atoms: C_17  and  C_20
REMARK    8  A    between atoms: C_19  and  C_21
REMARK                            x       y       z     vdW  Elec       q    Type
REMARK                         _______ _______ _______ _____ _____    ______ ____
ROOT
ATOM      1  O   UNL     1      18.511   9.618  20.959  0.00  0.00    -0.274 OA
ATOM      5  N   UNL     1      20.307   6.189  21.007  0.00  0.00    -0.296 NA
ATOM      6  N   UNL     1      16.943   7.494  20.395  0.00  0.00    -0.286 NA
ATOM      7  N   UNL     1      19.733   8.546  22.569  0.00  0.00    -0.312 N 
ATOM      9  C   UNL     1      18.833   6.076  20.955  0.00  0.00    +0.084 C 
ATOM     10  C   UNL     1      17.979   7.290  21.426  0.00  0.00    +0.161 C 
ATOM     11  C   UNL     1      18.275   5.821  19.542  0.00  0.00    +0.036 C 
ATOM     12  C   UNL     1      16.825   6.243  19.654  0.00  0.00    +0.087 C 
ATOM     13  C   UNL     1      20.864   6.350  22.379  0.00  0.00    +0.074 C 
ATOM     14  C   UNL     1      18.751   8.595  21.598  0.00  0.00    +0.232 C 
ATOM     15  C   UNL     1      20.095   7.336  23.281  0.00  0.00    +0.123 C 
ATOM     18  C   UNL     1      20.944   5.048  20.329  0.00  0.00    +0.105 C 
ATOM     32  H   UNL     1      20.231   9.404  22.787  0.00  0.00    +0.149 HD
ENDROOT
BRANCH  13  16
ATOM     16  C   UNL     1      22.330   6.829  22.313  0.00  0.00    +0.029 C 
BRANCH  16  19
ATOM     19  C   UNL     1      23.191   6.163  23.368  0.00  0.00    +0.097 C 
BRANCH  19  21
ATOM      2  O   UNL     1      22.257   4.125  24.140  0.00  0.00    -0.276 OA
ATOM      3  O   UNL     1      24.624   2.622  20.066  0.00  0.00    -0.377 OA
ATOM      8  N   UNL     1      23.771   3.974  22.386  0.00  0.00    -0.297 N 
ATOM     21  C   UNL     1      23.027   4.664  23.341  0.00  0.00    +0.216 C 
ATOM     24  C   UNL     1      23.667   2.518  22.289  0.00  0.00    +0.136 C 
ATOM     25  C   UNL     1      24.787   4.566  21.509  0.00  0.00    +0.136 C 
ATOM     28  C   UNL     1      23.539   2.093  20.833  0.00  0.00    +0.179 C 
ATOM     29  C   UNL     1      24.617   4.052  20.084  0.00  0.00    +0.179 C 
ENDBRANCH  19  21
ENDBRANCH  16  19
ENDBRANCH  13  16
BRANCH   6  17
ATOM     17  C   UNL     1      15.664   7.930  20.941  0.00  0.00    +0.120 C 
BRANCH  17  20
ATOM     20  C   UNL     1      14.553   7.805  19.933  0.00  0.00    -0.033 A 
ATOM     22  C   UNL     1      13.463   6.974  20.196  0.00  0.00    +0.008 A 
ATOM     23  C   UNL     1      14.612   8.520  18.737  0.00  0.00    +0.008 A 
ATOM     26  C   UNL     1      12.434   6.859  19.262  0.00  0.00    +0.046 A 
ATOM     27  C   UNL     1      13.583   8.404  17.803  0.00  0.00    +0.046 A 
ATOM     30  C   UNL     1      12.493   7.573  18.066  0.00  0.00    +0.120 A 
BRANCH  30   4
ATOM      4  O   UNL     1      11.489   7.461  17.155  0.00  0.00    -0.495 OA
ATOM     31  C   UNL     1      10.895   8.672  16.691  0.00  0.00    +0.277 C 
ENDBRANCH  30   4
ENDBRANCH  17  20
ENDBRANCH   6  17
TORSDOF 6
ENDMDL
MODEL 3
REMARK VINA RESULT:      -6.9     28.361     32.720
REMARK  Name = 45361078
REMARK  8 active torsions:
REMARK  status: ('A' for Active; 'I' for Inactive)
REMARK    1  A    between atoms: O_4  and  C_30
REMARK    2  A    between atoms: O_4  and  C_31
REMARK    3  A    between atoms: N_5  and  C_18
REMARK    4  A    between atoms: N_6  and  C_17
REMARK    5  A    between atoms: C_13  and  C_16
REMARK    6  A    between atoms: C_16  and  C_19
REMARK    7  A    between atoms: C_17  and  C_20
REMARK    8  A    between atoms: C_19  and  C_21
REMARK                            x       y       z     vdW  Elec       q    Type
REMARK                         _______ _______ _______ _____ _____    ______ ____
ROOT
ATOM      1  O   UNL     1     -13.688   4.835  22.798  0.00  0.00    -0.274 OA
ATOM      5  N   UNL     1     -17.372   3.655  22.921  0.00  0.00    -0.296 NA
ATOM      6  N   UNL     1     -15.370   6.151  21.146  0.00  0.00    -0.286 NA
ATOM      7  N   UNL     1     -15.188   4.659  24.517  0.00  0.00    -0.312 N 
ATOM      9  C   UNL     1     -17.190   4.925  22.184  0.00  0.00    +0.084 C 
ATOM     10  C   UNL     1     -15.911   5.767  22.464  0.00  0.00    +0.161 C 
ATOM     11  C   UNL     1     -17.134   4.757  20.654  0.00  0.00    +0.036 C 
ATOM     12  C   UNL     1     -16.459   6.028  20.185  0.00  0.00    +0.087 C 
ATOM     13  C   UNL     1     -17.513   3.813  24.395  0.00  0.00    +0.074 C 
ATOM     14  C   UNL     1     -14.816   5.041  23.241  0.00  0.00    +0.232 C 
ATOM     15  C   UNL     1     -16.531   4.813  25.038  0.00  0.00    +0.123 C 
ATOM     18  C   UNL     1     -18.510   2.893  22.379  0.00  0.00    +0.105 C 
ATOM     32  H   UNL     1     -14.481   4.241  25.114  0.00  0.00    +0.149 HD
ENDROOT
BRANCH  13  16
ATOM     16  C   UNL     1     -17.323   2.456  25.104  0.00  0.00    +0.029 C 
BRANCH  16  19
ATOM     19  C   UNL     1     -17.621   2.545  26.588  0.00  0.00    +0.097 C 
BRANCH  19  21
ATOM      2  O   UNL     1     -16.976   0.286  26.903  0.00  0.00    -0.276 OA
ATOM      3  O   UNL     1     -14.390   2.535  30.468  0.00  0.00    -0.377 OA
ATOM      8  N   UNL     1     -16.298   1.795  28.532  0.00  0.00    -0.297 N 
ATOM     21  C   UNL     1     -16.941   1.435  27.350  0.00  0.00    +0.216 C 
ATOM     24  C   UNL     1     -15.610   0.780  29.329  0.00  0.00    +0.136 C 
ATOM     25  C   UNL     1     -16.345   3.122  29.156  0.00  0.00    +0.136 C 
ATOM     28  C   UNL     1     -14.247   1.292  29.776  0.00  0.00    +0.179 C 
ATOM     29  C   UNL     1     -14.952   3.536  29.616  0.00  0.00    +0.179 C 
ENDBRANCH  19  21
ENDBRANCH  16  19
ENDBRANCH  13  16
BRANCH   6  17
ATOM     17  C   UNL     1     -14.774   7.481  21.132  0.00  0.00    +0.120 C 
BRANCH  17  20
ATOM     20  C   UNL     1     -13.655   7.583  20.130  0.00  0.00    -0.033 A 
ATOM     22  C   UNL     1     -13.912   8.062  18.845  0.00  0.00    +0.008 A 
ATOM     23  C   UNL     1     -12.363   7.199  20.486  0.00  0.00    +0.008 A 
ATOM     26  C   UNL     1     -12.875   8.156  17.917  0.00  0.00    +0.046 A 
ATOM     27  C   UNL     1     -11.326   7.294  19.558  0.00  0.00    +0.046 A 
ATOM     30  C   UNL     1     -11.583   7.773  18.272  0.00  0.00    +0.120 A 
BRANCH  30   4
ATOM      4  O   UNL     1     -10.571   7.866  17.367  0.00  0.00    -0.495 OA
ATOM     31  C   UNL     1     -10.189   9.175  16.952  0.00  0.00    +0.277 C 
ENDBRANCH  30   4
ENDBRANCH  17  20
ENDBRANCH   6  17
TORSDOF 6
ENDMDL
MODEL 4
REMARK VINA RESULT:      -6.8      2.748      5.224
REMARK  Name = 45361078
REMARK  8 active torsions:
REMARK  status: ('A' for Active; 'I' for Inactive)
REMARK    1  A    between atoms: O_4  and  C_30
REMARK    2  A    between atoms: O_4  and  C_31
REMARK    3  A    between atoms: N_5  and  C_18
REMARK    4  A    between atoms: N_6  and  C_17
REMARK    5  A    between atoms: C_13  and  C_16
REMARK    6  A    between atoms: C_16  and  C_19
REMARK    7  A    between atoms: C_17  and  C_20
REMARK    8  A    between atoms: C_19  and  C_21
REMARK                            x       y       z     vdW  Elec       q    Type
REMARK                         _______ _______ _______ _____ _____    ______ ____
ROOT
ATOM      1  O   UNL     1      15.402   9.327  22.507  0.00  0.00    -0.274 OA
ATOM      5  N   UNL     1      11.560   8.917  22.264  0.00  0.00    -0.296 NA
ATOM      6  N   UNL     1      14.544   7.697  20.532  0.00  0.00    -0.286 NA
ATOM      7  N   UNL     1      13.707  10.845  22.268  0.00  0.00    -0.312 N 
ATOM      9  C   UNL     1      12.281   8.374  21.091  0.00  0.00    +0.084 C 
ATOM     10  C   UNL     1      13.721   8.891  20.802  0.00  0.00    +0.161 C 
ATOM     11  C   UNL     1      12.491   6.849  21.138  0.00  0.00    +0.036 C 
ATOM     12  C   UNL     1      13.630   6.622  20.166  0.00  0.00    +0.087 C 
ATOM     13  C   UNL     1      11.275  10.376  22.191  0.00  0.00    +0.074 C 
ATOM     14  C   UNL     1      14.367   9.675  21.941  0.00  0.00    +0.232 C 
ATOM     15  C   UNL     1      12.443  11.241  21.678  0.00  0.00    +0.123 C 
ATOM     18  C   UNL     1      10.317   8.166  22.508  0.00  0.00    +0.105 C 
ATOM     32  H   UNL     1      14.128  11.451  22.965  0.00  0.00    +0.149 HD
ENDROOT
BRANCH  13  16
ATOM     16  C   UNL     1      10.872  10.918  23.579  0.00  0.00    +0.029 C 
BRANCH  16  19
ATOM     19  C   UNL     1      10.821  12.433  23.603  0.00  0.00    +0.097 C 
BRANCH  19  21
ATOM      2  O   UNL     1      10.278  12.809  25.880  0.00  0.00    -0.276 OA
ATOM      3  O   UNL     1      15.012  14.235  25.768  0.00  0.00    -0.377 OA
ATOM      8  N   UNL     1      12.333  13.613  25.157  0.00  0.00    -0.297 N 
ATOM     21  C   UNL     1      11.110  12.967  24.984  0.00  0.00    +0.216 C 
ATOM     24  C   UNL     1      12.694  14.156  26.466  0.00  0.00    +0.136 C 
ATOM     25  C   UNL     1      13.287  13.929  24.089  0.00  0.00    +0.136 C 
ATOM     28  C   UNL     1      14.134  13.799  26.809  0.00  0.00    +0.179 C 
ATOM     29  C   UNL     1      14.705  13.587  24.531  0.00  0.00    +0.179 C 
ENDBRANCH  19  21
ENDBRANCH  16  19
ENDBRANCH  13  16
BRANCH   6  17
ATOM     17  C   UNL     1      15.566   7.919  19.516  0.00  0.00    +0.120 C 
BRANCH  17  20
ATOM     20  C   UNL     1      16.843   7.189  19.838  0.00  0.00    -0.033 A 
ATOM     22  C   UNL     1      17.694   7.677  20.829  0.00  0.00    +0.008 A 
ATOM     23  C   UNL     1      17.174   6.025  19.144  0.00  0.00    +0.008 A 
ATOM     26  C   UNL     1      18.877   7.000  21.127  0.00  0.00    +0.046 A 
ATOM     27  C   UNL     1      18.357   5.349  19.442  0.00  0.00    +0.046 A 
ATOM     30  C   UNL     1      19.209   5.837  20.433  0.00  0.00    +0.120 A 
BRANCH  30   4
ATOM      4  O   UNL     1      20.363   5.176  20.724  0.00  0.00    -0.495 OA
ATOM     31  C   UNL     1      21.066   5.582  21.897  0.00  0.00    +0.277 C 
ENDBRANCH  30   4
ENDBRANCH  17  20
ENDBRANCH   6  17
TORSDOF 6
ENDMDL
MODEL 5
REMARK VINA RESULT:      -6.6      2.760      5.728
REMARK  Name = 45361078
REMARK  8 active torsions:
REMARK  status: ('A' for Active; 'I' for Inactive)
REMARK    1  A    between atoms: O_4  and  C_30
REMARK    2  A    between atoms: O_4  and  C_31
REMARK    3  A    between atoms: N_5  and  C_18
REMARK    4  A    between atoms: N_6  and  C_17
REMARK    5  A    between atoms: C_13  and  C_16
REMARK    6  A    between atoms: C_16  and  C_19
REMARK    7  A    between atoms: C_17  and  C_20
REMARK    8  A    between atoms: C_19  and  C_21
REMARK                            x       y       z     vdW  Elec       q    Type
REMARK                         _______ _______ _______ _____ _____    ______ ____
ROOT
ATOM      1  O   UNL     1      10.542   8.395  19.585  0.00  0.00    -0.274 OA
ATOM      5  N   UNL     1      12.470  11.642  20.435  0.00  0.00    -0.296 NA
ATOM      6  N   UNL     1      13.117   8.446  18.773  0.00  0.00    -0.286 NA
ATOM      7  N   UNL     1      10.932   9.477  21.563  0.00  0.00    -0.312 N 
ATOM      9  C   UNL     1      13.349  10.546  19.970  0.00  0.00    +0.084 C 
ATOM     10  C   UNL     1      12.825   9.083  20.071  0.00  0.00    +0.161 C 
ATOM     11  C   UNL     1      13.737  10.644  18.483  0.00  0.00    +0.036 C 
ATOM     12  C   UNL     1      14.166   9.234  18.137  0.00  0.00    +0.087 C 
ATOM     13  C   UNL     1      12.158  11.605  21.890  0.00  0.00    +0.074 C 
ATOM     14  C   UNL     1      11.330   8.949  20.349  0.00  0.00    +0.232 C 
ATOM     15  C   UNL     1      11.818  10.208  22.447  0.00  0.00    +0.123 C 
ATOM     18  C   UNL     1      13.030  12.953  20.067  0.00  0.00    +0.105 C 
ATOM     32  H   UNL     1       9.963   9.351  21.842  0.00  0.00    +0.149 HD
ENDROOT
BRANCH  13  16
ATOM     16  C   UNL     1      10.966  12.533  22.210  0.00  0.00    +0.029 C 
BRANCH  16  19
ATOM     19  C   UNL     1      11.354  13.645  23.165  0.00  0.00    +0.097 C 
BRANCH  19  21
ATOM      2  O   UNL     1      10.877  12.627  25.252  0.00  0.00    -0.276 OA
ATOM      3  O   UNL     1      15.822  12.542  25.244  0.00  0.00    -0.377 OA
ATOM      8  N   UNL     1      13.101  13.150  24.837  0.00  0.00    -0.297 N 
ATOM     21  C   UNL     1      11.747  13.095  24.513  0.00  0.00    +0.216 C 
ATOM     24  C   UNL     1      13.567  12.633  26.124  0.00  0.00    +0.136 C 
ATOM     25  C   UNL     1      14.140  13.812  24.040  0.00  0.00    +0.136 C 
ATOM     28  C   UNL     1      14.820  11.789  25.933  0.00  0.00    +0.179 C 
ATOM     29  C   UNL     1      15.373  12.922  23.940  0.00  0.00    +0.179 C 
ENDBRANCH  19  21
ENDBRANCH  16  19
ENDBRANCH  13  16
BRANCH   6  17
ATOM     17  C   UNL     1      13.481   7.040  18.889  0.00  0.00    +0.120 C 
BRANCH  17  20
ATOM     20  C   UNL     1      14.806   6.859  19.580  0.00  0.00    -0.033 A 
ATOM     22  C   UNL     1      15.940   6.527  18.838  0.00  0.00    +0.008 A 
ATOM     23  C   UNL     1      14.899   7.022  20.962  0.00  0.00    +0.008 A 
ATOM     26  C   UNL     1      17.167   6.360  19.479  0.00  0.00    +0.046 A 
ATOM     27  C   UNL     1      16.127   6.855  21.603  0.00  0.00    +0.046 A 
ATOM     30  C   UNL     1      17.261   6.523  20.861  0.00  0.00    +0.120 A 
BRANCH  30   4
ATOM      4  O   UNL     1      18.459   6.360  21.486  0.00  0.00    -0.495 OA
ATOM     31  C   UNL     1      19.621   6.315  20.661  0.00  0.00    +0.277 C 
ENDBRANCH  30   4
ENDBRANCH  17  20
ENDBRANCH   6  17
TORSDOF 6
ENDMDL
MODEL 6
REMARK VINA RESULT:      -6.6      2.343      4.193
REMARK  Name = 45361078
REMARK  8 active torsions:
REMARK  status: ('A' for Active; 'I' for Inactive)
REMARK    1  A    between atoms: O_4  and  C_30
REMARK    2  A    between atoms: O_4  and  C_31
REMARK    3  A    between atoms: N_5  and  C_18
REMARK    4  A    between atoms: N_6  and  C_17
REMARK    5  A    between atoms: C_13  and  C_16
REMARK    6  A    between atoms: C_16  and  C_19
REMARK    7  A    between atoms: C_17  and  C_20
REMARK    8  A    between atoms: C_19  and  C_21
REMARK                            x       y       z     vdW  Elec       q    Type
REMARK                         _______ _______ _______ _____ _____    ______ ____
ROOT
ATOM      1  O   UNL     1      20.111   6.380  23.714  0.00  0.00    -0.274 OA
ATOM      5  N   UNL     1      17.725   6.820  20.698  0.00  0.00    -0.296 NA
ATOM      6  N   UNL     1      20.994   5.327  21.389  0.00  0.00    -0.286 NA
ATOM      7  N   UNL     1      19.174   8.233  22.754  0.00  0.00    -0.312 N 
ATOM      9  C   UNL     1      19.074   6.351  20.312  0.00  0.00    +0.084 C 
ATOM     10  C   UNL     1      20.255   6.601  21.295  0.00  0.00    +0.161 C 
ATOM     11  C   UNL     1      19.165   4.830  20.083  0.00  0.00    +0.036 C 
ATOM     12  C   UNL     1      20.646   4.543  20.211  0.00  0.00    +0.087 C 
ATOM     13  C   UNL     1      17.604   8.298  20.839  0.00  0.00    +0.074 C 
ATOM     14  C   UNL     1      19.846   7.026  22.702  0.00  0.00    +0.232 C 
ATOM     15  C   UNL     1      18.775   8.978  21.577  0.00  0.00    +0.123 C 
ATOM     18  C   UNL     1      16.706   6.312  19.764  0.00  0.00    +0.105 C 
ATOM     32  H   UNL     1      18.942   8.611  23.668  0.00  0.00    +0.149 HD
ENDROOT
BRANCH  13  16
ATOM     16  C   UNL     1      16.307   8.664  21.591  0.00  0.00    +0.029 C 
BRANCH  16  19
ATOM     19  C   UNL     1      15.378   9.508  20.741  0.00  0.00    +0.097 C 
BRANCH  19  21
ATOM      2  O   UNL     1      13.324   8.683  21.589  0.00  0.00    -0.276 OA
ATOM      3  O   UNL     1      12.544   8.387  16.715  0.00  0.00    -0.377 OA
ATOM      8  N   UNL     1      13.658   8.478  19.301  0.00  0.00    -0.297 N 
ATOM     21  C   UNL     1      14.028   8.852  20.591  0.00  0.00    +0.216 C 
ATOM     24  C   UNL     1      12.363   7.840  19.067  0.00  0.00    +0.136 C 
ATOM     25  C   UNL     1      14.520   8.547  18.115  0.00  0.00    +0.136 C 
ATOM     28  C   UNL     1      11.681   8.455  17.853  0.00  0.00    +0.179 C 
ATOM     29  C   UNL     1      13.747   9.128  16.937  0.00  0.00    +0.179 C 
ENDBRANCH  19  21
ENDBRANCH  16  19
ENDBRANCH  13  16
BRANCH   6  17
ATOM     17  C   UNL     1      22.434   5.504  21.525  0.00  0.00    +0.120 C 
BRANCH  17  20
ATOM     20  C   UNL     1      23.152   4.186  21.639  0.00  0.00    -0.033 A 
ATOM     22  C   UNL     1      22.902   3.347  22.726  0.00  0.00    +0.008 A 
ATOM     23  C   UNL     1      24.068   3.803  20.660  0.00  0.00    +0.008 A 
ATOM     26  C   UNL     1      23.567   2.126  22.832  0.00  0.00    +0.046 A 
ATOM     27  C   UNL     1      24.733   2.582  20.766  0.00  0.00    +0.046 A 
ATOM     30  C   UNL     1      24.483   1.743  21.852  0.00  0.00    +0.120 A 
BRANCH  30   4
ATOM      4  O   UNL     1      25.131   0.551  21.955  0.00  0.00    -0.495 OA
ATOM     31  C   UNL     1      26.496   0.588  22.365  0.00  0.00    +0.277 C 
ENDBRANCH  30   4
ENDBRANCH  17  20
ENDBRANCH   6  17
TORSDOF 6
ENDMDL
MODEL 7
REMARK VINA RESULT:      -6.6     27.587     30.130
REMARK  Name = 45361078
REMARK  8 active torsions:
REMARK  status: ('A' for Active; 'I' for Inactive)
REMARK    1  A    between atoms: O_4  and  C_30
REMARK    2  A    between atoms: O_4  and  C_31
REMARK    3  A    between atoms: N_5  and  C_18
REMARK    4  A    between atoms: N_6  and  C_17
REMARK    5  A    between atoms: C_13  and  C_16
REMARK    6  A    between atoms: C_16  and  C_19
REMARK    7  A    between atoms: C_17  and  C_20
REMARK    8  A    between atoms: C_19  and  C_21
REMARK                            x       y       z     vdW  Elec       q    Type
REMARK                         _______ _______ _______ _____ _____    ______ ____
ROOT
ATOM      1  O   UNL     1      -1.172 -10.912  15.549  0.00  0.00    -0.274 OA
ATOM      5  N   UNL     1      -4.452 -12.765  16.441  0.00  0.00    -0.296 NA
ATOM      6  N   UNL     1      -2.227 -12.401  13.558  0.00  0.00    -0.286 NA
ATOM      7  N   UNL     1      -3.189 -10.173  16.338  0.00  0.00    -0.312 N 
ATOM      9  C   UNL     1      -4.149 -12.778  14.992  0.00  0.00    +0.084 C 
ATOM     10  C   UNL     1      -3.186 -11.693  14.427  0.00  0.00    +0.161 C 
ATOM     11  C   UNL     1      -3.486 -14.080  14.504  0.00  0.00    +0.036 C 
ATOM     12  C   UNL     1      -2.837 -13.676  13.198  0.00  0.00    +0.087 C 
ATOM     13  C   UNL     1      -5.170 -11.547  16.909  0.00  0.00    +0.074 C 
ATOM     14  C   UNL     1      -2.400 -10.915  15.479  0.00  0.00    +0.232 C 
ATOM     15  C   UNL     1      -4.637 -10.219  16.335  0.00  0.00    +0.123 C 
ATOM     18  C   UNL     1      -5.194 -13.976  16.831  0.00  0.00    +0.105 C 
ATOM     32  H   UNL     1      -2.724  -9.572  17.012  0.00  0.00    +0.149 HD
ENDROOT
BRANCH  13  16
ATOM     16  C   UNL     1      -5.111 -11.444  18.448  0.00  0.00    +0.029 C 
BRANCH  16  19
ATOM     19  C   UNL     1      -6.055 -10.385  18.982  0.00  0.00    +0.097 C 
BRANCH  19  21
ATOM      2  O   UNL     1      -7.593 -11.811  20.088  0.00  0.00    -0.276 OA
ATOM      3  O   UNL     1     -10.647  -8.986  17.415  0.00  0.00    -0.377 OA
ATOM      8  N   UNL     1      -8.458 -10.448  18.420  0.00  0.00    -0.297 N 
ATOM     21  C   UNL     1      -7.433 -10.952  19.218  0.00  0.00    +0.216 C 
ATOM     24  C   UNL     1      -9.825 -10.940  18.588  0.00  0.00    +0.136 C 
ATOM     25  C   UNL     1      -8.283  -9.523  17.295  0.00  0.00    +0.136 C 
ATOM     28  C   UNL     1     -10.809  -9.778  18.595  0.00  0.00    +0.179 C 
ATOM     29  C   UNL     1      -9.335  -8.421  17.351  0.00  0.00    +0.179 C 
ENDBRANCH  19  21
ENDBRANCH  16  19
ENDBRANCH  13  16
BRANCH   6  17
ATOM     17  C   UNL     1      -1.832 -11.631  12.386  0.00  0.00    +0.120 C 
BRANCH  17  20
ATOM     20  C   UNL     1      -3.022 -11.211  11.565  0.00  0.00    -0.033 A 
ATOM     22  C   UNL     1      -3.609 -12.113  10.677  0.00  0.00    +0.008 A 
ATOM     23  C   UNL     1      -3.537  -9.922  11.691  0.00  0.00    +0.008 A 
ATOM     26  C   UNL     1      -4.712 -11.724   9.916  0.00  0.00    +0.046 A 
ATOM     27  C   UNL     1      -4.640  -9.533  10.930  0.00  0.00    +0.046 A 
ATOM     30  C   UNL     1      -5.227 -10.435  10.042  0.00  0.00    +0.120 A 
BRANCH  30   4
ATOM      4  O   UNL     1      -6.303 -10.056   9.301  0.00  0.00    -0.495 OA
ATOM     31  C   UNL     1      -7.228  -9.158   9.911  0.00  0.00    +0.277 C 
ENDBRANCH  30   4
ENDBRANCH  17  20
ENDBRANCH   6  17
TORSDOF 6
ENDMDL
MODEL 8
REMARK VINA RESULT:      -6.4     27.558     30.585
REMARK  Name = 45361078
REMARK  8 active torsions:
REMARK  status: ('A' for Active; 'I' for Inactive)
REMARK    1  A    between atoms: O_4  and  C_30
REMARK    2  A    between atoms: O_4  and  C_31
REMARK    3  A    between atoms: N_5  and  C_18
REMARK    4  A    between atoms: N_6  and  C_17
REMARK    5  A    between atoms: C_13  and  C_16
REMARK    6  A    between atoms: C_16  and  C_19
REMARK    7  A    between atoms: C_17  and  C_20
REMARK    8  A    between atoms: C_19  and  C_21
REMARK                            x       y       z     vdW  Elec       q    Type
REMARK                         _______ _______ _______ _____ _____    ______ ____
ROOT
ATOM      1  O   UNL     1      -5.938  -9.553  13.375  0.00  0.00    -0.274 OA
ATOM      5  N   UNL     1      -3.208 -10.870  15.782  0.00  0.00    -0.296 NA
ATOM      6  N   UNL     1      -3.761 -10.607  12.174  0.00  0.00    -0.286 NA
ATOM      7  N   UNL     1      -5.996 -11.086  15.072  0.00  0.00    -0.312 N 
ATOM      9  C   UNL     1      -2.996 -11.283  14.377  0.00  0.00    +0.084 C 
ATOM     10  C   UNL     1      -4.216 -11.272  13.410  0.00  0.00    +0.161 C 
ATOM     11  C   UNL     1      -1.978 -10.412  13.617  0.00  0.00    +0.036 C 
ATOM     12  C   UNL     1      -2.305 -10.678  12.163  0.00  0.00    +0.087 C 
ATOM     13  C   UNL     1      -4.125 -11.754  16.552  0.00  0.00    +0.074 C 
ATOM     14  C   UNL     1      -5.447 -10.534  13.930  0.00  0.00    +0.232 C 
ATOM     15  C   UNL     1      -5.396 -12.189  15.795  0.00  0.00    +0.123 C 
ATOM     18  C   UNL     1      -1.922 -10.732  16.487  0.00  0.00    +0.105 C 
ATOM     32  H   UNL     1      -6.862 -10.689  15.425  0.00  0.00    +0.149 HD
ENDROOT
BRANCH  13  16
ATOM     16  C   UNL     1      -4.577 -11.060  17.855  0.00  0.00    +0.029 C 
BRANCH  16  19
ATOM     19  C   UNL     1      -5.313 -12.011  18.778  0.00  0.00    +0.097 C 
BRANCH  19  21
ATOM      2  O   UNL     1      -6.323 -10.435  20.232  0.00  0.00    -0.276 OA
ATOM      3  O   UNL     1     -10.257 -12.126  17.759  0.00  0.00    -0.377 OA
ATOM      8  N   UNL     1      -7.760 -11.798  19.022  0.00  0.00    -0.297 N 
ATOM     21  C   UNL     1      -6.504 -11.340  19.415  0.00  0.00    +0.216 C 
ATOM     24  C   UNL     1      -8.968 -11.199  19.588  0.00  0.00    +0.136 C 
ATOM     25  C   UNL     1      -8.010 -12.953  18.153  0.00  0.00    +0.136 C 
ATOM     28  C   UNL     1      -9.988 -10.927  18.491  0.00  0.00    +0.179 C 
ATOM     29  C   UNL     1      -9.075 -12.612  17.117  0.00  0.00    +0.179 C 
ENDBRANCH  19  21
ENDBRANCH  16  19
ENDBRANCH  13  16
BRANCH   6  17
ATOM     17  C   UNL     1      -4.348 -11.172  10.965  0.00  0.00    +0.120 C 
BRANCH  17  20
ATOM     20  C   UNL     1      -5.238 -10.184  10.260  0.00  0.00    -0.033 A 
ATOM     22  C   UNL     1      -6.486 -10.586   9.784  0.00  0.00    +0.008 A 
ATOM     23  C   UNL     1      -4.816  -8.867  10.083  0.00  0.00    +0.008 A 
ATOM     26  C   UNL     1      -7.311  -9.670   9.130  0.00  0.00    +0.046 A 
ATOM     27  C   UNL     1      -5.641  -7.951   9.430  0.00  0.00    +0.046 A 
ATOM     30  C   UNL     1      -6.889  -8.354   8.953  0.00  0.00    +0.120 A 
BRANCH  30   4
ATOM      4  O   UNL     1      -7.694  -7.460   8.317  0.00  0.00    -0.495 OA
ATOM     31  C   UNL     1      -9.018  -7.302   8.824  0.00  0.00    +0.277 C 
ENDBRANCH  30   4
ENDBRANCH  17  20
ENDBRANCH   6  17
TORSDOF 6
ENDMDL
MODEL 9
REMARK VINA RESULT:      -6.3     28.939     30.850
REMARK  Name = 45361078
REMARK  8 active torsions:
REMARK  status: ('A' for Active; 'I' for Inactive)
REMARK    1  A    between atoms: O_4  and  C_30
REMARK    2  A    between atoms: O_4  and  C_31
REMARK    3  A    between atoms: N_5  and  C_18
REMARK    4  A    between atoms: N_6  and  C_17
REMARK    5  A    between atoms: C_13  and  C_16
REMARK    6  A    between atoms: C_16  and  C_19
REMARK    7  A    between atoms: C_17  and  C_20
REMARK    8  A    between atoms: C_19  and  C_21
REMARK                            x       y       z     vdW  Elec       q    Type
REMARK                         _______ _______ _______ _____ _____    ______ ____
ROOT
ATOM      1  O   UNL     1      -6.408 -10.118  13.674  0.00  0.00    -0.274 OA
ATOM      5  N   UNL     1      -4.034 -12.209  11.442  0.00  0.00    -0.296 NA
ATOM      6  N   UNL     1      -4.424 -11.394  14.989  0.00  0.00    -0.286 NA
ATOM      7  N   UNL     1      -5.128  -9.571  11.858  0.00  0.00    -0.312 N 
ATOM      9  C   UNL     1      -3.531 -12.029  12.822  0.00  0.00    +0.084 C 
ATOM     10  C   UNL     1      -4.084 -10.842  13.664  0.00  0.00    +0.161 C 
ATOM     11  C   UNL     1      -3.802 -13.230  13.747  0.00  0.00    +0.036 C 
ATOM     12  C   UNL     1      -3.680 -12.640  15.136  0.00  0.00    +0.087 C 
ATOM     13  C   UNL     1      -3.703 -11.090  10.516  0.00  0.00    +0.074 C 
ATOM     14  C   UNL     1      -5.327 -10.166  13.090  0.00  0.00    +0.232 C 
ATOM     15  C   UNL     1      -3.893  -9.679  11.107  0.00  0.00    +0.123 C 
ATOM     18  C   UNL     1      -3.574 -13.489  10.880  0.00  0.00    +0.105 C 
ATOM     32  H   UNL     1      -5.894  -9.038  11.457  0.00  0.00    +0.149 HD
ENDROOT
BRANCH  13  16
ATOM     16  C   UNL     1      -4.564 -11.176   9.238  0.00  0.00    +0.029 C 
BRANCH  16  19
ATOM     19  C   UNL     1      -4.523  -9.888   8.439  0.00  0.00    +0.097 C 
BRANCH  19  21
ATOM      2  O   UNL     1      -5.483 -10.463   6.349  0.00  0.00    -0.276 OA
ATOM      3  O   UNL     1      -9.310  -8.290   8.604  0.00  0.00    -0.377 OA
ATOM      8  N   UNL     1      -6.757  -9.106   7.737  0.00  0.00    -0.297 N 
ATOM     21  C   UNL     1      -5.624  -9.849   7.409  0.00  0.00    +0.216 C 
ATOM     24  C   UNL     1      -7.873  -9.020   6.796  0.00  0.00    +0.136 C 
ATOM     25  C   UNL     1      -6.905  -8.263   8.928  0.00  0.00    +0.136 C 
ATOM     28  C   UNL     1      -9.196  -9.220   7.524  0.00  0.00    +0.179 C 
ATOM     29  C   UNL     1      -8.271  -8.489   9.566  0.00  0.00    +0.179 C 
ENDBRANCH  19  21
ENDBRANCH  16  19
ENDBRANCH  13  16
BRANCH   6  17
ATOM     17  C   UNL     1      -4.167 -10.468  16.084  0.00  0.00    +0.120 C 
BRANCH  17  20
ATOM     20  C   UNL     1      -5.216 -10.566  17.159  0.00  0.00    -0.033 A 
ATOM     22  C   UNL     1      -6.471  -9.989  16.962  0.00  0.00    +0.008 A 
ATOM     23  C   UNL     1      -4.934 -11.232  18.350  0.00  0.00    +0.008 A 
ATOM     26  C   UNL     1      -7.443 -10.079  17.959  0.00  0.00    +0.046 A 
ATOM     27  C   UNL     1      -5.906 -11.323  19.347  0.00  0.00    +0.046 A 
ATOM     30  C   UNL     1      -7.161 -10.746  19.150  0.00  0.00    +0.120 A 
BRANCH  30   4
ATOM      4  O   UNL     1      -8.109 -10.835  20.122  0.00  0.00    -0.495 OA
ATOM     31  C   UNL     1      -9.456 -11.038  19.699  0.00  0.00    +0.277 C 
ENDBRANCH  30   4
ENDBRANCH  17  20
ENDBRANCH   6  17
TORSDOF 6
ENDMDL
MODEL 10
REMARK VINA RESULT:      -6.3     28.745     30.758
REMARK  Name = 45361078
REMARK  8 active torsions:
REMARK  status: ('A' for Active; 'I' for Inactive)
REMARK    1  A    between atoms: O_4  and  C_30
REMARK    2  A    between atoms: O_4  and  C_31
REMARK    3  A    between atoms: N_5  and  C_18
REMARK    4  A    between atoms: N_6  and  C_17
REMARK    5  A    between atoms: C_13  and  C_16
REMARK    6  A    between atoms: C_16  and  C_19
REMARK    7  A    between atoms: C_17  and  C_20
REMARK    8  A    between atoms: C_19  and  C_21
REMARK                            x       y       z     vdW  Elec       q    Type
REMARK                         _______ _______ _______ _____ _____    ______ ____
ROOT
ATOM      1  O   UNL     1      -6.123 -10.101  13.623  0.00  0.00    -0.274 OA
ATOM      5  N   UNL     1      -4.155 -11.973  10.865  0.00  0.00    -0.296 NA
ATOM      6  N   UNL     1      -3.997 -11.521  14.494  0.00  0.00    -0.286 NA
ATOM      7  N   UNL     1      -5.113  -9.383  11.700  0.00  0.00    -0.312 N 
ATOM      9  C   UNL     1      -3.450 -11.939  12.166  0.00  0.00    +0.084 C 
ATOM     10  C   UNL     1      -3.844 -10.839  13.194  0.00  0.00    +0.161 C 
ATOM     11  C   UNL     1      -3.609 -13.227  12.997  0.00  0.00    +0.036 C 
ATOM     12  C   UNL     1      -3.270 -12.782  14.403  0.00  0.00    +0.087 C 
ATOM     13  C   UNL     1      -3.938 -10.770  10.016  0.00  0.00    +0.074 C 
ATOM     14  C   UNL     1      -5.141 -10.098  12.882  0.00  0.00    +0.232 C 
ATOM     15  C   UNL     1      -4.005  -9.425  10.766  0.00  0.00    +0.123 C 
ATOM     18  C   UNL     1      -3.813 -13.194  10.116  0.00  0.00    +0.105 C 
ATOM     32  H   UNL     1      -5.917  -8.805  11.473  0.00  0.00    +0.149 HD
ENDROOT
BRANCH  13  16
ATOM     16  C   UNL     1      -4.981 -10.717   8.879  0.00  0.00    +0.029 C 
BRANCH  16  19
ATOM     19  C   UNL     1      -5.145  -9.316   8.325  0.00  0.00    +0.097 C 
BRANCH  19  21
ATOM      2  O   UNL     1      -7.055  -8.544   9.497  0.00  0.00    -0.276 OA
ATOM      3  O   UNL     1      -8.526  -8.019   4.805  0.00  0.00    -0.377 OA
ATOM      8  N   UNL     1      -7.289  -8.826   7.205  0.00  0.00    -0.297 N 
ATOM     21  C   UNL     1      -6.581  -8.862   8.404  0.00  0.00    +0.216 C 
ATOM     24  C   UNL     1      -8.687  -8.393   7.193  0.00  0.00    +0.136 C 
ATOM     25  C   UNL     1      -6.798  -9.315   5.912  0.00  0.00    +0.136 C 
ATOM     28  C   UNL     1      -8.931  -7.427   6.042  0.00  0.00    +0.179 C 
ATOM     29  C   UNL     1      -7.126  -8.313   4.811  0.00  0.00    +0.179 C 
ENDBRANCH  19  21
ENDBRANCH  16  19
ENDBRANCH  13  16
BRANCH   6  17
ATOM     17  C   UNL     1      -3.559 -10.714  15.624  0.00  0.00    +0.120 C 
BRANCH  17  20
ATOM     20  C   UNL     1      -4.457 -10.888  16.820  0.00  0.00    -0.033 A 
ATOM     22  C   UNL     1      -5.664 -10.192  16.892  0.00  0.00    +0.008 A 
ATOM     23  C   UNL     1      -4.083 -11.745  17.854  0.00  0.00    +0.008 A 
ATOM     26  C   UNL     1      -6.496 -10.355  18.000  0.00  0.00    +0.046 A 
ATOM     27  C   UNL     1      -4.915 -11.907  18.962  0.00  0.00    +0.046 A 
ATOM     30  C   UNL     1      -6.122 -11.211  19.035  0.00  0.00    +0.120 A 
BRANCH  30   4
ATOM      4  O   UNL     1      -6.934 -11.370  20.115  0.00  0.00    -0.495 OA
ATOM     31  C   UNL     1      -7.840 -12.472  20.090  0.00  0.00    +0.277 C 
ENDBRANCH  30   4
ENDBRANCH  17  20
ENDBRANCH   6  17
TORSDOF 6
ENDMDL
