REMARK  Name = 51137519
REMARK  9 active torsions:
REMARK  status: ('A' for Active; 'I' for Inactive)
REMARK    1  A    between atoms: O_2  and  C_20
REMARK    2  A    between atoms: O_2  and  C_28
REMARK    3  A    between atoms: N_3  and  C_11
REMARK    4  A    between atoms: N_6  and  C_23
REMARK    5  A    between atoms: N_6  and  C_26
REMARK    6  A    between atoms: N_6  and  C_27
REMARK    7  A    between atoms: C_7  and  C_12
REMARK    8  A    between atoms: C_11  and  C_13
REMARK    9  A    between atoms: C_14  and  C_17
REMARK                            x       y       z     vdW  Elec       q    Type
REMARK                         _______ _______ _______ _____ _____    ______ ____
ROOT
ATOM      3  N   UNL     1      -2.390  -0.922  -0.283  0.00  0.00    -0.297 NA
ATOM      7  C   UNL     1      -0.555  -2.266   0.288  0.00  0.00    +0.092 C 
ATOM      8  C   UNL     1      -1.083  -1.554   1.546  0.00  0.00    +0.029 C 
ATOM      9  C   UNL     1      -1.188  -1.504  -0.884  0.00  0.00    +0.097 C 
ATOM     10  C   UNL     1      -1.955  -0.421   1.020  0.00  0.00    +0.085 C 
ENDROOT
BRANCH   7  12
ATOM      1  O   UNL     1       1.633  -1.173   0.173  0.00  0.00    -0.420 OA
ATOM      4  N   UNL     1       1.726  -3.407   0.120  0.00  0.00    -0.112 NA
ATOM      5  N   UNL     1       3.019  -2.924   0.049  0.00  0.00    -0.107 NA
ATOM     12  C   UNL     1       0.951  -2.350   0.191  0.00  0.00    +0.222 A 
ATOM     14  C   UNL     1       2.916  -1.616   0.082  0.00  0.00    +0.248 A 
BRANCH  14  17
ATOM     17  C   UNL     1       3.929  -0.602   0.040  0.00  0.00    +0.039 A 
ATOM     21  C   UNL     1       5.274  -0.962  -0.052  0.00  0.00    +0.015 A 
ATOM     22  C   UNL     1       3.570   0.745   0.090  0.00  0.00    +0.015 A 
ATOM     23  C   UNL     1       5.899   1.372  -0.043  0.00  0.00    +0.029 A 
ATOM     24  C   UNL     1       6.259   0.025  -0.094  0.00  0.00    +0.024 A 
ATOM     25  C   UNL     1       4.554   1.732   0.048  0.00  0.00    +0.024 A 
BRANCH  23   6
ATOM      6  N   UNL     1       6.895   2.369  -0.084  0.00  0.00    -0.336 N 
ATOM     26  C   UNL     1       6.532   3.772  -0.040  0.00  0.00    +0.129 C 
ATOM     27  C   UNL     1       8.295   2.006  -0.179  0.00  0.00    +0.129 C 
ENDBRANCH  23   6
ENDBRANCH  14  17
ENDBRANCH   7  12
BRANCH   3  11
ATOM     11  C   UNL     1      -2.975   0.122  -1.111  0.00  0.00    +0.119 C 
BRANCH  11  13
ATOM     13  C   UNL     1      -4.404   0.405  -0.731  0.00  0.00    -0.033 A 
ATOM     15  C   UNL     1      -5.416  -0.474  -1.117  0.00  0.00    +0.008 A 
ATOM     16  C   UNL     1      -4.716   1.546   0.007  0.00  0.00    +0.008 A 
ATOM     18  C   UNL     1      -6.740  -0.212  -0.764  0.00  0.00    +0.046 A 
ATOM     19  C   UNL     1      -6.040   1.809   0.360  0.00  0.00    +0.046 A 
ATOM     20  C   UNL     1      -7.052   0.929  -0.025  0.00  0.00    +0.120 A 
BRANCH  20   2
ATOM      2  O   UNL     1      -8.343   1.185   0.320  0.00  0.00    -0.495 OA
ATOM     28  C   UNL     1      -8.591   2.370   1.075  0.00  0.00    +0.277 C 
ENDBRANCH  20   2
ENDBRANCH  11  13
ENDBRANCH   3  11
TORSDOF 6
