MODEL 1
REMARK VINA RESULT:      -6.9      0.000      0.000
REMARK  Name = 40781523
REMARK  9 active torsions:
REMARK  status: ('A' for Active; 'I' for Inactive)
REMARK    1  A    between atoms: O_2  and  C_10
REMARK    2  A    between atoms: O_3  and  C_11
REMARK    3  A    between atoms: N_7  and  C_14
REMARK    4  A    between atoms: N_8  and  C_21
REMARK    5  A    between atoms: C_9  and  C_13
REMARK    6  A    between atoms: C_12  and  C_14
REMARK    7  A    between atoms: C_13  and  C_15
REMARK    8  A    between atoms: C_21  and  C_22
REMARK    9  A    between atoms: C_21  and  C_23
REMARK                            x       y       z     vdW  Elec       q    Type
REMARK                         _______ _______ _______ _____ _____    ______ ____
ROOT
ATOM      1  O   UNL     1      10.603   8.428  20.511  0.00  0.00    -0.366 OA
ATOM      9  C   UNL     1      11.694   7.966  19.695  0.00  0.00    +0.159 C 
ATOM     10  C   UNL     1      12.615   7.206  20.633  0.00  0.00    +0.175 C 
ATOM     11  C   UNL     1      11.623   6.564  21.580  0.00  0.00    +0.176 C 
ATOM     12  C   UNL     1      10.578   7.663  21.738  0.00  0.00    +0.167 C 
ENDROOT
BRANCH  10   2
ATOM      2  O   UNL     1      13.418   6.271  19.945  0.00  0.00    -0.387 OA
ATOM     24  H   UNL     1      13.626   5.552  20.567  0.00  0.00    +0.210 HD
ENDBRANCH  10   2
BRANCH  11   3
ATOM      3  O   UNL     1      10.996   5.444  20.956  0.00  0.00    -0.387 OA
ATOM     25  H   UNL     1      10.199   5.771  20.507  0.00  0.00    +0.210 HD
ENDBRANCH  11   3
BRANCH   9  13
ATOM     13  C   UNL     1      12.364   9.149  19.019  0.00  0.00    +0.130 C 
BRANCH  13  15
ATOM      4  O   UNL     1      12.691   7.620  17.222  0.00  0.00    -0.276 OA
ATOM      6  N   UNL     1      13.646   9.713  17.013  0.00  0.00    -0.301 N 
ATOM     15  C   UNL     1      12.907   8.747  17.672  0.00  0.00    +0.218 C 
ATOM     16  C   UNL     1      14.244   9.479  15.707  0.00  0.00    +0.108 C 
ATOM     17  C   UNL     1      13.934  11.064  17.487  0.00  0.00    +0.108 C 
ATOM     18  C   UNL     1      14.661  10.860  15.227  0.00  0.00    +0.020 C 
ATOM     19  C   UNL     1      14.993  11.584  16.526  0.00  0.00    +0.020 C 
ENDBRANCH  13  15
ENDBRANCH   9  13
BRANCH  12  14
ATOM     14  C   UNL     1      10.883   8.615  22.887  0.00  0.00    +0.140 C 
BRANCH  14   7
ATOM      5  O   UNL     1      11.205  11.012  24.461  0.00  0.00    -0.253 OA
ATOM      7  N   UNL     1      10.634  10.002  22.454  0.00  0.00    -0.297 N 
ATOM      8  N   UNL     1      10.513  12.263  22.634  0.00  0.00    -0.297 N 
ATOM     20  C   UNL     1      10.821  11.076  23.294  0.00  0.00    +0.300 C 
ATOM     26  H   UNL     1      10.321  10.160  21.501  0.00  0.00    +0.150 HD
ATOM     27  H   UNL     1      10.277  12.220  21.647  0.00  0.00    +0.150 HD
BRANCH   8  21
ATOM     21  C   UNL     1      10.615  13.558  23.264  0.00  0.00    +0.068 C 
ATOM     22  C   UNL     1       9.487  14.467  22.791  0.00  0.00    +0.027 C 
ATOM     23  C   UNL     1      11.978  14.181  22.989  0.00  0.00    +0.027 C 
ENDBRANCH   8  21
ENDBRANCH  14   7
ENDBRANCH  12  14
TORSDOF 7
ENDMDL
MODEL 2
REMARK VINA RESULT:      -6.0     13.671     16.634
REMARK  Name = 40781523
REMARK  9 active torsions:
REMARK  status: ('A' for Active; 'I' for Inactive)
REMARK    1  A    between atoms: O_2  and  C_10
REMARK    2  A    between atoms: O_3  and  C_11
REMARK    3  A    between atoms: N_7  and  C_14
REMARK    4  A    between atoms: N_8  and  C_21
REMARK    5  A    between atoms: C_9  and  C_13
REMARK    6  A    between atoms: C_12  and  C_14
REMARK    7  A    between atoms: C_13  and  C_15
REMARK    8  A    between atoms: C_21  and  C_22
REMARK    9  A    between atoms: C_21  and  C_23
REMARK                            x       y       z     vdW  Elec       q    Type
REMARK                         _______ _______ _______ _____ _____    ______ ____
ROOT
ATOM      1  O   UNL     1       9.216   5.787   6.152  0.00  0.00    -0.366 OA
ATOM      9  C   UNL     1      10.483   5.756   5.472  0.00  0.00    +0.159 C 
ATOM     10  C   UNL     1      11.409   6.641   6.288  0.00  0.00    +0.175 C 
ATOM     11  C   UNL     1      10.929   6.365   7.698  0.00  0.00    +0.176 C 
ATOM     12  C   UNL     1       9.420   6.257   7.504  0.00  0.00    +0.167 C 
ENDROOT
BRANCH  10   2
ATOM      2  O   UNL     1      12.768   6.315   6.086  0.00  0.00    -0.387 OA
ATOM     24  H   UNL     1      13.236   7.141   5.872  0.00  0.00    +0.210 HD
ENDBRANCH  10   2
BRANCH  11   3
ATOM      3  O   UNL     1      11.409   5.097   8.145  0.00  0.00    -0.387 OA
ATOM     25  H   UNL     1      11.649   4.583   7.357  0.00  0.00    +0.210 HD
ENDBRANCH  11   3
BRANCH   9  13
ATOM     13  C   UNL     1      10.307   6.226   4.040  0.00  0.00    +0.130 C 
BRANCH  13  15
ATOM      4  O   UNL     1      10.946   3.998   3.494  0.00  0.00    -0.276 OA
ATOM      6  N   UNL     1      10.422   5.404   1.738  0.00  0.00    -0.301 N 
ATOM     15  C   UNL     1      10.588   5.101   3.077  0.00  0.00    +0.218 C 
ATOM     16  C   UNL     1      10.660   4.429   0.685  0.00  0.00    +0.108 C 
ATOM     17  C   UNL     1       9.997   6.685   1.181  0.00  0.00    +0.108 C 
ATOM     18  C   UNL     1      10.056   5.059  -0.561  0.00  0.00    +0.020 C 
ATOM     19  C   UNL     1      10.250   6.550  -0.314  0.00  0.00    +0.020 C 
ENDBRANCH  13  15
ENDBRANCH   9  13
BRANCH  12  14
ATOM     14  C   UNL     1       8.705   7.594   7.645  0.00  0.00    +0.140 C 
BRANCH  14   7
ATOM      5  O   UNL     1       8.942   9.715   5.702  0.00  0.00    -0.253 OA
ATOM      7  N   UNL     1       7.848   7.819   6.466  0.00  0.00    -0.297 N 
ATOM      8  N   UNL     1       7.106   8.846   4.581  0.00  0.00    -0.297 N 
ATOM     20  C   UNL     1       8.054   8.870   5.602  0.00  0.00    +0.300 C 
ATOM     26  H   UNL     1       7.090   7.167   6.290  0.00  0.00    +0.150 HD
ATOM     27  H   UNL     1       6.460   8.064   4.540  0.00  0.00    +0.150 HD
BRANCH   8  21
ATOM     21  C   UNL     1       7.072   9.827   3.523  0.00  0.00    +0.068 C 
ATOM     22  C   UNL     1       5.648  10.328   3.312  0.00  0.00    +0.027 C 
ATOM     23  C   UNL     1       7.650   9.249   2.237  0.00  0.00    +0.027 C 
ENDBRANCH   8  21
ENDBRANCH  14   7
ENDBRANCH  12  14
TORSDOF 7
ENDMDL
MODEL 3
REMARK VINA RESULT:      -5.9      3.330      5.221
REMARK  Name = 40781523
REMARK  9 active torsions:
REMARK  status: ('A' for Active; 'I' for Inactive)
REMARK    1  A    between atoms: O_2  and  C_10
REMARK    2  A    between atoms: O_3  and  C_11
REMARK    3  A    between atoms: N_7  and  C_14
REMARK    4  A    between atoms: N_8  and  C_21
REMARK    5  A    between atoms: C_9  and  C_13
REMARK    6  A    between atoms: C_12  and  C_14
REMARK    7  A    between atoms: C_13  and  C_15
REMARK    8  A    between atoms: C_21  and  C_22
REMARK    9  A    between atoms: C_21  and  C_23
REMARK                            x       y       z     vdW  Elec       q    Type
REMARK                         _______ _______ _______ _____ _____    ______ ____
ROOT
ATOM      1  O   UNL     1      13.251   9.568  19.744  0.00  0.00    -0.366 OA
ATOM      9  C   UNL     1      13.090   8.945  18.457  0.00  0.00    +0.159 C 
ATOM     10  C   UNL     1      12.558   7.551  18.740  0.00  0.00    +0.175 C 
ATOM     11  C   UNL     1      11.670   7.802  19.941  0.00  0.00    +0.176 C 
ATOM     12  C   UNL     1      12.475   8.836  20.720  0.00  0.00    +0.167 C 
ENDROOT
BRANCH  10   2
ATOM      2  O   UNL     1      11.865   7.014  17.633  0.00  0.00    -0.387 OA
ATOM     24  H   UNL     1      10.972   6.776  17.937  0.00  0.00    +0.210 HD
ENDBRANCH  10   2
BRANCH  11   3
ATOM      3  O   UNL     1      10.445   8.411  19.532  0.00  0.00    -0.387 OA
ATOM     25  H   UNL     1      10.090   7.883  18.798  0.00  0.00    +0.210 HD
ENDBRANCH  11   3
BRANCH   9  13
ATOM     13  C   UNL     1      14.417   8.946  17.719  0.00  0.00    +0.130 C 
BRANCH  13  15
ATOM      4  O   UNL     1      13.703   8.600  15.474  0.00  0.00    -0.276 OA
ATOM      6  N   UNL     1      14.664  10.640  15.971  0.00  0.00    -0.301 N 
ATOM     15  C   UNL     1      14.222   9.368  16.286  0.00  0.00    +0.218 C 
ATOM     16  C   UNL     1      14.553  11.193  14.629  0.00  0.00    +0.108 C 
ATOM     17  C   UNL     1      15.280  11.599  16.883  0.00  0.00    +0.108 C 
ATOM     18  C   UNL     1      14.841  12.676  14.804  0.00  0.00    +0.020 C 
ATOM     19  C   UNL     1      15.815  12.696  15.975  0.00  0.00    +0.020 C 
ENDBRANCH  13  15
ENDBRANCH   9  13
BRANCH  12  14
ATOM     14  C   UNL     1      13.445   8.211  21.713  0.00  0.00    +0.140 C 
BRANCH  14   7
ATOM      5  O   UNL     1      15.465   6.237  21.120  0.00  0.00    -0.253 OA
ATOM      7  N   UNL     1      14.830   8.461  21.271  0.00  0.00    -0.297 N 
ATOM      8  N   UNL     1      16.944   7.952  20.616  0.00  0.00    -0.297 N 
ATOM     20  C   UNL     1      15.713   7.437  21.016  0.00  0.00    +0.300 C 
ATOM     26  H   UNL     1      15.128   9.423  21.145  0.00  0.00    +0.150 HD
ATOM     27  H   UNL     1      17.029   8.956  20.485  0.00  0.00    +0.150 HD
BRANCH   8  21
ATOM     21  C   UNL     1      18.070   7.114  20.280  0.00  0.00    +0.068 C 
ATOM     22  C   UNL     1      17.642   6.016  19.315  0.00  0.00    +0.027 C 
ATOM     23  C   UNL     1      18.697   6.530  21.539  0.00  0.00    +0.027 C 
ENDBRANCH   8  21
ENDBRANCH  14   7
ENDBRANCH  12  14
TORSDOF 7
ENDMDL
MODEL 4
REMARK VINA RESULT:      -5.8     28.320     30.226
REMARK  Name = 40781523
REMARK  9 active torsions:
REMARK  status: ('A' for Active; 'I' for Inactive)
REMARK    1  A    between atoms: O_2  and  C_10
REMARK    2  A    between atoms: O_3  and  C_11
REMARK    3  A    between atoms: N_7  and  C_14
REMARK    4  A    between atoms: N_8  and  C_21
REMARK    5  A    between atoms: C_9  and  C_13
REMARK    6  A    between atoms: C_12  and  C_14
REMARK    7  A    between atoms: C_13  and  C_15
REMARK    8  A    between atoms: C_21  and  C_22
REMARK    9  A    between atoms: C_21  and  C_23
REMARK                            x       y       z     vdW  Elec       q    Type
REMARK                         _______ _______ _______ _____ _____    ______ ____
ROOT
ATOM      1  O   UNL     1     -13.448   3.321  32.106  0.00  0.00    -0.366 OA
ATOM      9  C   UNL     1     -14.572   4.046  32.638  0.00  0.00    +0.159 C 
ATOM     10  C   UNL     1     -15.699   3.034  32.746  0.00  0.00    +0.175 C 
ATOM     11  C   UNL     1     -14.944   1.776  33.122  0.00  0.00    +0.176 C 
ATOM     12  C   UNL     1     -13.676   1.905  32.286  0.00  0.00    +0.167 C 
ENDROOT
BRANCH  10   2
ATOM      2  O   UNL     1     -16.664   3.416  33.703  0.00  0.00    -0.387 OA
ATOM     24  H   UNL     1     -17.033   2.601  34.085  0.00  0.00    +0.210 HD
ENDBRANCH  10   2
BRANCH  11   3
ATOM      3  O   UNL     1     -14.572   1.816  34.500  0.00  0.00    -0.387 OA
ATOM     25  H   UNL     1     -14.246   0.933  34.738  0.00  0.00    +0.210 HD
ENDBRANCH  11   3
BRANCH   9  13
ATOM     13  C   UNL     1     -14.899   5.219  31.732  0.00  0.00    +0.130 C 
BRANCH  13  15
ATOM      4  O   UNL     1     -16.603   6.456  32.845  0.00  0.00    -0.276 OA
ATOM      6  N   UNL     1     -14.465   7.327  32.896  0.00  0.00    -0.301 N 
ATOM     15  C   UNL     1     -15.411   6.383  32.542  0.00  0.00    +0.218 C 
ATOM     16  C   UNL     1     -14.801   8.512  33.672  0.00  0.00    +0.108 C 
ATOM     17  C   UNL     1     -13.041   7.298  32.575  0.00  0.00    +0.108 C 
ATOM     18  C   UNL     1     -13.457   9.078  34.103  0.00  0.00    +0.020 C 
ATOM     19  C   UNL     1     -12.538   8.683  32.953  0.00  0.00    +0.020 C 
ENDBRANCH  13  15
ENDBRANCH   9  13
BRANCH  12  14
ATOM     14  C   UNL     1     -13.806   1.275  30.905  0.00  0.00    +0.140 C 
BRANCH  14   7
ATOM      5  O   UNL     1     -16.167   1.448  29.254  0.00  0.00    -0.253 OA
ATOM      7  N   UNL     1     -14.124   2.322  29.917  0.00  0.00    -0.297 N 
ATOM      8  N   UNL     1     -15.332   3.404  28.326  0.00  0.00    -0.297 N 
ATOM     20  C   UNL     1     -15.286   2.303  29.180  0.00  0.00    +0.300 C 
ATOM     26  H   UNL     1     -13.461   3.080  29.789  0.00  0.00    +0.150 HD
ATOM     27  H   UNL     1     -14.593   4.097  28.392  0.00  0.00    +0.150 HD
BRANCH   8  21
ATOM     21  C   UNL     1     -16.435   3.652  27.429  0.00  0.00    +0.068 C 
ATOM     22  C   UNL     1     -15.984   3.499  25.982  0.00  0.00    +0.027 C 
ATOM     23  C   UNL     1     -17.028   5.033  27.680  0.00  0.00    +0.027 C 
ENDBRANCH   8  21
ENDBRANCH  14   7
ENDBRANCH  12  14
TORSDOF 7
ENDMDL
MODEL 5
REMARK VINA RESULT:      -5.8     25.840     27.340
REMARK  Name = 40781523
REMARK  9 active torsions:
REMARK  status: ('A' for Active; 'I' for Inactive)
REMARK    1  A    between atoms: O_2  and  C_10
REMARK    2  A    between atoms: O_3  and  C_11
REMARK    3  A    between atoms: N_7  and  C_14
REMARK    4  A    between atoms: N_8  and  C_21
REMARK    5  A    between atoms: C_9  and  C_13
REMARK    6  A    between atoms: C_12  and  C_14
REMARK    7  A    between atoms: C_13  and  C_15
REMARK    8  A    between atoms: C_21  and  C_22
REMARK    9  A    between atoms: C_21  and  C_23
REMARK                            x       y       z     vdW  Elec       q    Type
REMARK                         _______ _______ _______ _____ _____    ______ ____
ROOT
ATOM      1  O   UNL     1      -4.208 -11.732  14.607  0.00  0.00    -0.366 OA
ATOM      9  C   UNL     1      -2.794 -11.741  14.874  0.00  0.00    +0.159 C 
ATOM     10  C   UNL     1      -2.584 -10.750  16.005  0.00  0.00    +0.175 C 
ATOM     11  C   UNL     1      -3.842 -10.951  16.824  0.00  0.00    +0.176 C 
ATOM     12  C   UNL     1      -4.896 -11.155  15.741  0.00  0.00    +0.167 C 
ENDROOT
BRANCH  10   2
ATOM      2  O   UNL     1      -1.399 -11.013  16.727  0.00  0.00    -0.387 OA
ATOM     24  H   UNL     1      -1.622 -11.647  17.431  0.00  0.00    +0.210 HD
ENDBRANCH  10   2
BRANCH  11   3
ATOM      3  O   UNL     1      -3.751 -12.154  17.586  0.00  0.00    -0.387 OA
ATOM     25  H   UNL     1      -3.627 -12.886  16.958  0.00  0.00    +0.210 HD
ENDBRANCH  11   3
BRANCH   9  13
ATOM     13  C   UNL     1      -2.033 -11.384  13.610  0.00  0.00    +0.130 C 
BRANCH  13  15
ATOM      4  O   UNL     1      -2.440 -13.421  12.445  0.00  0.00    -0.276 OA
ATOM      6  N   UNL     1      -3.100 -11.464  11.410  0.00  0.00    -0.301 N 
ATOM     15  C   UNL     1      -2.540 -12.193  12.444  0.00  0.00    +0.218 C 
ATOM     16  C   UNL     1      -3.630 -12.096  10.211  0.00  0.00    +0.108 C 
ATOM     17  C   UNL     1      -3.253 -10.014  11.349  0.00  0.00    +0.108 C 
ATOM     18  C   UNL     1      -4.420 -10.996   9.519  0.00  0.00    +0.020 C 
ATOM     19  C   UNL     1      -3.659  -9.735   9.909  0.00  0.00    +0.020 C 
ENDBRANCH  13  15
ENDBRANCH   9  13
BRANCH  12  14
ATOM     14  C   UNL     1      -5.540  -9.853  15.282  0.00  0.00    +0.140 C 
BRANCH  14   7
ATOM      5  O   UNL     1      -8.413  -9.894  15.018  0.00  0.00    -0.253 OA
ATOM      7  N   UNL     1      -6.530  -9.416  16.283  0.00  0.00    -0.297 N 
ATOM      8  N   UNL     1      -8.587  -9.006  17.155  0.00  0.00    -0.297 N 
ATOM     20  C   UNL     1      -7.884  -9.480  16.049  0.00  0.00    +0.300 C 
ATOM     26  H   UNL     1      -6.191  -9.066  17.174  0.00  0.00    +0.150 HD
ATOM     27  H   UNL     1      -8.064  -8.758  17.989  0.00  0.00    +0.150 HD
BRANCH   8  21
ATOM     21  C   UNL     1     -10.029  -8.953  17.201  0.00  0.00    +0.068 C 
ATOM     22  C   UNL     1     -10.510  -7.516  17.043  0.00  0.00    +0.027 C 
ATOM     23  C   UNL     1     -10.546  -9.569  18.495  0.00  0.00    +0.027 C 
ENDBRANCH   8  21
ENDBRANCH  14   7
ENDBRANCH  12  14
TORSDOF 7
ENDMDL
MODEL 6
REMARK VINA RESULT:      -5.8     25.874     27.459
REMARK  Name = 40781523
REMARK  9 active torsions:
REMARK  status: ('A' for Active; 'I' for Inactive)
REMARK    1  A    between atoms: O_2  and  C_10
REMARK    2  A    between atoms: O_3  and  C_11
REMARK    3  A    between atoms: N_7  and  C_14
REMARK    4  A    between atoms: N_8  and  C_21
REMARK    5  A    between atoms: C_9  and  C_13
REMARK    6  A    between atoms: C_12  and  C_14
REMARK    7  A    between atoms: C_13  and  C_15
REMARK    8  A    between atoms: C_21  and  C_22
REMARK    9  A    between atoms: C_21  and  C_23
REMARK                            x       y       z     vdW  Elec       q    Type
REMARK                         _______ _______ _______ _____ _____    ______ ____
ROOT
ATOM      1  O   UNL     1      -6.299 -10.989  16.829  0.00  0.00    -0.366 OA
ATOM      9  C   UNL     1      -4.900 -11.305  16.946  0.00  0.00    +0.159 C 
ATOM     10  C   UNL     1      -4.663 -11.578  18.420  0.00  0.00    +0.175 C 
ATOM     11  C   UNL     1      -5.961 -12.249  18.818  0.00  0.00    +0.176 C 
ATOM     12  C   UNL     1      -6.986 -11.460  18.012  0.00  0.00    +0.167 C 
ENDROOT
BRANCH  10   2
ATOM      2  O   UNL     1      -3.526 -12.389  18.633  0.00  0.00    -0.387 OA
ATOM     24  H   UNL     1      -2.886 -11.865  19.144  0.00  0.00    +0.210 HD
ENDBRANCH  10   2
BRANCH  11   3
ATOM      3  O   UNL     1      -5.982 -13.600  18.359  0.00  0.00    -0.387 OA
ATOM     25  H   UNL     1      -5.123 -13.996  18.583  0.00  0.00    +0.210 HD
ENDBRANCH  11   3
BRANCH   9  13
ATOM     13  C   UNL     1      -4.070 -10.155  16.404  0.00  0.00    +0.130 C 
BRANCH  13  15
ATOM      4  O   UNL     1      -1.824 -10.945  16.381  0.00  0.00    -0.276 OA
ATOM      6  N   UNL     1      -2.916 -10.813  14.350  0.00  0.00    -0.301 N 
ATOM     15  C   UNL     1      -2.830 -10.675  15.723  0.00  0.00    +0.218 C 
ATOM     16  C   UNL     1      -1.803 -11.296  13.546  0.00  0.00    +0.108 C 
ATOM     17  C   UNL     1      -4.076 -10.517  13.515  0.00  0.00    +0.108 C 
ATOM     18  C   UNL     1      -2.418 -11.597  12.188  0.00  0.00    +0.020 C 
ATOM     19  C   UNL     1      -3.542 -10.574  12.091  0.00  0.00    +0.020 C 
ENDBRANCH  13  15
ENDBRANCH   9  13
BRANCH  12  14
ATOM     14  C   UNL     1      -7.520 -10.242  18.755  0.00  0.00    +0.140 C 
BRANCH  14   7
ATOM      5  O   UNL     1     -10.184  -9.753  17.757  0.00  0.00    -0.253 OA
ATOM      7  N   UNL     1      -7.929  -9.213  17.781  0.00  0.00    -0.297 N 
ATOM      8  N   UNL     1      -9.341  -8.028  16.454  0.00  0.00    -0.297 N 
ATOM     20  C   UNL     1      -9.235  -9.070  17.373  0.00  0.00    +0.300 C 
ATOM     26  H   UNL     1      -7.217  -8.591  17.411  0.00  0.00    +0.150 HD
ATOM     27  H   UNL     1      -8.515  -7.472  16.257  0.00  0.00    +0.150 HD
BRANCH   8  21
ATOM     21  C   UNL     1     -10.594  -7.642  15.850  0.00  0.00    +0.068 C 
ATOM     22  C   UNL     1     -10.826  -8.427  14.565  0.00  0.00    +0.027 C 
ATOM     23  C   UNL     1     -10.623  -6.141  15.592  0.00  0.00    +0.027 C 
ENDBRANCH   8  21
ENDBRANCH  14   7
ENDBRANCH  12  14
TORSDOF 7
ENDMDL
MODEL 7
REMARK VINA RESULT:      -5.7     16.281     20.043
REMARK  Name = 40781523
REMARK  9 active torsions:
REMARK  status: ('A' for Active; 'I' for Inactive)
REMARK    1  A    between atoms: O_2  and  C_10
REMARK    2  A    between atoms: O_3  and  C_11
REMARK    3  A    between atoms: N_7  and  C_14
REMARK    4  A    between atoms: N_8  and  C_21
REMARK    5  A    between atoms: C_9  and  C_13
REMARK    6  A    between atoms: C_12  and  C_14
REMARK    7  A    between atoms: C_13  and  C_15
REMARK    8  A    between atoms: C_21  and  C_22
REMARK    9  A    between atoms: C_21  and  C_23
REMARK                            x       y       z     vdW  Elec       q    Type
REMARK                         _______ _______ _______ _____ _____    ______ ____
ROOT
ATOM      1  O   UNL     1      13.171   3.255   0.237  0.00  0.00    -0.366 OA
ATOM      9  C   UNL     1      14.372   3.697  -0.419  0.00  0.00    +0.159 C 
ATOM     10  C   UNL     1      14.965   4.764   0.484  0.00  0.00    +0.175 C 
ATOM     11  C   UNL     1      14.615   4.229   1.857  0.00  0.00    +0.176 C 
ATOM     12  C   UNL     1      13.223   3.651   1.627  0.00  0.00    +0.167 C 
ENDROOT
BRANCH  10   2
ATOM      2  O   UNL     1      16.354   4.919   0.281  0.00  0.00    -0.387 OA
ATOM     24  H   UNL     1      16.690   5.487   0.995  0.00  0.00    +0.210 HD
ENDBRANCH  10   2
BRANCH  11   3
ATOM      3  O   UNL     1      15.488   3.155   2.208  0.00  0.00    -0.387 OA
ATOM     25  H   UNL     1      16.332   3.307   1.751  0.00  0.00    +0.210 HD
ENDBRANCH  11   3
BRANCH   9  13
ATOM     13  C   UNL     1      14.038   4.202  -1.811  0.00  0.00    +0.130 C 
BRANCH  13  15
ATOM      4  O   UNL     1      12.556   2.554  -2.683  0.00  0.00    -0.276 OA
ATOM      6  N   UNL     1      11.643   4.599  -2.116  0.00  0.00    -0.301 N 
ATOM     15  C   UNL     1      12.685   3.698  -2.244  0.00  0.00    +0.218 C 
ATOM     16  C   UNL     1      10.278   4.267  -2.496  0.00  0.00    +0.108 C 
ATOM     17  C   UNL     1      11.727   5.962  -1.601  0.00  0.00    +0.108 C 
ATOM     18  C   UNL     1       9.435   5.383  -1.898  0.00  0.00    +0.020 C 
ATOM     19  C   UNL     1      10.378   6.579  -1.939  0.00  0.00    +0.020 C 
ENDBRANCH  13  15
ENDBRANCH   9  13
BRANCH  12  14
ATOM     14  C   UNL     1      12.110   4.664   1.864  0.00  0.00    +0.140 C 
BRANCH  14   7
ATOM      5  O   UNL     1      11.120   6.571   3.791  0.00  0.00    -0.253 OA
ATOM      7  N   UNL     1      11.442   4.368   3.145  0.00  0.00    -0.297 N 
ATOM      8  N   UNL     1      10.416   4.806   5.123  0.00  0.00    -0.297 N 
ATOM     20  C   UNL     1      11.009   5.362   3.991  0.00  0.00    +0.300 C 
ATOM     26  H   UNL     1      11.295   3.395   3.397  0.00  0.00    +0.150 HD
ATOM     27  H   UNL     1      10.302   3.798   5.163  0.00  0.00    +0.150 HD
BRANCH   8  21
ATOM     21  C   UNL     1       9.866   5.607   6.191  0.00  0.00    +0.068 C 
ATOM     22  C   UNL     1       9.837   4.810   7.489  0.00  0.00    +0.027 C 
ATOM     23  C   UNL     1       8.476   6.110   5.820  0.00  0.00    +0.027 C 
ENDBRANCH   8  21
ENDBRANCH  14   7
ENDBRANCH  12  14
TORSDOF 7
ENDMDL
MODEL 8
REMARK VINA RESULT:      -5.7     29.013     30.775
REMARK  Name = 40781523
REMARK  9 active torsions:
REMARK  status: ('A' for Active; 'I' for Inactive)
REMARK    1  A    between atoms: O_2  and  C_10
REMARK    2  A    between atoms: O_3  and  C_11
REMARK    3  A    between atoms: N_7  and  C_14
REMARK    4  A    between atoms: N_8  and  C_21
REMARK    5  A    between atoms: C_9  and  C_13
REMARK    6  A    between atoms: C_12  and  C_14
REMARK    7  A    between atoms: C_13  and  C_15
REMARK    8  A    between atoms: C_21  and  C_22
REMARK    9  A    between atoms: C_21  and  C_23
REMARK                            x       y       z     vdW  Elec       q    Type
REMARK                         _______ _______ _______ _____ _____    ______ ____
ROOT
ATOM      1  O   UNL     1     -16.188   3.509  32.179  0.00  0.00    -0.366 OA
ATOM      9  C   UNL     1     -15.643   3.398  33.506  0.00  0.00    +0.159 C 
ATOM     10  C   UNL     1     -15.340   4.819  33.947  0.00  0.00    +0.175 C 
ATOM     11  C   UNL     1     -16.477   5.586  33.303  0.00  0.00    +0.176 C 
ATOM     12  C   UNL     1     -16.623   4.871  31.964  0.00  0.00    +0.167 C 
ENDROOT
BRANCH  10   2
ATOM      2  O   UNL     1     -15.307   4.943  35.353  0.00  0.00    -0.387 OA
ATOM     24  H   UNL     1     -14.432   5.291  35.594  0.00  0.00    +0.210 HD
ENDBRANCH  10   2
BRANCH  11   3
ATOM      3  O   UNL     1     -17.684   5.394  34.041  0.00  0.00    -0.387 OA
ATOM     25  H   UNL     1     -17.826   6.192  34.577  0.00  0.00    +0.210 HD
ENDBRANCH  11   3
BRANCH   9  13
ATOM     13  C   UNL     1     -14.419   2.500  33.483  0.00  0.00    +0.130 C 
BRANCH  13  15
ATOM      4  O   UNL     1     -13.116   3.391  31.700  0.00  0.00    -0.276 OA
ATOM      6  N   UNL     1     -14.122   1.342  31.348  0.00  0.00    -0.301 N 
ATOM     15  C   UNL     1     -13.820   2.462  32.100  0.00  0.00    +0.218 C 
ATOM     16  C   UNL     1     -13.626   1.159  29.992  0.00  0.00    +0.108 C 
ATOM     17  C   UNL     1     -14.942   0.208  31.764  0.00  0.00    +0.108 C 
ATOM     18  C   UNL     1     -13.910  -0.302  29.678  0.00  0.00    +0.020 C 
ATOM     19  C   UNL     1     -15.172  -0.583  30.485  0.00  0.00    +0.020 C 
ENDBRANCH  13  15
ENDBRANCH   9  13
BRANCH  12  14
ATOM     14  C   UNL     1     -15.751   5.472  30.870  0.00  0.00    +0.140 C 
BRANCH  14   7
ATOM      5  O   UNL     1     -17.347   4.943  28.524  0.00  0.00    -0.253 OA
ATOM      7  N   UNL     1     -15.496   4.456  29.832  0.00  0.00    -0.297 N 
ATOM      8  N   UNL     1     -15.858   3.266  27.932  0.00  0.00    -0.297 N 
ATOM     20  C   UNL     1     -16.330   4.290  28.750  0.00  0.00    +0.300 C 
ATOM     26  H   UNL     1     -14.672   3.870  29.925  0.00  0.00    +0.150 HD
ATOM     27  H   UNL     1     -14.967   2.836  28.161  0.00  0.00    +0.150 HD
BRANCH   8  21
ATOM     21  C   UNL     1     -16.527   2.864  26.717  0.00  0.00    +0.068 C 
ATOM     22  C   UNL     1     -16.620   1.345  26.643  0.00  0.00    +0.027 C 
ATOM     23  C   UNL     1     -15.812   3.434  25.499  0.00  0.00    +0.027 C 
ENDBRANCH   8  21
ENDBRANCH  14   7
ENDBRANCH  12  14
TORSDOF 7
ENDMDL
MODEL 9
REMARK VINA RESULT:      -5.6     26.005     28.190
REMARK  Name = 40781523
REMARK  9 active torsions:
REMARK  status: ('A' for Active; 'I' for Inactive)
REMARK    1  A    between atoms: O_2  and  C_10
REMARK    2  A    between atoms: O_3  and  C_11
REMARK    3  A    between atoms: N_7  and  C_14
REMARK    4  A    between atoms: N_8  and  C_21
REMARK    5  A    between atoms: C_9  and  C_13
REMARK    6  A    between atoms: C_12  and  C_14
REMARK    7  A    between atoms: C_13  and  C_15
REMARK    8  A    between atoms: C_21  and  C_22
REMARK    9  A    between atoms: C_21  and  C_23
REMARK                            x       y       z     vdW  Elec       q    Type
REMARK                         _______ _______ _______ _____ _____    ______ ____
ROOT
ATOM      1  O   UNL     1      -6.281 -11.049  16.686  0.00  0.00    -0.366 OA
ATOM      9  C   UNL     1      -4.877 -11.309  16.862  0.00  0.00    +0.159 C 
ATOM     10  C   UNL     1      -4.667 -11.434  18.361  0.00  0.00    +0.175 C 
ATOM     11  C   UNL     1      -5.955 -12.103  18.793  0.00  0.00    +0.176 C 
ATOM     12  C   UNL     1      -6.982 -11.426  17.893  0.00  0.00    +0.167 C 
ENDROOT
BRANCH  10   2
ATOM      2  O   UNL     1      -3.514 -12.186  18.674  0.00  0.00    -0.387 OA
ATOM     24  H   UNL     1      -3.225 -11.919  19.563  0.00  0.00    +0.210 HD
ENDBRANCH  10   2
BRANCH  11   3
ATOM      3  O   UNL     1      -5.926 -13.492  18.465  0.00  0.00    -0.387 OA
ATOM     25  H   UNL     1      -6.598 -13.642  17.780  0.00  0.00    +0.210 HD
ENDBRANCH  11   3
BRANCH   9  13
ATOM     13  C   UNL     1      -4.067 -10.191  16.231  0.00  0.00    +0.130 C 
BRANCH  13  15
ATOM      4  O   UNL     1      -1.862 -11.083  16.127  0.00  0.00    -0.276 OA
ATOM      6  N   UNL     1      -3.001 -10.852  14.130  0.00  0.00    -0.301 N 
ATOM     15  C   UNL     1      -2.872 -10.752  15.504  0.00  0.00    +0.218 C 
ATOM     16  C   UNL     1      -1.934 -11.367  13.285  0.00  0.00    +0.108 C 
ATOM     17  C   UNL     1      -4.168 -10.482  13.335  0.00  0.00    +0.108 C 
ATOM     18  C   UNL     1      -2.599 -11.606  11.938  0.00  0.00    +0.020 C 
ATOM     19  C   UNL     1      -3.676 -10.530  11.896  0.00  0.00    +0.020 C 
ENDBRANCH  13  15
ENDBRANCH   9  13
BRANCH  12  14
ATOM     14  C   UNL     1      -7.569 -10.161  18.505  0.00  0.00    +0.140 C 
BRANCH  14   7
ATOM      5  O   UNL     1     -10.415 -10.371  18.076  0.00  0.00    -0.253 OA
ATOM      7  N   UNL     1      -8.593 -10.527  19.501  0.00  0.00    -0.297 N 
ATOM      8  N   UNL     1     -10.672 -10.961  20.305  0.00  0.00    -0.297 N 
ATOM     20  C   UNL     1      -9.930 -10.595  19.184  0.00  0.00    +0.300 C 
ATOM     26  H   UNL     1      -8.290 -10.741  20.446  0.00  0.00    +0.150 HD
ATOM     27  H   UNL     1     -10.174 -11.201  21.157  0.00  0.00    +0.150 HD
BRANCH   8  21
ATOM     21  C   UNL     1     -12.107 -11.115  20.277  0.00  0.00    +0.068 C 
ATOM     22  C   UNL     1     -12.785  -9.835  20.751  0.00  0.00    +0.027 C 
ATOM     23  C   UNL     1     -12.534 -12.310  21.120  0.00  0.00    +0.027 C 
ENDBRANCH   8  21
ENDBRANCH  14   7
ENDBRANCH  12  14
TORSDOF 7
ENDMDL
MODEL 10
REMARK VINA RESULT:      -5.5     26.912     29.284
REMARK  Name = 40781523
REMARK  9 active torsions:
REMARK  status: ('A' for Active; 'I' for Inactive)
REMARK    1  A    between atoms: O_2  and  C_10
REMARK    2  A    between atoms: O_3  and  C_11
REMARK    3  A    between atoms: N_7  and  C_14
REMARK    4  A    between atoms: N_8  and  C_21
REMARK    5  A    between atoms: C_9  and  C_13
REMARK    6  A    between atoms: C_12  and  C_14
REMARK    7  A    between atoms: C_13  and  C_15
REMARK    8  A    between atoms: C_21  and  C_22
REMARK    9  A    between atoms: C_21  and  C_23
REMARK                            x       y       z     vdW  Elec       q    Type
REMARK                         _______ _______ _______ _____ _____    ______ ____
ROOT
ATOM      1  O   UNL     1     -15.412   3.502  24.967  0.00  0.00    -0.366 OA
ATOM      9  C   UNL     1     -16.354   2.600  25.575  0.00  0.00    +0.159 C 
ATOM     10  C   UNL     1     -17.662   2.810  24.833  0.00  0.00    +0.175 C 
ATOM     11  C   UNL     1     -17.173   3.078  23.425  0.00  0.00    +0.176 C 
ATOM     12  C   UNL     1     -15.921   3.911  23.677  0.00  0.00    +0.167 C 
ENDROOT
BRANCH  10   2
ATOM      2  O   UNL     1     -18.511   1.686  24.926  0.00  0.00    -0.387 OA
ATOM     24  H   UNL     1     -18.300   1.230  25.760  0.00  0.00    +0.210 HD
ENDBRANCH  10   2
BRANCH  11   3
ATOM      3  O   UNL     1     -16.775   1.859  22.798  0.00  0.00    -0.387 OA
ATOM     25  H   UNL     1     -17.585   1.390  22.537  0.00  0.00    +0.210 HD
ENDBRANCH  11   3
BRANCH   9  13
ATOM     13  C   UNL     1     -16.451   2.888  27.062  0.00  0.00    +0.130 C 
BRANCH  13  15
ATOM      4  O   UNL     1     -16.997   0.607  27.473  0.00  0.00    -0.276 OA
ATOM      6  N   UNL     1     -15.613   1.651  29.000  0.00  0.00    -0.301 N 
ATOM     15  C   UNL     1     -16.385   1.607  27.853  0.00  0.00    +0.218 C 
ATOM     16  C   UNL     1     -15.454   0.499  29.875  0.00  0.00    +0.108 C 
ATOM     17  C   UNL     1     -14.862   2.798  29.501  0.00  0.00    +0.108 C 
ATOM     18  C   UNL     1     -14.302   0.876  30.793  0.00  0.00    +0.020 C 
ATOM     19  C   UNL     1     -14.438   2.389  30.904  0.00  0.00    +0.020 C 
ENDBRANCH  13  15
ENDBRANCH   9  13
BRANCH  12  14
ATOM     14  C   UNL     1     -16.202   5.406  23.741  0.00  0.00    +0.140 C 
BRANCH  14   7
ATOM      5  O   UNL     1     -15.457   6.295  21.098  0.00  0.00    -0.253 OA
ATOM      7  N   UNL     1     -14.987   6.151  23.363  0.00  0.00    -0.297 N 
ATOM      8  N   UNL     1     -13.521   7.212  21.990  0.00  0.00    -0.297 N 
ATOM     20  C   UNL     1     -14.731   6.525  22.064  0.00  0.00    +0.300 C 
ATOM     26  H   UNL     1     -14.327   6.397  24.095  0.00  0.00    +0.150 HD
ATOM     27  H   UNL     1     -13.030   7.420  22.854  0.00  0.00    +0.150 HD
BRANCH   8  21
ATOM     21  C   UNL     1     -12.991   7.729  20.751  0.00  0.00    +0.068 C 
ATOM     22  C   UNL     1     -11.657   7.066  20.430  0.00  0.00    +0.027 C 
ATOM     23  C   UNL     1     -12.852   9.245  20.821  0.00  0.00    +0.027 C 
ENDBRANCH   8  21
ENDBRANCH  14   7
ENDBRANCH  12  14
TORSDOF 7
ENDMDL
