MODEL 1
REMARK VINA RESULT:      -6.1      0.000      0.000
REMARK  Name = 75536906
REMARK  3 active torsions:
REMARK  status: ('A' for Active; 'I' for Inactive)
REMARK    1  A    between atoms: O_3  and  C_14
REMARK    2  A    between atoms: O_3  and  C_17
REMARK    3  A    between atoms: C_7  and  C_11
REMARK                            x       y       z     vdW  Elec       q    Type
REMARK                         _______ _______ _______ _____ _____    ______ ____
ROOT
ATOM      1  O   UNL     1      10.620   7.626  20.575  0.00  0.00    -0.375 OA
ATOM      2  O   UNL     1      13.333  11.508  22.701  0.00  0.00    -0.275 OA
ATOM      4  N   UNL     1      12.058   9.579  22.427  0.00  0.00    -0.295 N 
ATOM     11  C   UNL     1      12.264  10.904  22.866  0.00  0.00    +0.219 C 
ATOM     12  C   UNL     1      13.139   8.883  21.725  0.00  0.00    +0.154 C 
ATOM     13  C   UNL     1      10.781   8.891  22.638  0.00  0.00    +0.136 C 
ATOM     14  C   UNL     1      12.826   8.673  20.244  0.00  0.00    +0.218 C 
ATOM     15  C   UNL     1      10.628   7.519  21.995  0.00  0.00    +0.179 C 
ATOM     16  C   UNL     1      11.908   7.482  19.987  0.00  0.00    +0.206 C 
ENDROOT
BRANCH  11   7
ATOM      7  C   UNL     1      11.088  11.583  23.576  0.00  0.00    +0.075 C 
ATOM      8  C   UNL     1      11.189  11.787  25.111  0.00  0.00    +0.013 C 
ATOM      9  C   UNL     1      10.982  13.126  23.470  0.00  0.00    +0.013 C 
ATOM     10  C   UNL     1      10.452  13.126  24.916  0.00  0.00    +0.001 C 
ENDBRANCH  11   7
BRANCH  14   3
ATOM      3  O   UNL     1      14.061   8.448  19.564  0.00  0.00    -0.468 OA
BRANCH   3  17
ATOM      5  N   UNL     1      14.289  10.158  18.005  0.00  0.00    -0.219 NA
ATOM      6  N   UNL     1      14.058   8.268  15.945  0.00  0.00    -0.256 NA
ATOM     17  C   UNL     1      14.119   8.844  18.257  0.00  0.00    +0.234 A 
ATOM     18  C   UNL     1      14.006   7.916  17.244  0.00  0.00    +0.177 A 
ATOM     19  C   UNL     1      14.342  10.509  16.705  0.00  0.00    +0.134 A 
ATOM     20  C   UNL     1      14.228   9.582  15.693  0.00  0.00    +0.130 A 
ENDBRANCH   3  17
ENDBRANCH  14   3
TORSDOF 3
ENDMDL
MODEL 2
REMARK VINA RESULT:      -5.9      2.624      6.768
REMARK  Name = 75536906
REMARK  3 active torsions:
REMARK  status: ('A' for Active; 'I' for Inactive)
REMARK    1  A    between atoms: O_3  and  C_14
REMARK    2  A    between atoms: O_3  and  C_17
REMARK    3  A    between atoms: C_7  and  C_11
REMARK                            x       y       z     vdW  Elec       q    Type
REMARK                         _______ _______ _______ _____ _____    ______ ____
ROOT
ATOM      1  O   UNL     1      11.546   7.564  22.137  0.00  0.00    -0.375 OA
ATOM      2  O   UNL     1      16.071   9.366  20.341  0.00  0.00    -0.275 OA
ATOM      4  N   UNL     1      14.053   8.219  20.526  0.00  0.00    -0.295 N 
ATOM     11  C   UNL     1      15.461   8.293  20.452  0.00  0.00    +0.219 C 
ATOM     12  C   UNL     1      13.270   9.456  20.494  0.00  0.00    +0.154 C 
ATOM     13  C   UNL     1      13.360   6.933  20.656  0.00  0.00    +0.136 C 
ATOM     14  C   UNL     1      12.619   9.763  21.842  0.00  0.00    +0.218 C 
ATOM     15  C   UNL     1      11.853   6.988  20.872  0.00  0.00    +0.179 C 
ATOM     16  C   UNL     1      11.338   8.971  22.085  0.00  0.00    +0.206 C 
ENDROOT
BRANCH  11   7
ATOM      7  C   UNL     1      16.223   6.966  20.510  0.00  0.00    +0.075 C 
ATOM      8  C   UNL     1      16.643   6.312  19.166  0.00  0.00    +0.013 C 
ATOM      9  C   UNL     1      17.734   7.023  20.849  0.00  0.00    +0.013 C 
ATOM     10  C   UNL     1      17.934   5.851  19.869  0.00  0.00    +0.001 C 
ENDBRANCH  11   7
BRANCH  14   3
ATOM      3  O   UNL     1      12.303  11.155  21.868  0.00  0.00    -0.468 OA
BRANCH   3  17
ATOM      5  N   UNL     1      10.750  12.374  23.096  0.00  0.00    -0.219 NA
ATOM      6  N   UNL     1      12.286  11.946  25.404  0.00  0.00    -0.256 NA
ATOM     17  C   UNL     1      11.898  11.667  23.069  0.00  0.00    +0.234 A 
ATOM     18  C   UNL     1      12.651  11.457  24.203  0.00  0.00    +0.177 A 
ATOM     19  C   UNL     1      10.384  12.862  24.297  0.00  0.00    +0.134 A 
ATOM     20  C   UNL     1      11.138  12.653  25.431  0.00  0.00    +0.130 A 
ENDBRANCH   3  17
ENDBRANCH  14   3
TORSDOF 3
ENDMDL
MODEL 3
REMARK VINA RESULT:      -5.6     13.903     17.111
REMARK  Name = 75536906
REMARK  3 active torsions:
REMARK  status: ('A' for Active; 'I' for Inactive)
REMARK    1  A    between atoms: O_3  and  C_14
REMARK    2  A    between atoms: O_3  and  C_17
REMARK    3  A    between atoms: C_7  and  C_11
REMARK                            x       y       z     vdW  Elec       q    Type
REMARK                         _______ _______ _______ _____ _____    ______ ____
ROOT
ATOM      1  O   UNL     1      13.616   7.592   4.952  0.00  0.00    -0.375 OA
ATOM      2  O   UNL     1       9.208   4.947   5.668  0.00  0.00    -0.275 OA
ATOM      4  N   UNL     1      10.842   6.604   5.748  0.00  0.00    -0.295 N 
ATOM     11  C   UNL     1      10.031   5.601   6.323  0.00  0.00    +0.219 C 
ATOM     12  C   UNL     1      10.729   6.878   4.314  0.00  0.00    +0.154 C 
ATOM     13  C   UNL     1      11.808   7.361   6.551  0.00  0.00    +0.136 C 
ATOM     14  C   UNL     1      11.967   6.425   3.540  0.00  0.00    +0.218 C 
ATOM     15  C   UNL     1      12.726   8.314   5.796  0.00  0.00    +0.179 C 
ATOM     16  C   UNL     1      13.126   7.414   3.628  0.00  0.00    +0.206 C 
ENDROOT
BRANCH  11   7
ATOM      7  C   UNL     1      10.210   5.349   7.823  0.00  0.00    +0.075 C 
ATOM      8  C   UNL     1       9.197   6.011   8.795  0.00  0.00    +0.013 C 
ATOM      9  C   UNL     1       9.720   3.989   8.384  0.00  0.00    +0.013 C 
ATOM     10  C   UNL     1       9.297   4.740   9.660  0.00  0.00    +0.001 C 
ENDBRANCH  11   7
BRANCH  14   3
ATOM      3  O   UNL     1      11.597   6.282   2.169  0.00  0.00    -0.468 OA
BRANCH   3  17
ATOM      5  N   UNL     1      12.833   5.682   0.293  0.00  0.00    -0.219 NA
ATOM      6  N   UNL     1      12.957   3.050   1.255  0.00  0.00    -0.256 NA
ATOM     17  C   UNL     1      12.256   5.318   1.456  0.00  0.00    +0.234 A 
ATOM     18  C   UNL     1      12.318   4.026   1.929  0.00  0.00    +0.177 A 
ATOM     19  C   UNL     1      13.472   4.706  -0.380  0.00  0.00    +0.134 A 
ATOM     20  C   UNL     1      13.534   3.413   0.091  0.00  0.00    +0.130 A 
ENDBRANCH   3  17
ENDBRANCH  14   3
TORSDOF 3
ENDMDL
MODEL 4
REMARK VINA RESULT:      -5.4     26.109     28.152
REMARK  Name = 75536906
REMARK  3 active torsions:
REMARK  status: ('A' for Active; 'I' for Inactive)
REMARK    1  A    between atoms: O_3  and  C_14
REMARK    2  A    between atoms: O_3  and  C_17
REMARK    3  A    between atoms: C_7  and  C_11
REMARK                            x       y       z     vdW  Elec       q    Type
REMARK                         _______ _______ _______ _____ _____    ______ ____
ROOT
ATOM      1  O   UNL     1      -2.006 -10.281  15.954  0.00  0.00    -0.375 OA
ATOM      2  O   UNL     1      -5.744 -10.871  12.401  0.00  0.00    -0.275 OA
ATOM      4  N   UNL     1      -3.703 -10.980  13.518  0.00  0.00    -0.295 N 
ATOM     11  C   UNL     1      -4.546 -10.559  12.467  0.00  0.00    +0.219 C 
ATOM     12  C   UNL     1      -4.259 -11.803  14.594  0.00  0.00    +0.154 C 
ATOM     13  C   UNL     1      -2.289 -10.594  13.567  0.00  0.00    +0.136 C 
ATOM     14  C   UNL     1      -4.349 -11.042  15.916  0.00  0.00    +0.218 C 
ATOM     15  C   UNL     1      -1.516 -10.987  14.819  0.00  0.00    +0.179 C 
ATOM     16  C   UNL     1      -3.021 -10.980  16.665  0.00  0.00    +0.206 C 
ENDROOT
BRANCH  11   7
ATOM      7  C   UNL     1      -3.909  -9.685  11.383  0.00  0.00    +0.075 C 
ATOM      8  C   UNL     1      -3.702 -10.310   9.977  0.00  0.00    +0.013 C 
ATOM      9  C   UNL     1      -4.813  -8.638  10.684  0.00  0.00    +0.013 C 
ATOM     10  C   UNL     1      -4.037  -8.927   9.385  0.00  0.00    +0.001 C 
ENDBRANCH  11   7
BRANCH  14   3
ATOM      3  O   UNL     1      -5.303 -11.710  16.741  0.00  0.00    -0.468 OA
BRANCH   3  17
ATOM      5  N   UNL     1      -7.446 -11.697  17.643  0.00  0.00    -0.219 NA
ATOM      6  N   UNL     1      -7.705  -9.002  16.908  0.00  0.00    -0.256 NA
ATOM     17  C   UNL     1      -6.457 -11.029  17.015  0.00  0.00    +0.234 A 
ATOM     18  C   UNL     1      -6.584  -9.706  16.655  0.00  0.00    +0.177 A 
ATOM     19  C   UNL     1      -8.566 -10.992  17.896  0.00  0.00    +0.134 A 
ATOM     20  C   UNL     1      -8.694  -9.669  17.535  0.00  0.00    +0.130 A 
ENDBRANCH   3  17
ENDBRANCH  14   3
TORSDOF 3
ENDMDL
MODEL 5
REMARK VINA RESULT:      -5.2     26.882     27.690
REMARK  Name = 75536906
REMARK  3 active torsions:
REMARK  status: ('A' for Active; 'I' for Inactive)
REMARK    1  A    between atoms: O_3  and  C_14
REMARK    2  A    between atoms: O_3  and  C_17
REMARK    3  A    between atoms: C_7  and  C_11
REMARK                            x       y       z     vdW  Elec       q    Type
REMARK                         _______ _______ _______ _____ _____    ______ ____
ROOT
ATOM      1  O   UNL     1      -4.623 -13.845  13.271  0.00  0.00    -0.375 OA
ATOM      2  O   UNL     1      -3.737  -9.997  16.641  0.00  0.00    -0.275 OA
ATOM      4  N   UNL     1      -3.779 -12.089  15.620  0.00  0.00    -0.295 N 
ATOM     11  C   UNL     1      -4.129 -11.172  16.634  0.00  0.00    +0.219 C 
ATOM     12  C   UNL     1      -2.935 -11.639  14.511  0.00  0.00    +0.154 C 
ATOM     13  C   UNL     1      -4.260 -13.474  15.640  0.00  0.00    +0.136 C 
ATOM     14  C   UNL     1      -3.706 -11.559  13.193  0.00  0.00    +0.218 C 
ATOM     15  C   UNL     1      -3.936 -14.328  14.421  0.00  0.00    +0.179 C 
ATOM     16  C   UNL     1      -3.867 -12.912  12.508  0.00  0.00    +0.206 C 
ENDROOT
BRANCH  11   7
ATOM      7  C   UNL     1      -5.030 -11.699  17.756  0.00  0.00    +0.075 C 
ATOM      8  C   UNL     1      -4.387 -11.941  19.148  0.00  0.00    +0.013 C 
ATOM      9  C   UNL     1      -5.960 -10.682  18.464  0.00  0.00    +0.013 C 
ATOM     10  C   UNL     1      -5.712 -11.459  19.770  0.00  0.00    +0.001 C 
ENDBRANCH  11   7
BRANCH  14   3
ATOM      3  O   UNL     1      -2.987 -10.690  12.318  0.00  0.00    -0.468 OA
BRANCH   3  17
ATOM      5  N   UNL     1      -4.962  -9.556  11.855  0.00  0.00    -0.219 NA
ATOM      6  N   UNL     1      -3.934  -8.852   9.342  0.00  0.00    -0.256 NA
ATOM     17  C   UNL     1      -3.733  -9.938  11.454  0.00  0.00    +0.234 A 
ATOM     18  C   UNL     1      -3.228  -9.592  10.220  0.00  0.00    +0.177 A 
ATOM     19  C   UNL     1      -5.667  -8.816  10.978  0.00  0.00    +0.134 A 
ATOM     20  C   UNL     1      -5.163  -8.470   9.744  0.00  0.00    +0.130 A 
ENDBRANCH   3  17
ENDBRANCH  14   3
TORSDOF 3
ENDMDL
MODEL 6
REMARK VINA RESULT:      -5.1      2.734      3.920
REMARK  Name = 75536906
REMARK  3 active torsions:
REMARK  status: ('A' for Active; 'I' for Inactive)
REMARK    1  A    between atoms: O_3  and  C_14
REMARK    2  A    between atoms: O_3  and  C_17
REMARK    3  A    between atoms: C_7  and  C_11
REMARK                            x       y       z     vdW  Elec       q    Type
REMARK                         _______ _______ _______ _____ _____    ______ ____
ROOT
ATOM      1  O   UNL     1      12.946  12.128  20.639  0.00  0.00    -0.375 OA
ATOM      2  O   UNL     1      11.252  11.354  25.485  0.00  0.00    -0.275 OA
ATOM      4  N   UNL     1      11.441  12.119  23.294  0.00  0.00    -0.295 N 
ATOM     11  C   UNL     1      11.455  12.287  24.695  0.00  0.00    +0.219 C 
ATOM     12  C   UNL     1      11.199  10.786  22.737  0.00  0.00    +0.154 C 
ATOM     13  C   UNL     1      11.685  13.243  22.385  0.00  0.00    +0.136 C 
ATOM     14  C   UNL     1      12.449  10.195  22.086  0.00  0.00    +0.218 C 
ATOM     15  C   UNL     1      11.788  12.914  20.901  0.00  0.00    +0.179 C 
ATOM     16  C   UNL     1      12.702  10.726  20.678  0.00  0.00    +0.206 C 
ENDROOT
BRANCH  11   7
ATOM      7  C   UNL     1      11.733  13.701  25.215  0.00  0.00    +0.075 C 
ATOM      8  C   UNL     1      10.719  14.318  26.215  0.00  0.00    +0.013 C 
ATOM      9  C   UNL     1      12.793  13.856  26.335  0.00  0.00    +0.013 C 
ATOM     10  C   UNL     1      11.918  14.980  26.921  0.00  0.00    +0.001 C 
ENDBRANCH  11   7
BRANCH  14   3
ATOM      3  O   UNL     1      12.276   8.780  22.012  0.00  0.00    -0.468 OA
BRANCH   3  17
ATOM      5  N   UNL     1      14.491   8.101  22.212  0.00  0.00    -0.219 NA
ATOM      6  N   UNL     1      14.212   6.604  19.856  0.00  0.00    -0.256 NA
ATOM     17  C   UNL     1      13.332   8.061  21.524  0.00  0.00    +0.234 A 
ATOM     18  C   UNL     1      13.195   7.325  20.368  0.00  0.00    +0.177 A 
ATOM     19  C   UNL     1      15.507   7.379  21.701  0.00  0.00    +0.134 A 
ATOM     20  C   UNL     1      15.371   6.644  20.544  0.00  0.00    +0.130 A 
ENDBRANCH   3  17
ENDBRANCH  14   3
TORSDOF 3
ENDMDL
MODEL 7
REMARK VINA RESULT:      -5.0     27.641     29.945
REMARK  Name = 75536906
REMARK  3 active torsions:
REMARK  status: ('A' for Active; 'I' for Inactive)
REMARK    1  A    between atoms: O_3  and  C_14
REMARK    2  A    between atoms: O_3  and  C_17
REMARK    3  A    between atoms: C_7  and  C_11
REMARK                            x       y       z     vdW  Elec       q    Type
REMARK                         _______ _______ _______ _____ _____    ______ ____
ROOT
ATOM      1  O   UNL     1     -17.904   3.626  19.790  0.00  0.00    -0.375 OA
ATOM      2  O   UNL     1     -14.884   5.924  23.332  0.00  0.00    -0.275 OA
ATOM      4  N   UNL     1     -16.282   5.558  21.506  0.00  0.00    -0.295 N 
ATOM     11  C   UNL     1     -15.053   5.908  22.105  0.00  0.00    +0.219 C 
ATOM     12  C   UNL     1     -17.409   5.175  22.359  0.00  0.00    +0.154 C 
ATOM     13  C   UNL     1     -16.449   5.549  20.049  0.00  0.00    +0.136 C 
ATOM     14  C   UNL     1     -17.739   3.687  22.247  0.00  0.00    +0.218 C 
ATOM     15  C   UNL     1     -17.774   5.017  19.516  0.00  0.00    +0.179 C 
ATOM     16  C   UNL     1     -18.571   3.347  21.015  0.00  0.00    +0.206 C 
ENDROOT
BRANCH  11   7
ATOM      7  C   UNL     1     -13.908   6.280  21.157  0.00  0.00    +0.075 C 
ATOM      8  C   UNL     1     -13.376   7.738  21.200  0.00  0.00    +0.013 C 
ATOM      9  C   UNL     1     -12.476   5.842  21.557  0.00  0.00    +0.013 C 
ATOM     10  C   UNL     1     -11.969   7.162  20.946  0.00  0.00    +0.001 C 
ENDBRANCH  11   7
BRANCH  14   3
ATOM      3  O   UNL     1     -18.479   3.315  23.410  0.00  0.00    -0.468 OA
BRANCH   3  17
ATOM      5  N   UNL     1     -17.210   2.996  25.332  0.00  0.00    -0.219 NA
ATOM      6  N   UNL     1     -17.317   0.225  24.905  0.00  0.00    -0.256 NA
ATOM     17  C   UNL     1     -17.861   2.460  24.280  0.00  0.00    +0.234 A 
ATOM     18  C   UNL     1     -17.913   1.099  24.070  0.00  0.00    +0.177 A 
ATOM     19  C   UNL     1     -16.614   2.121  26.166  0.00  0.00    +0.134 A 
ATOM     20  C   UNL     1     -16.666   0.761  25.957  0.00  0.00    +0.130 A 
ENDBRANCH   3  17
ENDBRANCH  14   3
TORSDOF 3
ENDMDL
MODEL 8
REMARK VINA RESULT:      -5.0      4.346      7.086
REMARK  Name = 75536906
REMARK  3 active torsions:
REMARK  status: ('A' for Active; 'I' for Inactive)
REMARK    1  A    between atoms: O_3  and  C_14
REMARK    2  A    between atoms: O_3  and  C_17
REMARK    3  A    between atoms: C_7  and  C_11
REMARK                            x       y       z     vdW  Elec       q    Type
REMARK                         _______ _______ _______ _____ _____    ______ ____
ROOT
ATOM      1  O   UNL     1      17.242  11.526  20.335  0.00  0.00    -0.375 OA
ATOM      2  O   UNL     1      16.636   6.463  21.305  0.00  0.00    -0.275 OA
ATOM      4  N   UNL     1      17.358   8.674  21.413  0.00  0.00    -0.295 N 
ATOM     11  C   UNL     1      17.544   7.295  21.175  0.00  0.00    +0.219 C 
ATOM     12  C   UNL     1      16.034   9.157  21.811  0.00  0.00    +0.154 C 
ATOM     13  C   UNL     1      18.454   9.635  21.249  0.00  0.00    +0.136 C 
ATOM     14  C   UNL     1      15.363   9.978  20.710  0.00  0.00    +0.218 C 
ATOM     15  C   UNL     1      18.098  11.109  21.394  0.00  0.00    +0.179 C 
ATOM     16  C   UNL     1      15.858  11.419  20.647  0.00  0.00    +0.206 C 
ENDROOT
BRANCH  11   7
ATOM      7  C   UNL     1      18.947   6.856  20.742  0.00  0.00    +0.075 C 
ATOM      8  C   UNL     1      19.909   6.324  21.837  0.00  0.00    +0.013 C 
ATOM      9  C   UNL     1      19.087   5.465  20.073  0.00  0.00    +0.013 C 
ATOM     10  C   UNL     1      20.441   5.325  20.792  0.00  0.00    +0.001 C 
ENDBRANCH  11   7
BRANCH  14   3
ATOM      3  O   UNL     1      13.959   9.992  20.970  0.00  0.00    -0.468 OA
BRANCH   3  17
ATOM      5  N   UNL     1      12.576   8.339  21.841  0.00  0.00    -0.219 NA
ATOM      6  N   UNL     1      12.728   6.968  19.398  0.00  0.00    -0.256 NA
ATOM     17  C   UNL     1      13.295   8.809  20.801  0.00  0.00    +0.234 A 
ATOM     18  C   UNL     1      13.368   8.136  19.602  0.00  0.00    +0.177 A 
ATOM     19  C   UNL     1      11.935   7.171  21.636  0.00  0.00    +0.134 A 
ATOM     20  C   UNL     1      12.009   6.498  20.437  0.00  0.00    +0.130 A 
ENDBRANCH   3  17
ENDBRANCH  14   3
TORSDOF 3
ENDMDL
MODEL 9
REMARK VINA RESULT:      -5.0     26.187     28.469
REMARK  Name = 75536906
REMARK  3 active torsions:
REMARK  status: ('A' for Active; 'I' for Inactive)
REMARK    1  A    between atoms: O_3  and  C_14
REMARK    2  A    between atoms: O_3  and  C_17
REMARK    3  A    between atoms: C_7  and  C_11
REMARK                            x       y       z     vdW  Elec       q    Type
REMARK                         _______ _______ _______ _____ _____    ______ ____
ROOT
ATOM      1  O   UNL     1      -6.903 -13.213  18.489  0.00  0.00    -0.375 OA
ATOM      2  O   UNL     1      -8.459  -8.479  17.036  0.00  0.00    -0.275 OA
ATOM      4  N   UNL     1      -8.168 -10.448  18.245  0.00  0.00    -0.295 N 
ATOM     11  C   UNL     1      -8.933  -9.527  17.498  0.00  0.00    +0.219 C 
ATOM     12  C   UNL     1      -6.747 -10.176  18.475  0.00  0.00    +0.154 C 
ATOM     13  C   UNL     1      -8.758 -11.680  18.778  0.00  0.00    +0.136 C 
ATOM     14  C   UNL     1      -5.843 -11.134  17.699  0.00  0.00    +0.218 C 
ATOM     15  C   UNL     1      -7.805 -12.663  19.444  0.00  0.00    +0.179 C 
ATOM     16  C   UNL     1      -5.682 -12.491  18.378  0.00  0.00    +0.206 C 
ENDROOT
BRANCH  11   7
ATOM      7  C   UNL     1     -10.407  -9.878  17.277  0.00  0.00    +0.075 C 
ATOM      8  C   UNL     1     -11.447  -9.299  18.273  0.00  0.00    +0.013 C 
ATOM      9  C   UNL     1     -11.170  -9.103  16.172  0.00  0.00    +0.013 C 
ATOM     10  C   UNL     1     -12.413  -9.156  17.080  0.00  0.00    +0.001 C 
ENDBRANCH  11   7
BRANCH  14   3
ATOM      3  O   UNL     1      -4.556 -10.527  17.589  0.00  0.00    -0.468 OA
BRANCH   3  17
ATOM      5  N   UNL     1      -2.623 -10.575  16.298  0.00  0.00    -0.219 NA
ATOM      6  N   UNL     1      -4.208 -10.591  13.983  0.00  0.00    -0.256 NA
ATOM     17  C   UNL     1      -3.970 -10.555  16.354  0.00  0.00    +0.234 A 
ATOM     18  C   UNL     1      -4.748 -10.564  15.217  0.00  0.00    +0.177 A 
ATOM     19  C   UNL     1      -2.083 -10.603  15.064  0.00  0.00    +0.134 A 
ATOM     20  C   UNL     1      -2.860 -10.611  13.927  0.00  0.00    +0.130 A 
ENDBRANCH   3  17
ENDBRANCH  14   3
TORSDOF 3
ENDMDL
MODEL 10
REMARK VINA RESULT:      -5.0      8.894     11.212
REMARK  Name = 75536906
REMARK  3 active torsions:
REMARK  status: ('A' for Active; 'I' for Inactive)
REMARK    1  A    between atoms: O_3  and  C_14
REMARK    2  A    between atoms: O_3  and  C_17
REMARK    3  A    between atoms: C_7  and  C_11
REMARK                            x       y       z     vdW  Elec       q    Type
REMARK                         _______ _______ _______ _____ _____    ______ ____
ROOT
ATOM      1  O   UNL     1      22.240   7.830  20.287  0.00  0.00    -0.375 OA
ATOM      2  O   UNL     1      21.807   3.119  22.424  0.00  0.00    -0.275 OA
ATOM      4  N   UNL     1      22.553   5.264  21.907  0.00  0.00    -0.295 N 
ATOM     11  C   UNL     1      22.676   3.858  21.938  0.00  0.00    +0.219 C 
ATOM     12  C   UNL     1      21.344   5.887  22.449  0.00  0.00    +0.154 C 
ATOM     13  C   UNL     1      23.599   6.111  21.325  0.00  0.00    +0.136 C 
ATOM     14  C   UNL     1      20.466   6.493  21.354  0.00  0.00    +0.218 C 
ATOM     15  C   UNL     1      23.293   7.599  21.218  0.00  0.00    +0.179 C 
ATOM     16  C   UNL     1      20.949   7.862  20.886  0.00  0.00    +0.206 C 
ENDROOT
BRANCH  11   7
ATOM      7  C   UNL     1      23.955   3.266  21.338  0.00  0.00    +0.075 C 
ATOM      8  C   UNL     1      25.068   2.805  22.317  0.00  0.00    +0.013 C 
ATOM      9  C   UNL     1      23.903   1.796  20.849  0.00  0.00    +0.013 C 
ATOM     10  C   UNL     1      25.355   1.647  21.341  0.00  0.00    +0.001 C 
ENDBRANCH  11   7
BRANCH  14   3
ATOM      3  O   UNL     1      19.147   6.634  21.881  0.00  0.00    -0.468 OA
BRANCH   3  17
ATOM      5  N   UNL     1      16.940   7.104  21.318  0.00  0.00    -0.219 NA
ATOM      6  N   UNL     1      17.310   5.768  18.880  0.00  0.00    -0.256 NA
ATOM     17  C   UNL     1      18.118   6.539  20.985  0.00  0.00    +0.234 A 
ATOM     18  C   UNL     1      18.300   5.883  19.787  0.00  0.00    +0.177 A 
ATOM     19  C   UNL     1      15.952   6.990  20.410  0.00  0.00    +0.134 A 
ATOM     20  C   UNL     1      16.132   6.333  19.213  0.00  0.00    +0.130 A 
ENDBRANCH   3  17
ENDBRANCH  14   3
TORSDOF 3
ENDMDL
