MODEL 1
REMARK VINA RESULT:      -7.6      0.000      0.000
REMARK  Name = 45361464
REMARK  10 active torsions:
REMARK  status: ('A' for Active; 'I' for Inactive)
REMARK    1  A    between atoms: O_1  and  C_10
REMARK    2  A    between atoms: N_4  and  C_14
REMARK    3  A    between atoms: N_5  and  C_29
REMARK    4  A    between atoms: C_7  and  C_17
REMARK    5  A    between atoms: C_9  and  C_19
REMARK    6  A    between atoms: C_13  and  C_18
REMARK    7  A    between atoms: C_18  and  C_20
REMARK    8  A    between atoms: C_18  and  C_21
REMARK    9  A    between atoms: C_22  and  C_23
REMARK   10  A    between atoms: C_29  and  C_30
REMARK                            x       y       z     vdW  Elec       q    Type
REMARK                         _______ _______ _______ _____ _____    ______ ____
ROOT
ATOM      7  C   UNL     1      -3.121 -10.558  11.887  0.00  0.00    -0.027 C 
ATOM      8  C   UNL     1      -4.545 -10.233  12.448  0.00  0.00    +0.028 C 
ATOM      9  C   UNL     1      -4.840 -11.069  13.744  0.00  0.00    +0.012 C 
ATOM     10  C   UNL     1      -5.625 -10.326  11.332  0.00  0.00    +0.122 C 
ATOM     11  C   UNL     1      -2.818  -9.639  10.680  0.00  0.00    +0.007 C 
ATOM     12  C   UNL     1      -2.068 -10.262  12.980  0.00  0.00    +0.009 C 
ATOM     13  C   UNL     1      -5.266  -9.484  10.085  0.00  0.00    +0.029 C 
ATOM     14  C   UNL     1      -3.735 -10.821  14.809  0.00  0.00    +0.076 C 
ATOM     15  C   UNL     1      -3.853  -9.757   9.569  0.00  0.00    +0.007 C 
ATOM     16  C   UNL     1      -2.318 -11.026  14.273  0.00  0.00    +0.023 C 
ATOM     17  C   UNL     1      -2.984 -12.034  11.434  0.00  0.00    +0.011 C 
ATOM     19  C   UNL     1      -6.216 -10.776  14.367  0.00  0.00    +0.010 C 
ENDROOT
BRANCH  14   4
ATOM      3  O   UNL     1      -4.511  -9.998  17.483  0.00  0.00    -0.276 OA
ATOM      4  N   UNL     1      -3.911 -11.664  15.973  0.00  0.00    -0.312 N 
ATOM     22  C   UNL     1      -4.286 -11.174  17.210  0.00  0.00    +0.216 C 
ATOM     35  H   UNL     1      -3.699 -12.653  15.872  0.00  0.00    +0.149 HD
BRANCH  22  23
ATOM     23  C   UNL     1      -4.421 -12.264  18.233  0.00  0.00    +0.075 C 
ATOM     24  C   UNL     1      -4.889 -11.702  19.577  0.00  0.00    +0.013 C 
ATOM     25  C   UNL     1      -5.335 -13.372  17.705  0.00  0.00    +0.013 C 
ATOM     26  C   UNL     1      -6.377 -11.357  19.608  0.00  0.00    +0.001 C 
ATOM     27  C   UNL     1      -6.815 -12.995  17.745  0.00  0.00    +0.001 C 
ATOM     28  C   UNL     1      -7.239 -12.521  19.130  0.00  0.00    +0.000 C 
ENDBRANCH  22  23
ENDBRANCH  14   4
BRANCH  10   1
ATOM      1  O   UNL     1      -6.866  -9.816  11.825  0.00  0.00    -0.391 OA
ATOM     36  H   UNL     1      -6.814  -8.845  11.827  0.00  0.00    +0.210 HD
ENDBRANCH  10   1
BRANCH  13  18
ATOM     18  C   UNL     1      -6.275  -9.692   8.949  0.00  0.00    +0.077 C 
ATOM     20  C   UNL     1      -5.553  -9.743   7.608  0.00  0.00    +0.017 C 
BRANCH  18  21
ATOM      2  O   UNL     1      -8.229  -8.547   9.805  0.00  0.00    -0.276 OA
ATOM      5  N   UNL     1      -7.133  -7.648   7.970  0.00  0.00    -0.309 N 
ATOM     21  C   UNL     1      -7.324  -8.584   8.975  0.00  0.00    +0.217 C 
ATOM     37  H   UNL     1      -6.329  -7.720   7.355  0.00  0.00    +0.149 HD
BRANCH   5  29
ATOM     29  C   UNL     1      -8.001  -6.506   7.791  0.00  0.00    +0.159 C 
BRANCH  29  30
ATOM      6  N   UNL     1      -8.786  -7.190   5.595  0.00  0.00    -0.258 NA
ATOM     30  C   UNL     1      -9.128  -6.801   6.844  0.00  0.00    +0.058 A 
ATOM     31  C   UNL     1     -10.435  -6.666   7.282  0.00  0.00    +0.025 A 
ATOM     32  C   UNL     1     -11.457  -6.948   6.382  0.00  0.00    +0.003 A 
ATOM     33  C   UNL     1      -9.804  -7.455   4.748  0.00  0.00    +0.111 A 
ATOM     34  C   UNL     1     -11.143  -7.351   5.088  0.00  0.00    +0.020 A 
ENDBRANCH  29  30
ENDBRANCH   5  29
ENDBRANCH  18  21
ENDBRANCH  13  18
TORSDOF 7
ENDMDL
MODEL 2
REMARK VINA RESULT:      -7.5      1.503      1.926
REMARK  Name = 45361464
REMARK  10 active torsions:
REMARK  status: ('A' for Active; 'I' for Inactive)
REMARK    1  A    between atoms: O_1  and  C_10
REMARK    2  A    between atoms: N_4  and  C_14
REMARK    3  A    between atoms: N_5  and  C_29
REMARK    4  A    between atoms: C_7  and  C_17
REMARK    5  A    between atoms: C_9  and  C_19
REMARK    6  A    between atoms: C_13  and  C_18
REMARK    7  A    between atoms: C_18  and  C_20
REMARK    8  A    between atoms: C_18  and  C_21
REMARK    9  A    between atoms: C_22  and  C_23
REMARK   10  A    between atoms: C_29  and  C_30
REMARK                            x       y       z     vdW  Elec       q    Type
REMARK                         _______ _______ _______ _____ _____    ______ ____
ROOT
ATOM      7  C   UNL     1      -3.563 -10.577  11.279  0.00  0.00    -0.027 C 
ATOM      8  C   UNL     1      -4.965 -10.319  11.926  0.00  0.00    +0.028 C 
ATOM      9  C   UNL     1      -5.115 -11.117  13.269  0.00  0.00    +0.012 C 
ATOM     10  C   UNL     1      -6.109 -10.528  10.892  0.00  0.00    +0.122 C 
ATOM     11  C   UNL     1      -3.405  -9.691  10.020  0.00  0.00    +0.007 C 
ATOM     12  C   UNL     1      -2.461 -10.168  12.282  0.00  0.00    +0.009 C 
ATOM     13  C   UNL     1      -5.892  -9.718   9.593  0.00  0.00    +0.029 C 
ATOM     14  C   UNL     1      -3.958 -10.754  14.244  0.00  0.00    +0.076 C 
ATOM     15  C   UNL     1      -4.502  -9.922   8.989  0.00  0.00    +0.007 C 
ATOM     16  C   UNL     1      -2.571 -10.891  13.618  0.00  0.00    +0.023 C 
ATOM     17  C   UNL     1      -3.359 -12.058  10.873  0.00  0.00    +0.011 C 
ATOM     19  C   UNL     1      -6.461 -10.887  13.976  0.00  0.00    +0.010 C 
ENDROOT
BRANCH  14   4
ATOM      3  O   UNL     1      -4.469  -9.846  16.954  0.00  0.00    -0.276 OA
ATOM      4  N   UNL     1      -3.999 -11.557  15.448  0.00  0.00    -0.312 N 
ATOM     22  C   UNL     1      -4.252 -11.028  16.700  0.00  0.00    +0.216 C 
ATOM     35  H   UNL     1      -3.781 -12.546  15.360  0.00  0.00    +0.149 HD
BRANCH  22  23
ATOM     23  C   UNL     1      -4.262 -12.082  17.769  0.00  0.00    +0.075 C 
ATOM     24  C   UNL     1      -4.694 -11.496  19.115  0.00  0.00    +0.013 C 
ATOM     25  C   UNL     1      -5.129 -13.266  17.333  0.00  0.00    +0.013 C 
ATOM     26  C   UNL     1      -6.198 -11.245  19.215  0.00  0.00    +0.001 C 
ATOM     27  C   UNL     1      -6.626 -12.982  17.441  0.00  0.00    +0.001 C 
ATOM     28  C   UNL     1      -7.006 -12.479  18.828  0.00  0.00    +0.000 C 
ENDBRANCH  22  23
ENDBRANCH  14   4
BRANCH  10   1
ATOM      1  O   UNL     1      -7.344 -10.078  11.452  0.00  0.00    -0.391 OA
ATOM     36  H   UNL     1      -7.715  -9.400  10.862  0.00  0.00    +0.210 HD
ENDBRANCH  10   1
BRANCH  13  18
ATOM     18  C   UNL     1      -6.960 -10.038   8.539  0.00  0.00    +0.077 C 
ATOM     20  C   UNL     1      -6.495 -11.188   7.653  0.00  0.00    +0.017 C 
BRANCH  18  21
ATOM      2  O   UNL     1      -7.052  -8.722   6.508  0.00  0.00    -0.276 OA
ATOM      5  N   UNL     1      -7.806  -7.767   8.482  0.00  0.00    -0.309 N 
ATOM     21  C   UNL     1      -7.268  -8.790   7.716  0.00  0.00    +0.217 C 
ATOM     37  H   UNL     1      -8.003  -7.921   9.466  0.00  0.00    +0.149 HD
BRANCH   5  29
ATOM     29  C   UNL     1      -8.177  -6.487   7.926  0.00  0.00    +0.159 C 
BRANCH  29  30
ATOM      6  N   UNL     1     -10.291  -6.817   9.078  0.00  0.00    -0.258 NA
ATOM     30  C   UNL     1      -9.405  -5.924   8.582  0.00  0.00    +0.058 A 
ATOM     31  C   UNL     1      -9.570  -4.550   8.648  0.00  0.00    +0.025 A 
ATOM     32  C   UNL     1     -10.717  -4.061   9.263  0.00  0.00    +0.003 A 
ATOM     33  C   UNL     1     -11.393  -6.305   9.669  0.00  0.00    +0.111 A 
ATOM     34  C   UNL     1     -11.651  -4.949   9.787  0.00  0.00    +0.020 A 
ENDBRANCH  29  30
ENDBRANCH   5  29
ENDBRANCH  18  21
ENDBRANCH  13  18
TORSDOF 7
ENDMDL
MODEL 3
REMARK VINA RESULT:      -7.4      0.713      1.114
REMARK  Name = 45361464
REMARK  10 active torsions:
REMARK  status: ('A' for Active; 'I' for Inactive)
REMARK    1  A    between atoms: O_1  and  C_10
REMARK    2  A    between atoms: N_4  and  C_14
REMARK    3  A    between atoms: N_5  and  C_29
REMARK    4  A    between atoms: C_7  and  C_17
REMARK    5  A    between atoms: C_9  and  C_19
REMARK    6  A    between atoms: C_13  and  C_18
REMARK    7  A    between atoms: C_18  and  C_20
REMARK    8  A    between atoms: C_18  and  C_21
REMARK    9  A    between atoms: C_22  and  C_23
REMARK   10  A    between atoms: C_29  and  C_30
REMARK                            x       y       z     vdW  Elec       q    Type
REMARK                         _______ _______ _______ _____ _____    ______ ____
ROOT
ATOM      7  C   UNL     1      -3.163 -10.480  11.810  0.00  0.00    -0.027 C 
ATOM      8  C   UNL     1      -4.610 -10.210  12.344  0.00  0.00    +0.028 C 
ATOM      9  C   UNL     1      -4.893 -11.050  13.640  0.00  0.00    +0.012 C 
ATOM     10  C   UNL     1      -5.665 -10.355  11.210  0.00  0.00    +0.122 C 
ATOM     11  C   UNL     1      -2.878  -9.557  10.602  0.00  0.00    +0.007 C 
ATOM     12  C   UNL     1      -2.144 -10.134  12.919  0.00  0.00    +0.009 C 
ATOM     13  C   UNL     1      -5.319  -9.507   9.963  0.00  0.00    +0.029 C 
ATOM     14  C   UNL     1      -3.817 -10.749  14.723  0.00  0.00    +0.076 C 
ATOM     15  C   UNL     1      -3.887  -9.724   9.474  0.00  0.00    +0.007 C 
ATOM     16  C   UNL     1      -2.384 -10.899  14.212  0.00  0.00    +0.023 C 
ATOM     17  C   UNL     1      -2.958 -11.952  11.370  0.00  0.00    +0.011 C 
ATOM     19  C   UNL     1      -6.290 -10.810  14.237  0.00  0.00    +0.010 C 
ENDROOT
BRANCH  14   4
ATOM      3  O   UNL     1      -4.550  -9.923  17.408  0.00  0.00    -0.276 OA
ATOM      4  N   UNL     1      -3.980 -11.592  15.889  0.00  0.00    -0.312 N 
ATOM     22  C   UNL     1      -4.333 -11.100  17.132  0.00  0.00    +0.216 C 
ATOM     35  H   UNL     1      -3.773 -12.581  15.785  0.00  0.00    +0.149 HD
BRANCH  22  23
ATOM     23  C   UNL     1      -4.457 -12.189  18.157  0.00  0.00    +0.075 C 
ATOM     24  C   UNL     1      -4.854 -11.619  19.520  0.00  0.00    +0.013 C 
ATOM     25  C   UNL     1      -5.423 -13.269  17.664  0.00  0.00    +0.013 C 
ATOM     26  C   UNL     1      -6.329 -11.233  19.613  0.00  0.00    +0.001 C 
ATOM     27  C   UNL     1      -6.889 -12.852  17.765  0.00  0.00    +0.001 C 
ATOM     28  C   UNL     1      -7.243 -12.370  19.167  0.00  0.00    +0.000 C 
ENDBRANCH  22  23
ENDBRANCH  14   4
BRANCH  10   1
ATOM      1  O   UNL     1      -6.934  -9.893  11.678  0.00  0.00    -0.391 OA
ATOM     36  H   UNL     1      -6.815  -9.538  12.575  0.00  0.00    +0.210 HD
ENDBRANCH  10   1
BRANCH  13  18
ATOM     18  C   UNL     1      -6.298  -9.764   8.811  0.00  0.00    +0.077 C 
ATOM     20  C   UNL     1      -5.533 -10.035   7.522  0.00  0.00    +0.017 C 
BRANCH  18  21
ATOM      2  O   UNL     1      -7.822  -8.061   9.613  0.00  0.00    -0.276 OA
ATOM      5  N   UNL     1      -7.368  -8.160   7.341  0.00  0.00    -0.309 N 
ATOM     21  C   UNL     1      -7.244  -8.576   8.658  0.00  0.00    +0.217 C 
ATOM     37  H   UNL     1      -6.815  -8.605   6.616  0.00  0.00    +0.149 HD
BRANCH   5  29
ATOM     29  C   UNL     1      -8.209  -7.055   6.946  0.00  0.00    +0.159 C 
BRANCH  29  30
ATOM      6  N   UNL     1     -10.210  -6.922   5.574  0.00  0.00    -0.258 NA
ATOM     30  C   UNL     1      -8.922  -7.326   5.653  0.00  0.00    +0.058 A 
ATOM     31  C   UNL     1      -8.245  -7.961   4.624  0.00  0.00    +0.025 A 
ATOM     32  C   UNL     1      -8.934  -8.196   3.439  0.00  0.00    +0.003 A 
ATOM     33  C   UNL     1     -10.846  -7.166   4.407  0.00  0.00    +0.111 A 
ATOM     34  C   UNL     1     -10.260  -7.793   3.321  0.00  0.00    +0.020 A 
ENDBRANCH  29  30
ENDBRANCH   5  29
ENDBRANCH  18  21
ENDBRANCH  13  18
TORSDOF 7
ENDMDL
MODEL 4
REMARK VINA RESULT:      -7.1     24.048     26.511
REMARK  Name = 45361464
REMARK  10 active torsions:
REMARK  status: ('A' for Active; 'I' for Inactive)
REMARK    1  A    between atoms: O_1  and  C_10
REMARK    2  A    between atoms: N_4  and  C_14
REMARK    3  A    between atoms: N_5  and  C_29
REMARK    4  A    between atoms: C_7  and  C_17
REMARK    5  A    between atoms: C_9  and  C_19
REMARK    6  A    between atoms: C_13  and  C_18
REMARK    7  A    between atoms: C_18  and  C_20
REMARK    8  A    between atoms: C_18  and  C_21
REMARK    9  A    between atoms: C_22  and  C_23
REMARK   10  A    between atoms: C_29  and  C_30
REMARK                            x       y       z     vdW  Elec       q    Type
REMARK                         _______ _______ _______ _____ _____    ______ ____
ROOT
ATOM      7  C   UNL     1       9.430   6.253   6.279  0.00  0.00    -0.027 C 
ATOM      8  C   UNL     1      10.495   7.292   5.793  0.00  0.00    +0.028 C 
ATOM      9  C   UNL     1      10.079   8.750   6.198  0.00  0.00    +0.012 C 
ATOM     10  C   UNL     1      10.835   7.087   4.288  0.00  0.00    +0.122 C 
ATOM     11  C   UNL     1       9.923   4.821   5.964  0.00  0.00    +0.007 C 
ATOM     12  C   UNL     1       9.274   6.370   7.812  0.00  0.00    +0.009 C 
ATOM     13  C   UNL     1      11.229   5.628   3.960  0.00  0.00    +0.029 C 
ATOM     14  C   UNL     1       9.853   8.839   7.734  0.00  0.00    +0.076 C 
ATOM     15  C   UNL     1      10.220   4.606   4.486  0.00  0.00    +0.007 C 
ATOM     16  C   UNL     1       8.897   7.773   8.269  0.00  0.00    +0.023 C 
ATOM     17  C   UNL     1       8.048   6.462   5.609  0.00  0.00    +0.011 C 
ATOM     19  C   UNL     1      11.099   9.822   5.776  0.00  0.00    +0.010 C 
ENDROOT
BRANCH  14   4
ATOM      3  O   UNL     1      11.229  10.848   9.316  0.00  0.00    -0.276 OA
ATOM      4  N   UNL     1       9.355  10.140   8.129  0.00  0.00    -0.312 N 
ATOM     22  C   UNL     1      10.093  11.031   8.888  0.00  0.00    +0.216 C 
ATOM     35  H   UNL     1       8.401  10.376   7.872  0.00  0.00    +0.149 HD
BRANCH  22  23
ATOM     23  C   UNL     1       9.352  12.314   9.132  0.00  0.00    +0.075 C 
ATOM     24  C   UNL     1       8.332  12.153  10.262  0.00  0.00    +0.013 C 
ATOM     25  C   UNL     1      10.341  13.454   9.385  0.00  0.00    +0.013 C 
ATOM     26  C   UNL     1       8.963  12.141  11.653  0.00  0.00    +0.001 C 
ATOM     27  C   UNL     1      10.957  13.412  10.782  0.00  0.00    +0.001 C 
ATOM     28  C   UNL     1       9.889  13.334  11.867  0.00  0.00    +0.000 C 
ENDBRANCH  22  23
ENDBRANCH  14   4
BRANCH  10   1
ATOM      1  O   UNL     1      11.957   7.901   3.939  0.00  0.00    -0.391 OA
ATOM     36  H   UNL     1      12.239   8.385   4.733  0.00  0.00    +0.210 HD
ENDBRANCH  10   1
BRANCH  13  18
ATOM     18  C   UNL     1      11.432   5.419   2.455  0.00  0.00    +0.077 C 
ATOM     20  C   UNL     1      10.616   4.225   1.975  0.00  0.00    +0.017 C 
BRANCH  18  21
ATOM      2  O   UNL     1      13.722   6.163   2.194  0.00  0.00    -0.276 OA
ATOM      5  N   UNL     1      13.236   3.924   1.829  0.00  0.00    -0.309 N 
ATOM     21  C   UNL     1      12.917   5.235   2.152  0.00  0.00    +0.217 C 
ATOM     37  H   UNL     1      12.522   3.205   1.868  0.00  0.00    +0.149 HD
BRANCH   5  29
ATOM     29  C   UNL     1      14.579   3.506   1.501  0.00  0.00    +0.159 C 
BRANCH  29  30
ATOM      6  N   UNL     1      16.267   4.273  -0.070  0.00  0.00    -0.258 NA
ATOM     30  C   UNL     1      14.974   3.921   0.114  0.00  0.00    +0.058 A 
ATOM     31  C   UNL     1      14.020   3.923  -0.891  0.00  0.00    +0.025 A 
ATOM     32  C   UNL     1      14.418   4.312  -2.166  0.00  0.00    +0.003 A 
ATOM     33  C   UNL     1      16.616   4.643  -1.321  0.00  0.00    +0.111 A 
ATOM     34  C   UNL     1      15.740   4.680  -2.393  0.00  0.00    +0.020 A 
ENDBRANCH  29  30
ENDBRANCH   5  29
ENDBRANCH  18  21
ENDBRANCH  13  18
TORSDOF 7
ENDMDL
MODEL 5
REMARK VINA RESULT:      -7.0     23.307     26.037
REMARK  Name = 45361464
REMARK  10 active torsions:
REMARK  status: ('A' for Active; 'I' for Inactive)
REMARK    1  A    between atoms: O_1  and  C_10
REMARK    2  A    between atoms: N_4  and  C_14
REMARK    3  A    between atoms: N_5  and  C_29
REMARK    4  A    between atoms: C_7  and  C_17
REMARK    5  A    between atoms: C_9  and  C_19
REMARK    6  A    between atoms: C_13  and  C_18
REMARK    7  A    between atoms: C_18  and  C_20
REMARK    8  A    between atoms: C_18  and  C_21
REMARK    9  A    between atoms: C_22  and  C_23
REMARK   10  A    between atoms: C_29  and  C_30
REMARK                            x       y       z     vdW  Elec       q    Type
REMARK                         _______ _______ _______ _____ _____    ______ ____
ROOT
ATOM      7  C   UNL     1       9.765   6.318   6.301  0.00  0.00    -0.027 C 
ATOM      8  C   UNL     1      10.286   7.283   5.184  0.00  0.00    +0.028 C 
ATOM      9  C   UNL     1      11.368   6.576   4.293  0.00  0.00    +0.012 C 
ATOM     10  C   UNL     1      10.705   8.658   5.779  0.00  0.00    +0.122 C 
ATOM     11  C   UNL     1       8.624   7.005   7.087  0.00  0.00    +0.007 C 
ATOM     12  C   UNL     1       9.182   5.049   5.638  0.00  0.00    +0.009 C 
ATOM     13  C   UNL     1       9.596   9.294   6.650  0.00  0.00    +0.029 C 
ATOM     14  C   UNL     1      10.794   5.261   3.692  0.00  0.00    +0.076 C 
ATOM     15  C   UNL     1       9.043   8.334   7.703  0.00  0.00    +0.007 C 
ATOM     16  C   UNL     1      10.179   4.332   4.739  0.00  0.00    +0.023 C 
ATOM     17  C   UNL     1      10.878   5.907   7.297  0.00  0.00    +0.011 C 
ATOM     19  C   UNL     1      11.903   7.460   3.154  0.00  0.00    +0.010 C 
ENDROOT
BRANCH  14   4
ATOM      3  O   UNL     1      10.500   3.961   1.113  0.00  0.00    -0.276 OA
ATOM      4  N   UNL     1      11.801   4.522   2.959  0.00  0.00    -0.312 N 
ATOM     22  C   UNL     1      11.561   3.937   1.729  0.00  0.00    +0.216 C 
ATOM     35  H   UNL     1      12.706   4.395   3.403  0.00  0.00    +0.149 HD
BRANCH  22  23
ATOM     23  C   UNL     1      12.782   3.256   1.179  0.00  0.00    +0.075 C 
ATOM     24  C   UNL     1      12.739   3.204  -0.349  0.00  0.00    +0.013 C 
ATOM     25  C   UNL     1      14.047   3.930   1.714  0.00  0.00    +0.013 C 
ATOM     26  C   UNL     1      13.069   4.539  -1.013  0.00  0.00    +0.001 C 
ATOM     27  C   UNL     1      14.346   5.265   1.034  0.00  0.00    +0.001 C 
ATOM     28  C   UNL     1      14.372   5.131  -0.484  0.00  0.00    +0.000 C 
ENDBRANCH  22  23
ENDBRANCH  14   4
BRANCH  10   1
ATOM      1  O   UNL     1      10.966   9.578   4.717  0.00  0.00    -0.391 OA
ATOM     36  H   UNL     1      10.278  10.265   4.735  0.00  0.00    +0.210 HD
ENDBRANCH  10   1
BRANCH  13  18
ATOM     18  C   UNL     1      10.074  10.581   7.331  0.00  0.00    +0.077 C 
ATOM     20  C   UNL     1      10.160  10.377   8.839  0.00  0.00    +0.017 C 
BRANCH  18  21
ATOM      2  O   UNL     1       8.970  12.701   7.717  0.00  0.00    -0.276 OA
ATOM      5  N   UNL     1       8.521  11.560   5.748  0.00  0.00    -0.309 N 
ATOM     21  C   UNL     1       9.140  11.735   6.977  0.00  0.00    +0.217 C 
ATOM     37  H   UNL     1       8.756  10.759   5.173  0.00  0.00    +0.149 HD
BRANCH   5  29
ATOM     29  C   UNL     1       7.591  12.519   5.199  0.00  0.00    +0.159 C 
BRANCH  29  30
ATOM      6  N   UNL     1       5.467  12.619   4.022  0.00  0.00    -0.258 NA
ATOM     30  C   UNL     1       6.532  11.859   4.363  0.00  0.00    +0.058 A 
ATOM     31  C   UNL     1       6.691  10.535   3.988  0.00  0.00    +0.025 A 
ATOM     32  C   UNL     1       5.694   9.953   3.213  0.00  0.00    +0.003 A 
ATOM     33  C   UNL     1       4.519  12.020   3.268  0.00  0.00    +0.111 A 
ATOM     34  C   UNL     1       4.584  10.705   2.842  0.00  0.00    +0.020 A 
ENDBRANCH  29  30
ENDBRANCH   5  29
ENDBRANCH  18  21
ENDBRANCH  13  18
TORSDOF 7
ENDMDL
MODEL 6
REMARK VINA RESULT:      -7.0      1.952      9.132
REMARK  Name = 45361464
REMARK  10 active torsions:
REMARK  status: ('A' for Active; 'I' for Inactive)
REMARK    1  A    between atoms: O_1  and  C_10
REMARK    2  A    between atoms: N_4  and  C_14
REMARK    3  A    between atoms: N_5  and  C_29
REMARK    4  A    between atoms: C_7  and  C_17
REMARK    5  A    between atoms: C_9  and  C_19
REMARK    6  A    between atoms: C_13  and  C_18
REMARK    7  A    between atoms: C_18  and  C_20
REMARK    8  A    between atoms: C_18  and  C_21
REMARK    9  A    between atoms: C_22  and  C_23
REMARK   10  A    between atoms: C_29  and  C_30
REMARK                            x       y       z     vdW  Elec       q    Type
REMARK                         _______ _______ _______ _____ _____    ______ ____
ROOT
ATOM      7  C   UNL     1      -3.632 -10.620  10.653  0.00  0.00    -0.027 C 
ATOM      8  C   UNL     1      -4.918 -10.235  11.457  0.00  0.00    +0.028 C 
ATOM      9  C   UNL     1      -5.693  -9.069  10.747  0.00  0.00    +0.012 C 
ATOM     10  C   UNL     1      -4.593 -10.002  12.961  0.00  0.00    +0.122 C 
ATOM     11  C   UNL     1      -2.954 -11.842  11.317  0.00  0.00    +0.007 C 
ATOM     12  C   UNL     1      -4.038 -11.030   9.219  0.00  0.00    +0.009 C 
ATOM     13  C   UNL     1      -3.823 -11.185  13.594  0.00  0.00    +0.029 C 
ATOM     14  C   UNL     1      -6.032  -9.463   9.280  0.00  0.00    +0.076 C 
ATOM     15  C   UNL     1      -2.599 -11.603  12.779  0.00  0.00    +0.007 C 
ATOM     16  C   UNL     1      -4.818  -9.947   8.487  0.00  0.00    +0.023 C 
ATOM     17  C   UNL     1      -2.606  -9.460  10.581  0.00  0.00    +0.011 C 
ATOM     19  C   UNL     1      -6.987  -8.659  11.470  0.00  0.00    +0.010 C 
ENDROOT
BRANCH  14   4
ATOM      3  O   UNL     1      -8.125  -9.623   7.275  0.00  0.00    -0.276 OA
ATOM      4  N   UNL     1      -6.644  -8.367   8.559  0.00  0.00    -0.312 N 
ATOM     22  C   UNL     1      -7.641  -8.548   7.617  0.00  0.00    +0.216 C 
ATOM     35  H   UNL     1      -6.281  -7.433   8.726  0.00  0.00    +0.149 HD
BRANCH  22  23
ATOM     23  C   UNL     1      -8.117  -7.246   7.040  0.00  0.00    +0.075 C 
ATOM     24  C   UNL     1      -9.297  -7.464   6.091  0.00  0.00    +0.013 C 
ATOM     25  C   UNL     1      -8.435  -6.257   8.163  0.00  0.00    +0.013 C 
ATOM     26  C   UNL     1     -10.616  -7.735   6.813  0.00  0.00    +0.001 C 
ATOM     27  C   UNL     1      -9.757  -6.557   8.868  0.00  0.00    +0.001 C 
ATOM     28  C   UNL     1     -10.908  -6.682   7.877  0.00  0.00    +0.000 C 
ENDBRANCH  22  23
ENDBRANCH  14   4
BRANCH  10   1
ATOM      1  O   UNL     1      -5.811  -9.868  13.697  0.00  0.00    -0.391 OA
ATOM     36  H   UNL     1      -6.494  -9.532  13.092  0.00  0.00    +0.210 HD
ENDBRANCH  10   1
BRANCH  13  18
ATOM     18  C   UNL     1      -3.399 -10.882  15.036  0.00  0.00    +0.077 C 
ATOM     20  C   UNL     1      -1.986 -11.395  15.287  0.00  0.00    +0.017 C 
BRANCH  18  21
ATOM      2  O   UNL     1      -4.692 -12.691  15.994  0.00  0.00    -0.276 OA
ATOM      5  N   UNL     1      -4.918 -10.567  16.899  0.00  0.00    -0.309 N 
ATOM     21  C   UNL     1      -4.397 -11.498  16.012  0.00  0.00    +0.217 C 
ATOM     37  H   UNL     1      -4.583  -9.610  16.883  0.00  0.00    +0.149 HD
BRANCH   5  29
ATOM     29  C   UNL     1      -5.884 -10.913  17.916  0.00  0.00    +0.159 C 
BRANCH  29  30
ATOM      6  N   UNL     1      -7.308  -9.443  16.605  0.00  0.00    -0.258 NA
ATOM     30  C   UNL     1      -7.233 -10.318  17.634  0.00  0.00    +0.058 A 
ATOM     31  C   UNL     1      -8.314 -10.684  18.420  0.00  0.00    +0.025 A 
ATOM     32  C   UNL     1      -9.550 -10.116  18.132  0.00  0.00    +0.003 A 
ATOM     33  C   UNL     1      -8.525  -8.913  16.355  0.00  0.00    +0.111 A 
ATOM     34  C   UNL     1      -9.666  -9.212  17.081  0.00  0.00    +0.020 A 
ENDBRANCH  29  30
ENDBRANCH   5  29
ENDBRANCH  18  21
ENDBRANCH  13  18
TORSDOF 7
ENDMDL
MODEL 7
REMARK VINA RESULT:      -6.7      5.737      7.307
REMARK  Name = 45361464
REMARK  10 active torsions:
REMARK  status: ('A' for Active; 'I' for Inactive)
REMARK    1  A    between atoms: O_1  and  C_10
REMARK    2  A    between atoms: N_4  and  C_14
REMARK    3  A    between atoms: N_5  and  C_29
REMARK    4  A    between atoms: C_7  and  C_17
REMARK    5  A    between atoms: C_9  and  C_19
REMARK    6  A    between atoms: C_13  and  C_18
REMARK    7  A    between atoms: C_18  and  C_20
REMARK    8  A    between atoms: C_18  and  C_21
REMARK    9  A    between atoms: C_22  and  C_23
REMARK   10  A    between atoms: C_29  and  C_30
REMARK                            x       y       z     vdW  Elec       q    Type
REMARK                         _______ _______ _______ _____ _____    ______ ____
ROOT
ATOM      7  C   UNL     1     -11.489  -9.347  13.951  0.00  0.00    -0.027 C 
ATOM      8  C   UNL     1     -11.316  -8.214  15.017  0.00  0.00    +0.028 C 
ATOM      9  C   UNL     1     -10.536  -8.744  16.273  0.00  0.00    +0.012 C 
ATOM     10  C   UNL     1     -12.672  -7.513  15.319  0.00  0.00    +0.122 C 
ATOM     11  C   UNL     1     -12.160  -8.765  12.684  0.00  0.00    +0.007 C 
ATOM     12  C   UNL     1     -10.094  -9.874  13.544  0.00  0.00    +0.009 C 
ATOM     13  C   UNL     1     -13.388  -7.025  14.039  0.00  0.00    +0.029 C 
ATOM     14  C   UNL     1      -9.165  -9.340  15.843  0.00  0.00    +0.076 C 
ATOM     15  C   UNL     1     -13.506  -8.112  12.971  0.00  0.00    +0.007 C 
ATOM     16  C   UNL     1      -9.278 -10.377  14.726  0.00  0.00    +0.023 C 
ATOM     17  C   UNL     1     -12.349 -10.527  14.471  0.00  0.00    +0.011 C 
ATOM     19  C   UNL     1     -10.304  -7.672  17.351  0.00  0.00    +0.010 C 
ENDROOT
BRANCH  14   4
ATOM      3  O   UNL     1      -6.317  -9.257  16.397  0.00  0.00    -0.276 OA
ATOM      4  N   UNL     1      -8.468  -9.942  16.960  0.00  0.00    -0.312 N 
ATOM     22  C   UNL     1      -7.100  -9.845  17.137  0.00  0.00    +0.216 C 
ATOM     35  H   UNL     1      -9.016 -10.500  17.609  0.00  0.00    +0.149 HD
BRANCH  22  23
ATOM     23  C   UNL     1      -6.641 -10.538  18.388  0.00  0.00    +0.075 C 
ATOM     24  C   UNL     1      -7.368 -11.871  18.576  0.00  0.00    +0.013 C 
ATOM     25  C   UNL     1      -5.119 -10.689  18.378  0.00  0.00    +0.013 C 
ATOM     26  C   UNL     1      -6.852 -12.979  17.659  0.00  0.00    +0.001 C 
ATOM     27  C   UNL     1      -4.635 -11.802  17.449  0.00  0.00    +0.001 C 
ATOM     28  C   UNL     1      -5.336 -13.123  17.740  0.00  0.00    +0.000 C 
ENDBRANCH  22  23
ENDBRANCH  14   4
BRANCH  10   1
ATOM      1  O   UNL     1     -12.441  -6.355  16.124  0.00  0.00    -0.391 OA
ATOM     36  H   UNL     1     -13.269  -5.848  16.170  0.00  0.00    +0.210 HD
ENDBRANCH  10   1
BRANCH  13  18
ATOM     18  C   UNL     1     -14.779  -6.456  14.346  0.00  0.00    +0.077 C 
ATOM     20  C   UNL     1     -15.796  -7.585  14.453  0.00  0.00    +0.017 C 
BRANCH  18  21
ATOM      2  O   UNL     1     -16.089  -5.653  12.474  0.00  0.00    -0.276 OA
ATOM      5  N   UNL     1     -14.399  -4.299  13.306  0.00  0.00    -0.309 N 
ATOM     21  C   UNL     1     -15.177  -5.447  13.272  0.00  0.00    +0.217 C 
ATOM     37  H   UNL     1     -13.698  -4.183  14.030  0.00  0.00    +0.149 HD
BRANCH   5  29
ATOM     29  C   UNL     1     -14.585  -3.202  12.385  0.00  0.00    +0.159 C 
BRANCH  29  30
ATOM      6  N   UNL     1     -14.312  -3.265   9.972  0.00  0.00    -0.258 NA
ATOM     30  C   UNL     1     -13.703  -3.326  11.177  0.00  0.00    +0.058 A 
ATOM     31  C   UNL     1     -12.338  -3.492  11.348  0.00  0.00    +0.025 A 
ATOM     32  C   UNL     1     -11.548  -3.603  10.209  0.00  0.00    +0.003 A 
ATOM     33  C   UNL     1     -13.512  -3.375   8.888  0.00  0.00    +0.111 A 
ATOM     34  C   UNL     1     -12.139  -3.544   8.951  0.00  0.00    +0.020 A 
ENDBRANCH  29  30
ENDBRANCH   5  29
ENDBRANCH  18  21
ENDBRANCH  13  18
TORSDOF 7
ENDMDL
MODEL 8
REMARK VINA RESULT:      -6.7      2.678      9.823
REMARK  Name = 45361464
REMARK  10 active torsions:
REMARK  status: ('A' for Active; 'I' for Inactive)
REMARK    1  A    between atoms: O_1  and  C_10
REMARK    2  A    between atoms: N_4  and  C_14
REMARK    3  A    between atoms: N_5  and  C_29
REMARK    4  A    between atoms: C_7  and  C_17
REMARK    5  A    between atoms: C_9  and  C_19
REMARK    6  A    between atoms: C_13  and  C_18
REMARK    7  A    between atoms: C_18  and  C_20
REMARK    8  A    between atoms: C_18  and  C_21
REMARK    9  A    between atoms: C_22  and  C_23
REMARK   10  A    between atoms: C_29  and  C_30
REMARK                            x       y       z     vdW  Elec       q    Type
REMARK                         _______ _______ _______ _____ _____    ______ ____
ROOT
ATOM      7  C   UNL     1      -3.227 -10.376  11.423  0.00  0.00    -0.027 C 
ATOM      8  C   UNL     1      -3.318 -11.780  10.737  0.00  0.00    +0.028 C 
ATOM      9  C   UNL     1      -4.578 -11.865   9.804  0.00  0.00    +0.012 C 
ATOM     10  C   UNL     1      -3.179 -12.926  11.779  0.00  0.00    +0.122 C 
ATOM     11  C   UNL     1      -1.919 -10.286  12.244  0.00  0.00    +0.007 C 
ATOM     12  C   UNL     1      -3.172  -9.283  10.330  0.00  0.00    +0.009 C 
ATOM     13  C   UNL     1      -1.922 -12.774  12.667  0.00  0.00    +0.029 C 
ATOM     14  C   UNL     1      -4.551 -10.717   8.755  0.00  0.00    +0.076 C 
ATOM     15  C   UNL     1      -1.799 -11.385  13.292  0.00  0.00    +0.007 C 
ATOM     16  C   UNL     1      -4.357  -9.333   9.376  0.00  0.00    +0.023 C 
ATOM     17  C   UNL     1      -4.426 -10.096  12.364  0.00  0.00    +0.011 C 
ATOM     19  C   UNL     1      -4.713 -13.212   9.072  0.00  0.00    +0.010 C 
ENDROOT
BRANCH  14   4
ATOM      3  O   UNL     1      -4.757 -11.034   5.877  0.00  0.00    -0.276 OA
ATOM      4  N   UNL     1      -5.755 -10.695   7.952  0.00  0.00    -0.312 N 
ATOM     22  C   UNL     1      -5.749 -10.856   6.579  0.00  0.00    +0.216 C 
ATOM     35  H   UNL     1      -6.632 -10.501   8.427  0.00  0.00    +0.149 HD
BRANCH  22  23
ATOM     23  C   UNL     1      -7.133 -10.817   5.999  0.00  0.00    +0.075 C 
ATOM     24  C   UNL     1      -8.141 -10.280   7.017  0.00  0.00    +0.013 C 
ATOM     25  C   UNL     1      -7.134 -10.025   4.690  0.00  0.00    +0.013 C 
ATOM     26  C   UNL     1      -8.072  -8.765   7.200  0.00  0.00    +0.001 C 
ATOM     27  C   UNL     1      -7.060  -8.514   4.906  0.00  0.00    +0.001 C 
ATOM     28  C   UNL     1      -8.140  -8.028   5.866  0.00  0.00    +0.000 C 
ENDBRANCH  22  23
ENDBRANCH  14   4
BRANCH  10   1
ATOM      1  O   UNL     1      -3.049 -14.176  11.099  0.00  0.00    -0.391 OA
ATOM     36  H   UNL     1      -2.641 -14.813  11.710  0.00  0.00    +0.210 HD
ENDBRANCH  10   1
BRANCH  13  18
ATOM     18  C   UNL     1      -1.874 -13.838  13.771  0.00  0.00    +0.077 C 
ATOM     20  C   UNL     1      -1.149 -15.082  13.271  0.00  0.00    +0.017 C 
BRANCH  18  21
ATOM      2  O   UNL     1      -3.987 -15.018  13.691  0.00  0.00    -0.276 OA
ATOM      5  N   UNL     1      -3.681 -13.405  15.328  0.00  0.00    -0.309 N 
ATOM     21  C   UNL     1      -3.289 -14.168  14.238  0.00  0.00    +0.217 C 
ATOM     37  H   UNL     1      -3.026 -12.759  15.756  0.00  0.00    +0.149 HD
BRANCH   5  29
ATOM     29  C   UNL     1      -4.980 -13.536  15.947  0.00  0.00    +0.159 C 
BRANCH  29  30
ATOM      6  N   UNL     1      -5.833 -11.372  16.649  0.00  0.00    -0.258 NA
ATOM     30  C   UNL     1      -5.198 -12.507  17.018  0.00  0.00    +0.058 A 
ATOM     31  C   UNL     1      -4.751 -12.761  18.305  0.00  0.00    +0.025 A 
ATOM     32  C   UNL     1      -4.969 -11.789  19.275  0.00  0.00    +0.003 A 
ATOM     33  C   UNL     1      -6.028 -10.450  17.618  0.00  0.00    +0.111 A 
ATOM     34  C   UNL     1      -5.620 -10.608  18.932  0.00  0.00    +0.020 A 
ENDBRANCH  29  30
ENDBRANCH   5  29
ENDBRANCH  18  21
ENDBRANCH  13  18
TORSDOF 7
ENDMDL
MODEL 9
REMARK VINA RESULT:      -6.7     24.072     27.258
REMARK  Name = 45361464
REMARK  10 active torsions:
REMARK  status: ('A' for Active; 'I' for Inactive)
REMARK    1  A    between atoms: O_1  and  C_10
REMARK    2  A    between atoms: N_4  and  C_14
REMARK    3  A    between atoms: N_5  and  C_29
REMARK    4  A    between atoms: C_7  and  C_17
REMARK    5  A    between atoms: C_9  and  C_19
REMARK    6  A    between atoms: C_13  and  C_18
REMARK    7  A    between atoms: C_18  and  C_20
REMARK    8  A    between atoms: C_18  and  C_21
REMARK    9  A    between atoms: C_22  and  C_23
REMARK   10  A    between atoms: C_29  and  C_30
REMARK                            x       y       z     vdW  Elec       q    Type
REMARK                         _______ _______ _______ _____ _____    ______ ____
ROOT
ATOM      7  C   UNL     1       9.765   6.517   6.043  0.00  0.00    -0.027 C 
ATOM      8  C   UNL     1      10.224   7.389   4.827  0.00  0.00    +0.028 C 
ATOM      9  C   UNL     1      11.338   6.654   4.001  0.00  0.00    +0.012 C 
ATOM     10  C   UNL     1      10.569   8.840   5.272  0.00  0.00    +0.122 C 
ATOM     11  C   UNL     1       8.592   7.219   6.768  0.00  0.00    +0.007 C 
ATOM     12  C   UNL     1       9.250   5.156   5.522  0.00  0.00    +0.009 C 
ATOM     13  C   UNL     1       9.431   9.499   6.086  0.00  0.00    +0.029 C 
ATOM     14  C   UNL     1      10.836   5.254   3.545  0.00  0.00    +0.076 C 
ATOM     15  C   UNL     1       8.940   8.625   7.239  0.00  0.00    +0.007 C 
ATOM     16  C   UNL     1      10.280   4.407   4.689  0.00  0.00    +0.023 C 
ATOM     17  C   UNL     1      10.906   6.274   7.064  0.00  0.00    +0.011 C 
ATOM     19  C   UNL     1      11.816   7.443   2.770  0.00  0.00    +0.010 C 
ENDROOT
BRANCH  14   4
ATOM      3  O   UNL     1      10.740   4.071   0.895  0.00  0.00    -0.276 OA
ATOM      4  N   UNL     1      11.878   4.500   2.880  0.00  0.00    -0.312 N 
ATOM     22  C   UNL     1      11.735   3.975   1.609  0.00  0.00    +0.216 C 
ATOM     35  H   UNL     1      12.729   4.314   3.403  0.00  0.00    +0.149 HD
BRANCH  22  23
ATOM     23  C   UNL     1      12.974   3.262   1.149  0.00  0.00    +0.075 C 
ATOM     24  C   UNL     1      13.018   3.167  -0.378  0.00  0.00    +0.013 C 
ATOM     25  C   UNL     1      14.217   3.933   1.737  0.00  0.00    +0.013 C 
ATOM     26  C   UNL     1      13.406   4.479  -1.058  0.00  0.00    +0.001 C 
ATOM     27  C   UNL     1      14.575   5.244   1.039  0.00  0.00    +0.001 C 
ATOM     28  C   UNL     1      14.685   5.067  -0.471  0.00  0.00    +0.000 C 
ENDBRANCH  22  23
ENDBRANCH  14   4
BRANCH  10   1
ATOM      1  O   UNL     1      10.772   9.657   4.117  0.00  0.00    -0.391 OA
ATOM     36  H   UNL     1      10.937  10.567   4.416  0.00  0.00    +0.210 HD
ENDBRANCH  10   1
BRANCH  13  18
ATOM     18  C   UNL     1       9.842  10.875   6.625  0.00  0.00    +0.077 C 
ATOM     20  C   UNL     1       8.909  11.951   6.083  0.00  0.00    +0.017 C 
BRANCH  18  21
ATOM      2  O   UNL     1      11.613  11.921   5.348  0.00  0.00    -0.276 OA
ATOM      5  N   UNL     1      12.192  10.479   7.070  0.00  0.00    -0.309 N 
ATOM     21  C   UNL     1      11.296  11.163   6.262  0.00  0.00    +0.217 C 
ATOM     37  H   UNL     1      11.850   9.912   7.839  0.00  0.00    +0.149 HD
BRANCH   5  29
ATOM     29  C   UNL     1      13.624  10.590   6.917  0.00  0.00    +0.159 C 
BRANCH  29  30
ATOM      6  N   UNL     1      14.711   9.859   4.870  0.00  0.00    -0.258 NA
ATOM     30  C   UNL     1      14.183   9.491   6.059  0.00  0.00    +0.058 A 
ATOM     31  C   UNL     1      14.135   8.184   6.514  0.00  0.00    +0.025 A 
ATOM     32  C   UNL     1      14.662   7.190   5.697  0.00  0.00    +0.003 A 
ATOM     33  C   UNL     1      15.215   8.866   4.104  0.00  0.00    +0.111 A 
ATOM     34  C   UNL     1      15.215   7.530   4.467  0.00  0.00    +0.020 A 
ENDBRANCH  29  30
ENDBRANCH   5  29
ENDBRANCH  18  21
ENDBRANCH  13  18
TORSDOF 7
ENDMDL
MODEL 10
REMARK VINA RESULT:      -6.5      3.580      5.722
REMARK  Name = 45361464
REMARK  10 active torsions:
REMARK  status: ('A' for Active; 'I' for Inactive)
REMARK    1  A    between atoms: O_1  and  C_10
REMARK    2  A    between atoms: N_4  and  C_14
REMARK    3  A    between atoms: N_5  and  C_29
REMARK    4  A    between atoms: C_7  and  C_17
REMARK    5  A    between atoms: C_9  and  C_19
REMARK    6  A    between atoms: C_13  and  C_18
REMARK    7  A    between atoms: C_18  and  C_20
REMARK    8  A    between atoms: C_18  and  C_21
REMARK    9  A    between atoms: C_22  and  C_23
REMARK   10  A    between atoms: C_29  and  C_30
REMARK                            x       y       z     vdW  Elec       q    Type
REMARK                         _______ _______ _______ _____ _____    ______ ____
ROOT
ATOM      7  C   UNL     1      -4.209 -11.005  16.226  0.00  0.00    -0.027 C 
ATOM      8  C   UNL     1      -4.876 -10.329  14.982  0.00  0.00    +0.028 C 
ATOM      9  C   UNL     1      -6.430 -10.549  14.993  0.00  0.00    +0.012 C 
ATOM     10  C   UNL     1      -4.152 -10.733  13.665  0.00  0.00    +0.122 C 
ATOM     11  C   UNL     1      -2.697 -10.675  16.245  0.00  0.00    +0.007 C 
ATOM     12  C   UNL     1      -4.834 -10.421  17.513  0.00  0.00    +0.009 C 
ATOM     13  C   UNL     1      -2.625 -10.497  13.728  0.00  0.00    +0.029 C 
ATOM     14  C   UNL     1      -7.039 -10.025  16.325  0.00  0.00    +0.076 C 
ATOM     15  C   UNL     1      -1.979 -11.105  14.972  0.00  0.00    +0.007 C 
ATOM     16  C   UNL     1      -6.347 -10.581  17.569  0.00  0.00    +0.023 C 
ATOM     17  C   UNL     1      -4.381 -12.545  16.228  0.00  0.00    +0.011 C 
ATOM     19  C   UNL     1      -7.155  -9.883  13.811  0.00  0.00    +0.010 C 
ENDROOT
BRANCH  14   4
ATOM      3  O   UNL     1      -9.152  -8.243  17.214  0.00  0.00    -0.276 OA
ATOM      4  N   UNL     1      -8.455 -10.316  16.419  0.00  0.00    -0.312 N 
ATOM     22  C   UNL     1      -9.387  -9.394  16.857  0.00  0.00    +0.216 C 
ATOM     35  H   UNL     1      -8.755 -11.261  16.197  0.00  0.00    +0.149 HD
BRANCH  22  23
ATOM     23  C   UNL     1     -10.783  -9.947  16.833  0.00  0.00    +0.075 C 
ATOM     24  C   UNL     1     -10.769 -11.476  16.861  0.00  0.00    +0.013 C 
ATOM     25  C   UNL     1     -11.609  -9.341  17.969  0.00  0.00    +0.013 C 
ATOM     26  C   UNL     1     -10.462 -12.057  18.240  0.00  0.00    +0.001 C 
ATOM     27  C   UNL     1     -11.275  -9.939  19.335  0.00  0.00    +0.001 C 
ATOM     28  C   UNL     1     -11.359 -11.460  19.320  0.00  0.00    +0.000 C 
ENDBRANCH  22  23
ENDBRANCH  14   4
BRANCH  10   1
ATOM      1  O   UNL     1      -4.645  -9.936  12.586  0.00  0.00    -0.391 OA
ATOM     36  H   UNL     1      -4.616  -9.004  12.861  0.00  0.00    +0.210 HD
ENDBRANCH  10   1
BRANCH  13  18
ATOM     18  C   UNL     1      -1.916 -11.022  12.474  0.00  0.00    +0.077 C 
ATOM     20  C   UNL     1      -1.700  -9.889  11.479  0.00  0.00    +0.017 C 
BRANCH  18  21
ATOM      2  O   UNL     1      -2.845 -13.257  12.393  0.00  0.00    -0.276 OA
ATOM      5  N   UNL     1      -3.299 -11.805  10.642  0.00  0.00    -0.309 N 
ATOM     21  C   UNL     1      -2.727 -12.158  11.856  0.00  0.00    +0.217 C 
ATOM     37  H   UNL     1      -3.197 -10.859  10.291  0.00  0.00    +0.149 HD
BRANCH   5  29
ATOM     29  C   UNL     1      -4.110 -12.715   9.867  0.00  0.00    +0.159 C 
BRANCH  29  30
ATOM      6  N   UNL     1      -4.978 -10.912   8.489  0.00  0.00    -0.258 NA
ATOM     30  C   UNL     1      -4.446 -12.155   8.515  0.00  0.00    +0.058 A 
ATOM     31  C   UNL     1      -4.200 -12.917   7.385  0.00  0.00    +0.025 A 
ATOM     32  C   UNL     1      -4.521 -12.369   6.147  0.00  0.00    +0.003 A 
ATOM     33  C   UNL     1      -5.276 -10.413   7.269  0.00  0.00    +0.111 A 
ATOM     34  C   UNL     1      -5.070 -11.092   6.081  0.00  0.00    +0.020 A 
ENDBRANCH  29  30
ENDBRANCH   5  29
ENDBRANCH  18  21
ENDBRANCH  13  18
TORSDOF 7
ENDMDL
