REMARK  Name = 11913381
REMARK  7 active torsions:
REMARK  status: ('A' for Active; 'I' for Inactive)
REMARK    1  A    between atoms: N_4  and  C_10
REMARK    2  A    between atoms: N_4  and  C_14
REMARK    3  A    between atoms: N_5  and  C_11
REMARK    4  A    between atoms: C_14  and  C_15
REMARK    5  A    between atoms: C_15  and  C_17
REMARK    6  A    between atoms: C_17  and  C_18
REMARK    7  A    between atoms: C_19  and  C_24
REMARK                            x       y       z     vdW  Elec       q    Type
REMARK                         _______ _______ _______ _____ _____    ______ ____
ROOT
ATOM      2  O   UNL     1       0.673   1.915   1.939  0.00  0.00    -0.370 OA
ATOM      3  O   UNL     1      -0.212   4.007  -0.171  0.00  0.00    -0.370 OA
ATOM      8  C   UNL     1      -0.676   2.681   0.141  0.00  0.00    +0.168 C 
ATOM      9  C   UNL     1       0.541   1.855   0.508  0.00  0.00    +0.171 C 
ATOM     10  C   UNL     1      -1.507   2.700   1.405  0.00  0.00    +0.111 C 
ATOM     11  C   UNL     1       1.690   2.581  -0.152  0.00  0.00    +0.130 C 
ATOM     12  C   UNL     1      -0.436   2.645   2.483  0.00  0.00    +0.181 C 
ATOM     13  C   UNL     1       1.223   4.025  -0.137  0.00  0.00    +0.185 C 
ENDROOT
BRANCH  11   5
ATOM      5  N   UNL     1       1.850   2.120  -1.514  0.00  0.00    -0.306 N 
ATOM      6  N   UNL     1       3.183   0.303  -0.858  0.00  0.00    -0.214 NA
ATOM      7  N   UNL     1       2.652   0.674  -3.179  0.00  0.00    -0.223 NA
ATOM     16  C   UNL     1       2.583   0.999  -1.861  0.00  0.00    +0.216 A 
ATOM     19  C   UNL     1       3.890  -0.784  -1.232  0.00  0.00    +0.076 A 
ATOM     20  C   UNL     1       3.375  -0.424  -3.482  0.00  0.00    +0.116 A 
ATOM     21  C   UNL     1       4.022  -1.199  -2.541  0.00  0.00    +0.048 A 
ATOM     34  H   UNL     1       1.365   2.600  -2.263  0.00  0.00    +0.149 HD
BRANCH  19  24
ATOM      1  F   UNL     1       3.980  -2.224   3.377  0.00  0.00    -0.205 F 
ATOM     24  C   UNL     1       4.516  -1.508  -0.153  0.00  0.00    +0.003 A 
ATOM     28  C   UNL     1       3.934  -1.517   1.117  0.00  0.00    +0.048 A 
ATOM     29  C   UNL     1       5.707  -2.204  -0.374  0.00  0.00    +0.010 A 
ATOM     30  C   UNL     1       4.540  -2.217   2.160  0.00  0.00    +0.124 A 
ATOM     31  C   UNL     1       6.313  -2.904   0.670  0.00  0.00    +0.003 A 
ATOM     32  C   UNL     1       5.729  -2.911   1.937  0.00  0.00    +0.038 A 
ENDBRANCH  19  24
ENDBRANCH  11   5
BRANCH  10   4
ATOM      4  N   UNL     1      -2.348   1.507   1.484  0.00  0.00    -0.309 NA
ATOM     33  H   UNL     1      -2.786   1.458   2.404  0.00  0.00    +0.122 HD
BRANCH   4  14
ATOM     14  C   UNL     1      -3.376   1.530   0.454  0.00  0.00    +0.081 C 
BRANCH  14  15
ATOM     15  C   UNL     1      -4.269   0.297   0.568  0.00  0.00    +0.020 C 
BRANCH  15  17
ATOM     17  C   UNL     1      -5.371   0.314  -0.495  0.00  0.00    +0.036 C 
BRANCH  17  18
ATOM     18  C   UNL     1      -6.239  -0.916  -0.418  0.00  0.00    -0.047 A 
ATOM     22  C   UNL     1      -5.896  -2.039  -1.157  0.00  0.00    +0.003 A 
ATOM     23  C   UNL     1      -7.367  -0.905   0.388  0.00  0.00    +0.003 A 
ATOM     25  C   UNL     1      -6.699  -3.177  -1.086  0.00  0.00    +0.000 A 
ATOM     26  C   UNL     1      -8.171  -2.044   0.458  0.00  0.00    +0.000 A 
ATOM     27  C   UNL     1      -7.836  -3.180  -0.279  0.00  0.00    +0.000 A 
ENDBRANCH  17  18
ENDBRANCH  15  17
ENDBRANCH  14  15
ENDBRANCH   4  14
ENDBRANCH  10   4
TORSDOF 7
