MODEL 1
REMARK VINA RESULT:      -7.5      0.000      0.000
REMARK  Name = 56774725
REMARK  9 active torsions:
REMARK  status: ('A' for Active; 'I' for Inactive)
REMARK    1  A    between atoms: O_3  and  C_9
REMARK    2  A    between atoms: N_6  and  C_10
REMARK    3  A    between atoms: N_7  and  C_22
REMARK    4  A    between atoms: C_8  and  C_9
REMARK    5  A    between atoms: C_9  and  C_15
REMARK    6  A    between atoms: C_10  and  C_12
REMARK    7  A    between atoms: C_12  and  C_16
REMARK    8  A    between atoms: C_12  and  C_17
REMARK    9  A    between atoms: C_23  and  C_24
REMARK                            x       y       z     vdW  Elec       q    Type
REMARK                         _______ _______ _______ _____ _____    ______ ____
ROOT
ATOM     15  C   UNL     1      15.643   6.544  19.982  0.00  0.00    -0.017 A 
ATOM     18  C   UNL     1      16.337   6.016  18.894  0.00  0.00    +0.008 A 
ATOM     19  C   UNL     1      16.325   6.861  21.157  0.00  0.00    +0.008 A 
ATOM     20  C   UNL     1      17.713   5.804  18.981  0.00  0.00    +0.023 A 
ATOM     21  C   UNL     1      17.700   6.650  21.243  0.00  0.00    +0.023 A 
ATOM     22  C   UNL     1      18.394   6.121  20.156  0.00  0.00    +0.034 A 
ENDROOT
BRANCH  22   7
ATOM      5  O   UNL     1      20.603   8.007  20.902  0.00  0.00    -0.269 OA
ATOM      7  N   UNL     1      19.772   5.909  20.243  0.00  0.00    -0.281 N 
ATOM     23  C   UNL     1      20.765   6.831  20.599  0.00  0.00    +0.255 C 
ATOM     29  H   UNL     1      20.079   4.964  20.022  0.00  0.00    +0.155 HD
BRANCH  23  24
ATOM      1  S   UNL     1      23.466   7.383  20.756  0.00  0.00    -0.092 S 
ATOM     24  C   UNL     1      22.151   6.293  20.628  0.00  0.00    +0.074 A 
ATOM     25  C   UNL     1      22.570   4.982  20.565  0.00  0.00    +0.021 A 
ATOM     26  C   UNL     1      23.989   4.871  20.623  0.00  0.00    +0.008 A 
ATOM     27  C   UNL     1      24.601   6.101  20.727  0.00  0.00    +0.046 A 
ENDBRANCH  23  24
ENDBRANCH  22   7
BRANCH  15   9
ATOM      9  C   UNL     1      14.155   6.771  19.889  0.00  0.00    +0.167 C 
BRANCH   9   8
ATOM      2  O   UNL     1      14.276   8.299  17.386  0.00  0.00    -0.369 OA
ATOM      4  O   UNL     1      10.696   8.428  17.850  0.00  0.00    -0.273 OA
ATOM      6  N   UNL     1      12.386   8.433  19.452  0.00  0.00    -0.291 N 
ATOM      8  C   UNL     1      13.816   8.256  19.731  0.00  0.00    +0.135 C 
ATOM     11  C   UNL     1      14.646   8.895  18.624  0.00  0.00    +0.185 C 
ATOM     13  C   UNL     1      11.892   8.456  18.149  0.00  0.00    +0.242 C 
ATOM     14  C   UNL     1      12.941   8.611  17.054  0.00  0.00    +0.255 C 
BRANCH   6  10
ATOM     10  C   UNL     1      11.469   8.400  20.584  0.00  0.00    +0.111 C 
BRANCH  10  12
ATOM     12  C   UNL     1      11.861   9.395  21.681  0.00  0.00    +0.000 C 
ATOM     16  C   UNL     1      10.962   9.210  22.903  0.00  0.00    +0.009 C 
ATOM     17  C   UNL     1      11.777  10.841  21.187  0.00  0.00    +0.009 C 
ENDBRANCH  10  12
ENDBRANCH   6  10
ENDBRANCH   9   8
BRANCH   9   3
ATOM      3  O   UNL     1      13.522   6.265  21.059  0.00  0.00    -0.385 OA
ATOM     28  H   UNL     1      13.617   6.917  21.774  0.00  0.00    +0.210 HD
ENDBRANCH   9   3
ENDBRANCH  15   9
TORSDOF 7
ENDMDL
MODEL 2
REMARK VINA RESULT:      -7.1      4.727      7.429
REMARK  Name = 56774725
REMARK  9 active torsions:
REMARK  status: ('A' for Active; 'I' for Inactive)
REMARK    1  A    between atoms: O_3  and  C_9
REMARK    2  A    between atoms: N_6  and  C_10
REMARK    3  A    between atoms: N_7  and  C_22
REMARK    4  A    between atoms: C_8  and  C_9
REMARK    5  A    between atoms: C_9  and  C_15
REMARK    6  A    between atoms: C_10  and  C_12
REMARK    7  A    between atoms: C_12  and  C_16
REMARK    8  A    between atoms: C_12  and  C_17
REMARK    9  A    between atoms: C_23  and  C_24
REMARK                            x       y       z     vdW  Elec       q    Type
REMARK                         _______ _______ _______ _____ _____    ______ ____
ROOT
ATOM     15  C   UNL     1      12.624   9.821  18.355  0.00  0.00    -0.017 A 
ATOM     18  C   UNL     1      13.479  10.901  18.571  0.00  0.00    +0.008 A 
ATOM     19  C   UNL     1      12.661   9.135  17.140  0.00  0.00    +0.008 A 
ATOM     20  C   UNL     1      14.369  11.298  17.572  0.00  0.00    +0.023 A 
ATOM     21  C   UNL     1      13.551   9.532  16.142  0.00  0.00    +0.023 A 
ATOM     22  C   UNL     1      14.405  10.613  16.358  0.00  0.00    +0.034 A 
ENDROOT
BRANCH  22   7
ATOM      5  O   UNL     1      13.882  11.827  13.667  0.00  0.00    -0.269 OA
ATOM      7  N   UNL     1      15.295  11.009  15.359  0.00  0.00    -0.281 N 
ATOM     23  C   UNL     1      14.996  11.575  14.113  0.00  0.00    +0.255 C 
ATOM     29  H   UNL     1      16.280  10.869  15.575  0.00  0.00    +0.155 HD
BRANCH  23  24
ATOM      1  S   UNL     1      17.673  12.243  14.029  0.00  0.00    -0.092 S 
ATOM     24  C   UNL     1      16.172  11.920  13.271  0.00  0.00    +0.074 A 
ATOM     25  C   UNL     1      16.252  12.028  11.900  0.00  0.00    +0.021 A 
ATOM     26  C   UNL     1      17.562  12.379  11.466  0.00  0.00    +0.008 A 
ATOM     27  C   UNL     1      18.435  12.528  12.522  0.00  0.00    +0.046 A 
ENDBRANCH  23  24
ENDBRANCH  22   7
BRANCH  15   9
ATOM      9  C   UNL     1      11.662   9.393  19.433  0.00  0.00    +0.167 C 
BRANCH   9   8
ATOM      2  O   UNL     1      10.476   9.027  22.093  0.00  0.00    -0.369 OA
ATOM      4  O   UNL     1      11.065   5.542  21.351  0.00  0.00    -0.273 OA
ATOM      6  N   UNL     1      12.319   7.406  20.738  0.00  0.00    -0.291 N 
ATOM      8  C   UNL     1      12.393   8.870  20.673  0.00  0.00    +0.135 C 
ATOM     11  C   UNL     1      11.818   9.478  21.947  0.00  0.00    +0.185 C 
ATOM     13  C   UNL     1      11.281   6.754  21.403  0.00  0.00    +0.242 C 
ATOM     14  C   UNL     1      10.432   7.635  22.312  0.00  0.00    +0.255 C 
BRANCH   6  10
ATOM     10  C   UNL     1      13.263   6.647  19.929  0.00  0.00    +0.111 C 
BRANCH  10  12
ATOM     12  C   UNL     1      14.682   7.221  19.996  0.00  0.00    +0.000 C 
ATOM     16  C   UNL     1      15.361   7.103  18.632  0.00  0.00    +0.009 C 
ATOM     17  C   UNL     1      15.525   6.517  21.062  0.00  0.00    +0.009 C 
ENDBRANCH  10  12
ENDBRANCH   6  10
ENDBRANCH   9   8
BRANCH   9   3
ATOM      3  O   UNL     1      10.804   8.376  18.929  0.00  0.00    -0.385 OA
ATOM     28  H   UNL     1      10.606   8.566  17.996  0.00  0.00    +0.210 HD
ENDBRANCH   9   3
ENDBRANCH  15   9
TORSDOF 7
ENDMDL
MODEL 3
REMARK VINA RESULT:      -6.7     27.774     30.499
REMARK  Name = 56774725
REMARK  9 active torsions:
REMARK  status: ('A' for Active; 'I' for Inactive)
REMARK    1  A    between atoms: O_3  and  C_9
REMARK    2  A    between atoms: N_6  and  C_10
REMARK    3  A    between atoms: N_7  and  C_22
REMARK    4  A    between atoms: C_8  and  C_9
REMARK    5  A    between atoms: C_9  and  C_15
REMARK    6  A    between atoms: C_10  and  C_12
REMARK    7  A    between atoms: C_12  and  C_16
REMARK    8  A    between atoms: C_12  and  C_17
REMARK    9  A    between atoms: C_23  and  C_24
REMARK                            x       y       z     vdW  Elec       q    Type
REMARK                         _______ _______ _______ _____ _____    ______ ____
ROOT
ATOM     15  C   UNL     1     -11.944   8.729  20.491  0.00  0.00    -0.017 A 
ATOM     18  C   UNL     1     -11.569   7.386  20.494  0.00  0.00    +0.008 A 
ATOM     19  C   UNL     1     -13.078   9.138  21.194  0.00  0.00    +0.008 A 
ATOM     20  C   UNL     1     -12.328   6.451  21.199  0.00  0.00    +0.023 A 
ATOM     21  C   UNL     1     -13.836   8.204  21.898  0.00  0.00    +0.023 A 
ATOM     22  C   UNL     1     -13.461   6.861  21.900  0.00  0.00    +0.034 A 
ENDROOT
BRANCH  22   7
ATOM      5  O   UNL     1     -15.710   5.103  20.982  0.00  0.00    -0.269 OA
ATOM      7  N   UNL     1     -14.221   5.925  22.605  0.00  0.00    -0.281 N 
ATOM     23  C   UNL     1     -15.266   5.126  22.125  0.00  0.00    +0.255 C 
ATOM     29  H   UNL     1     -13.974   5.817  23.587  0.00  0.00    +0.155 HD
BRANCH  23  24
ATOM      1  S   UNL     1     -17.383   3.478  22.779  0.00  0.00    -0.092 S 
ATOM     24  C   UNL     1     -15.867   4.198  23.119  0.00  0.00    +0.074 A 
ATOM     25  C   UNL     1     -15.371   3.804  24.342  0.00  0.00    +0.021 A 
ATOM     26  C   UNL     1     -16.246   2.898  25.008  0.00  0.00    +0.008 A 
ATOM     27  C   UNL     1     -17.379   2.635  24.269  0.00  0.00    +0.046 A 
ENDBRANCH  23  24
ENDBRANCH  22   7
BRANCH  15   9
ATOM      9  C   UNL     1     -11.124   9.739  19.729  0.00  0.00    +0.167 C 
BRANCH   9   8
ATOM      2  O   UNL     1     -10.148  11.825  17.909  0.00  0.00    -0.369 OA
ATOM      4  O   UNL     1     -10.336   9.141  15.500  0.00  0.00    -0.273 OA
ATOM      6  N   UNL     1     -11.702   9.562  17.338  0.00  0.00    -0.291 N 
ATOM      8  C   UNL     1     -11.909  10.345  18.562  0.00  0.00    +0.135 C 
ATOM     11  C   UNL     1     -11.509  11.797  18.326  0.00  0.00    +0.185 C 
ATOM     13  C   UNL     1     -10.670   9.854  16.448  0.00  0.00    +0.242 C 
ATOM     14  C   UNL     1      -9.992  11.204  16.652  0.00  0.00    +0.255 C 
BRANCH   6  10
ATOM     10  C   UNL     1     -12.494   8.351  17.171  0.00  0.00    +0.111 C 
BRANCH  10  12
ATOM     12  C   UNL     1     -13.984   8.652  16.974  0.00  0.00    +0.000 C 
ATOM     16  C   UNL     1     -14.797   8.047  18.118  0.00  0.00    +0.009 C 
ATOM     17  C   UNL     1     -14.494   8.119  15.633  0.00  0.00    +0.009 C 
ENDBRANCH  10  12
ENDBRANCH   6  10
ENDBRANCH   9   8
BRANCH   9   3
ATOM      3  O   UNL     1      -9.945   9.117  19.231  0.00  0.00    -0.385 OA
ATOM     28  H   UNL     1      -9.212   9.754  19.273  0.00  0.00    +0.210 HD
ENDBRANCH   9   3
ENDBRANCH  15   9
TORSDOF 7
ENDMDL
MODEL 4
REMARK VINA RESULT:      -6.5     27.644     30.928
REMARK  Name = 56774725
REMARK  9 active torsions:
REMARK  status: ('A' for Active; 'I' for Inactive)
REMARK    1  A    between atoms: O_3  and  C_9
REMARK    2  A    between atoms: N_6  and  C_10
REMARK    3  A    between atoms: N_7  and  C_22
REMARK    4  A    between atoms: C_8  and  C_9
REMARK    5  A    between atoms: C_9  and  C_15
REMARK    6  A    between atoms: C_10  and  C_12
REMARK    7  A    between atoms: C_12  and  C_16
REMARK    8  A    between atoms: C_12  and  C_17
REMARK    9  A    between atoms: C_23  and  C_24
REMARK                            x       y       z     vdW  Elec       q    Type
REMARK                         _______ _______ _______ _____ _____    ______ ____
ROOT
ATOM     15  C   UNL     1     -13.059   7.619  19.990  0.00  0.00    -0.017 A 
ATOM     18  C   UNL     1     -14.433   7.413  19.880  0.00  0.00    +0.008 A 
ATOM     19  C   UNL     1     -12.307   6.845  20.874  0.00  0.00    +0.008 A 
ATOM     20  C   UNL     1     -15.057   6.435  20.655  0.00  0.00    +0.023 A 
ATOM     21  C   UNL     1     -12.930   5.868  21.649  0.00  0.00    +0.023 A 
ATOM     22  C   UNL     1     -14.305   5.663  21.539  0.00  0.00    +0.034 A 
ENDROOT
BRANCH  22   7
ATOM      5  O   UNL     1     -16.065   5.933  23.952  0.00  0.00    -0.269 OA
ATOM      7  N   UNL     1     -14.929   4.684  22.316  0.00  0.00    -0.281 N 
ATOM     23  C   UNL     1     -15.746   4.866  23.439  0.00  0.00    +0.255 C 
ATOM     29  H   UNL     1     -14.766   3.725  22.016  0.00  0.00    +0.155 HD
BRANCH  23  24
ATOM      1  S   UNL     1     -17.443   2.707  23.160  0.00  0.00    -0.092 S 
ATOM     24  C   UNL     1     -16.291   3.619  24.038  0.00  0.00    +0.074 A 
ATOM     25  C   UNL     1     -16.000   3.048  25.257  0.00  0.00    +0.021 A 
ATOM     26  C   UNL     1     -16.732   1.846  25.474  0.00  0.00    +0.008 A 
ATOM     27  C   UNL     1     -17.556   1.543  24.412  0.00  0.00    +0.046 A 
ENDBRANCH  23  24
ENDBRANCH  22   7
BRANCH  15   9
ATOM      9  C   UNL     1     -12.385   8.676  19.153  0.00  0.00    +0.167 C 
BRANCH   9   8
ATOM      2  O   UNL     1     -10.220  10.362  18.112  0.00  0.00    -0.369 OA
ATOM      4  O   UNL     1     -12.379  13.019  19.263  0.00  0.00    -0.273 OA
ATOM      6  N   UNL     1     -12.048  10.899  20.168  0.00  0.00    -0.291 N 
ATOM      8  C   UNL     1     -11.463   9.565  19.992  0.00  0.00    +0.135 C 
ATOM     11  C   UNL     1     -10.083   9.681  19.354  0.00  0.00    +0.185 C 
ATOM     13  C   UNL     1     -11.791  11.935  19.273  0.00  0.00    +0.242 C 
ATOM     14  C   UNL     1     -10.633  11.696  18.310  0.00  0.00    +0.255 C 
BRANCH   6  10
ATOM     10  C   UNL     1     -13.058  11.060  21.206  0.00  0.00    +0.111 C 
BRANCH  10  12
ATOM     12  C   UNL     1     -12.689  10.322  22.497  0.00  0.00    +0.000 C 
ATOM     16  C   UNL     1     -13.898   9.550  23.024  0.00  0.00    +0.009 C 
ATOM     17  C   UNL     1     -12.176  11.284  23.570  0.00  0.00    +0.009 C 
ENDBRANCH  10  12
ENDBRANCH   6  10
ENDBRANCH   9   8
BRANCH   9   3
ATOM      3  O   UNL     1     -13.373   9.485  18.523  0.00  0.00    -0.385 OA
ATOM     28  H   UNL     1     -14.084   9.667  19.161  0.00  0.00    +0.210 HD
ENDBRANCH   9   3
ENDBRANCH  15   9
TORSDOF 7
ENDMDL
MODEL 5
REMARK VINA RESULT:      -6.2     27.706     30.982
REMARK  Name = 56774725
REMARK  9 active torsions:
REMARK  status: ('A' for Active; 'I' for Inactive)
REMARK    1  A    between atoms: O_3  and  C_9
REMARK    2  A    between atoms: N_6  and  C_10
REMARK    3  A    between atoms: N_7  and  C_22
REMARK    4  A    between atoms: C_8  and  C_9
REMARK    5  A    between atoms: C_9  and  C_15
REMARK    6  A    between atoms: C_10  and  C_12
REMARK    7  A    between atoms: C_12  and  C_16
REMARK    8  A    between atoms: C_12  and  C_17
REMARK    9  A    between atoms: C_23  and  C_24
REMARK                            x       y       z     vdW  Elec       q    Type
REMARK                         _______ _______ _______ _____ _____    ______ ____
ROOT
ATOM     15  C   UNL     1      -5.045 -10.453  16.947  0.00  0.00    -0.017 A 
ATOM     18  C   UNL     1      -5.289 -11.204  18.096  0.00  0.00    +0.008 A 
ATOM     19  C   UNL     1      -6.048  -9.639  16.419  0.00  0.00    +0.008 A 
ATOM     20  C   UNL     1      -6.537 -11.142  18.718  0.00  0.00    +0.023 A 
ATOM     21  C   UNL     1      -7.294  -9.577  17.041  0.00  0.00    +0.023 A 
ATOM     22  C   UNL     1      -7.539 -10.329  18.190  0.00  0.00    +0.034 A 
ENDROOT
BRANCH  22   7
ATOM      5  O   UNL     1      -9.896 -12.171  17.991  0.00  0.00    -0.269 OA
ATOM      7  N   UNL     1      -8.788 -10.267  18.811  0.00  0.00    -0.281 N 
ATOM     23  C   UNL     1      -9.859 -11.160  18.683  0.00  0.00    +0.255 C 
ATOM     29  H   UNL     1      -8.922  -9.474  19.435  0.00  0.00    +0.155 HD
BRANCH  23  24
ATOM      1  S   UNL     1     -11.828 -12.089  20.381  0.00  0.00    -0.092 S 
ATOM     24  C   UNL     1     -11.058 -10.838  19.502  0.00  0.00    +0.074 A 
ATOM     25  C   UNL     1     -11.683  -9.623  19.676  0.00  0.00    +0.021 A 
ATOM     26  C   UNL     1     -12.809  -9.721  20.543  0.00  0.00    +0.008 A 
ATOM     27  C   UNL     1     -13.003 -11.007  20.998  0.00  0.00    +0.046 A 
ENDBRANCH  23  24
ENDBRANCH  22   7
BRANCH  15   9
ATOM      9  C   UNL     1      -3.697 -10.521  16.275  0.00  0.00    +0.167 C 
BRANCH   9   8
ATOM      2  O   UNL     1      -1.453 -11.029  14.452  0.00  0.00    -0.369 OA
ATOM      4  O   UNL     1      -2.762 -14.394  14.545  0.00  0.00    -0.273 OA
ATOM      6  N   UNL     1      -3.907 -12.370  14.656  0.00  0.00    -0.291 N 
ATOM      8  C   UNL     1      -3.816 -10.912  14.799  0.00  0.00    +0.135 C 
ATOM     11  C   UNL     1      -2.635 -10.382  13.993  0.00  0.00    +0.185 C 
ATOM     13  C   UNL     1      -2.772 -13.162  14.499  0.00  0.00    +0.242 C 
ATOM     14  C   UNL     1      -1.489 -12.409  14.164  0.00  0.00    +0.255 C 
BRANCH   6  10
ATOM     10  C   UNL     1      -5.209 -12.987  14.868  0.00  0.00    +0.111 C 
BRANCH  10  12
ATOM     12  C   UNL     1      -6.305 -12.349  14.008  0.00  0.00    +0.000 C 
ATOM     16  C   UNL     1      -7.664 -12.500  14.690  0.00  0.00    +0.009 C 
ATOM     17  C   UNL     1      -6.353 -12.963  12.607  0.00  0.00    +0.009 C 
ENDBRANCH  10  12
ENDBRANCH   6  10
ENDBRANCH   9   8
BRANCH   9   3
ATOM      3  O   UNL     1      -2.877 -11.468  16.948  0.00  0.00    -0.385 OA
ATOM     28  H   UNL     1      -1.954 -11.162  16.920  0.00  0.00    +0.210 HD
ENDBRANCH   9   3
ENDBRANCH  15   9
TORSDOF 7
ENDMDL
MODEL 6
REMARK VINA RESULT:      -6.2     27.799     31.166
REMARK  Name = 56774725
REMARK  9 active torsions:
REMARK  status: ('A' for Active; 'I' for Inactive)
REMARK    1  A    between atoms: O_3  and  C_9
REMARK    2  A    between atoms: N_6  and  C_10
REMARK    3  A    between atoms: N_7  and  C_22
REMARK    4  A    between atoms: C_8  and  C_9
REMARK    5  A    between atoms: C_9  and  C_15
REMARK    6  A    between atoms: C_10  and  C_12
REMARK    7  A    between atoms: C_12  and  C_16
REMARK    8  A    between atoms: C_12  and  C_17
REMARK    9  A    between atoms: C_23  and  C_24
REMARK                            x       y       z     vdW  Elec       q    Type
REMARK                         _______ _______ _______ _____ _____    ______ ____
ROOT
ATOM     15  C   UNL     1      -6.665 -11.297  15.418  0.00  0.00    -0.017 A 
ATOM     18  C   UNL     1      -7.095  -9.983  15.597  0.00  0.00    +0.008 A 
ATOM     19  C   UNL     1      -7.425 -12.354  15.921  0.00  0.00    +0.008 A 
ATOM     20  C   UNL     1      -8.284  -9.724  16.280  0.00  0.00    +0.023 A 
ATOM     21  C   UNL     1      -8.613 -12.095  16.604  0.00  0.00    +0.023 A 
ATOM     22  C   UNL     1      -9.042 -10.781  16.783  0.00  0.00    +0.034 A 
ENDROOT
BRANCH  22   7
ATOM      5  O   UNL     1      -9.596 -10.652  19.727  0.00  0.00    -0.269 OA
ATOM      7  N   UNL     1     -10.231 -10.522  17.468  0.00  0.00    -0.281 N 
ATOM     23  C   UNL     1     -10.436 -10.473  18.853  0.00  0.00    +0.255 C 
ATOM     29  H   UNL     1     -11.041 -10.345  16.877  0.00  0.00    +0.155 HD
BRANCH  23  24
ATOM      1  S   UNL     1     -13.049 -10.006  18.094  0.00  0.00    -0.092 S 
ATOM     24  C   UNL     1     -11.822 -10.143  19.280  0.00  0.00    +0.074 A 
ATOM     25  C   UNL     1     -12.303  -9.916  20.550  0.00  0.00    +0.021 A 
ATOM     26  C   UNL     1     -13.697  -9.626  20.551  0.00  0.00    +0.008 A 
ATOM     27  C   UNL     1     -14.230  -9.642  19.280  0.00  0.00    +0.046 A 
ENDBRANCH  23  24
ENDBRANCH  22   7
BRANCH  15   9
ATOM      9  C   UNL     1      -5.381 -11.577  14.681  0.00  0.00    +0.167 C 
BRANCH   9   8
ATOM      2  O   UNL     1      -2.836 -12.716  13.764  0.00  0.00    -0.369 OA
ATOM      4  O   UNL     1      -1.465 -10.189  15.951  0.00  0.00    -0.273 OA
ATOM      6  N   UNL     1      -3.427 -11.421  16.179  0.00  0.00    -0.291 N 
ATOM      8  C   UNL     1      -4.380 -12.344  15.550  0.00  0.00    +0.135 C 
ATOM     11  C   UNL     1      -3.631 -13.390  14.733  0.00  0.00    +0.185 C 
ATOM     13  C   UNL     1      -2.224 -11.080  15.564  0.00  0.00    +0.242 C 
ATOM     14  C   UNL     1      -1.822 -11.956  14.383  0.00  0.00    +0.255 C 
BRANCH   6  10
ATOM     10  C   UNL     1      -3.859 -10.726  17.384  0.00  0.00    +0.111 C 
BRANCH  10  12
ATOM     12  C   UNL     1      -4.573 -11.656  18.370  0.00  0.00    +0.000 C 
ATOM     16  C   UNL     1      -5.731 -10.920  19.043  0.00  0.00    +0.009 C 
ATOM     17  C   UNL     1      -3.613 -12.198  19.432  0.00  0.00    +0.009 C 
ENDBRANCH  10  12
ENDBRANCH   6  10
ENDBRANCH   9   8
BRANCH   9   3
ATOM      3  O   UNL     1      -4.796 -10.349  14.262  0.00  0.00    -0.385 OA
ATOM     28  H   UNL     1      -3.880 -10.517  13.979  0.00  0.00    +0.210 HD
ENDBRANCH   9   3
ENDBRANCH  15   9
TORSDOF 7
ENDMDL
MODEL 7
REMARK VINA RESULT:      -6.1     15.744     19.037
REMARK  Name = 56774725
REMARK  9 active torsions:
REMARK  status: ('A' for Active; 'I' for Inactive)
REMARK    1  A    between atoms: O_3  and  C_9
REMARK    2  A    between atoms: N_6  and  C_10
REMARK    3  A    between atoms: N_7  and  C_22
REMARK    4  A    between atoms: C_8  and  C_9
REMARK    5  A    between atoms: C_9  and  C_15
REMARK    6  A    between atoms: C_10  and  C_12
REMARK    7  A    between atoms: C_12  and  C_16
REMARK    8  A    between atoms: C_12  and  C_17
REMARK    9  A    between atoms: C_23  and  C_24
REMARK                            x       y       z     vdW  Elec       q    Type
REMARK                         _______ _______ _______ _____ _____    ______ ____
ROOT
ATOM     15  C   UNL     1      11.186   5.877   4.422  0.00  0.00    -0.017 A 
ATOM     18  C   UNL     1      10.537   4.739   3.944  0.00  0.00    +0.008 A 
ATOM     19  C   UNL     1      12.120   6.535   3.621  0.00  0.00    +0.008 A 
ATOM     20  C   UNL     1      10.823   4.257   2.666  0.00  0.00    +0.023 A 
ATOM     21  C   UNL     1      12.406   6.054   2.344  0.00  0.00    +0.023 A 
ATOM     22  C   UNL     1      11.758   4.915   1.867  0.00  0.00    +0.034 A 
ENDROOT
BRANCH  22   7
ATOM      5  O   UNL     1       9.972   4.552  -0.514  0.00  0.00    -0.269 OA
ATOM      7  N   UNL     1      12.045   4.433   0.588  0.00  0.00    -0.281 N 
ATOM     23  C   UNL     1      11.168   4.284  -0.494  0.00  0.00    +0.255 C 
ATOM     29  H   UNL     1      13.015   4.165   0.434  0.00  0.00    +0.155 HD
BRANCH  23  24
ATOM      1  S   UNL     1      12.838   4.780  -2.636  0.00  0.00    -0.092 S 
ATOM     24  C   UNL     1      11.783   3.767  -1.745  0.00  0.00    +0.074 A 
ATOM     25  C   UNL     1      11.630   2.533  -2.337  0.00  0.00    +0.021 A 
ATOM     26  C   UNL     1      12.390   2.417  -3.536  0.00  0.00    +0.008 A 
ATOM     27  C   UNL     1      13.094   3.567  -3.817  0.00  0.00    +0.046 A 
ENDBRANCH  23  24
ENDBRANCH  22   7
BRANCH  15   9
ATOM      9  C   UNL     1      10.877   6.396   5.803  0.00  0.00    +0.167 C 
BRANCH   9   8
ATOM      2  O   UNL     1       9.560   7.341   8.250  0.00  0.00    -0.369 OA
ATOM      4  O   UNL     1       9.829  10.537   6.591  0.00  0.00    -0.273 OA
ATOM      6  N   UNL     1       9.485   8.428   5.667  0.00  0.00    -0.291 N 
ATOM      8  C   UNL     1       9.463   6.977   5.889  0.00  0.00    +0.135 C 
ATOM     11  C   UNL     1       8.822   6.666   7.237  0.00  0.00    +0.185 C 
ATOM     13  C   UNL     1       9.631   9.328   6.721  0.00  0.00    +0.242 C 
ATOM     14  C   UNL     1       9.441   8.739   8.115  0.00  0.00    +0.255 C 
BRANCH   6  10
ATOM     10  C   UNL     1       9.535   8.897   4.289  0.00  0.00    +0.111 C 
BRANCH  10  12
ATOM     12  C   UNL     1       8.445   8.264   3.417  0.00  0.00    +0.000 C 
ATOM     16  C   UNL     1       9.030   7.844   2.069  0.00  0.00    +0.009 C 
ATOM     17  C   UNL     1       7.269   9.219   3.201  0.00  0.00    +0.009 C 
ENDBRANCH  10  12
ENDBRANCH   6  10
ENDBRANCH   9   8
BRANCH   9   3
ATOM      3  O   UNL     1      11.821   7.401   6.155  0.00  0.00    -0.385 OA
ATOM     28  H   UNL     1      11.483   7.895   6.922  0.00  0.00    +0.210 HD
ENDBRANCH   9   3
ENDBRANCH  15   9
TORSDOF 7
ENDMDL
MODEL 8
REMARK VINA RESULT:      -5.9     15.807     19.148
REMARK  Name = 56774725
REMARK  9 active torsions:
REMARK  status: ('A' for Active; 'I' for Inactive)
REMARK    1  A    between atoms: O_3  and  C_9
REMARK    2  A    between atoms: N_6  and  C_10
REMARK    3  A    between atoms: N_7  and  C_22
REMARK    4  A    between atoms: C_8  and  C_9
REMARK    5  A    between atoms: C_9  and  C_15
REMARK    6  A    between atoms: C_10  and  C_12
REMARK    7  A    between atoms: C_12  and  C_16
REMARK    8  A    between atoms: C_12  and  C_17
REMARK    9  A    between atoms: C_23  and  C_24
REMARK                            x       y       z     vdW  Elec       q    Type
REMARK                         _______ _______ _______ _____ _____    ______ ____
ROOT
ATOM     15  C   UNL     1       9.794   6.152   3.468  0.00  0.00    -0.017 A 
ATOM     18  C   UNL     1       9.799   7.134   2.478  0.00  0.00    +0.008 A 
ATOM     19  C   UNL     1      10.464   4.947   3.257  0.00  0.00    +0.008 A 
ATOM     20  C   UNL     1      10.472   6.911   1.276  0.00  0.00    +0.023 A 
ATOM     21  C   UNL     1      11.136   4.724   2.056  0.00  0.00    +0.023 A 
ATOM     22  C   UNL     1      11.140   5.705   1.065  0.00  0.00    +0.034 A 
ENDROOT
BRANCH  22   7
ATOM      5  O   UNL     1      10.480   3.871  -1.213  0.00  0.00    -0.269 OA
ATOM      7  N   UNL     1      11.813   5.481  -0.137  0.00  0.00    -0.281 N 
ATOM     23  C   UNL     1      11.459   4.608  -1.174  0.00  0.00    +0.255 C 
ATOM     29  H   UNL     1      12.662   6.028  -0.267  0.00  0.00    +0.155 HD
BRANCH  23  24
ATOM      1  S   UNL     1      11.697   4.591  -3.924  0.00  0.00    -0.092 S 
ATOM     24  C   UNL     1      12.369   4.613  -2.349  0.00  0.00    +0.074 A 
ATOM     25  C   UNL     1      13.746   4.633  -2.375  0.00  0.00    +0.021 A 
ATOM     26  C   UNL     1      14.257   4.631  -3.705  0.00  0.00    +0.008 A 
ATOM     27  C   UNL     1      13.250   4.608  -4.646  0.00  0.00    +0.046 A 
ENDBRANCH  23  24
ENDBRANCH  22   7
BRANCH  15   9
ATOM      9  C   UNL     1       9.067   6.394   4.765  0.00  0.00    +0.167 C 
BRANCH   9   8
ATOM      2  O   UNL     1       8.069   7.462   7.310  0.00  0.00    -0.369 OA
ATOM      4  O   UNL     1      11.046   5.872   8.597  0.00  0.00    -0.273 OA
ATOM      6  N   UNL     1      10.705   6.903   6.538  0.00  0.00    -0.291 N 
ATOM      8  C   UNL     1       9.739   7.488   5.600  0.00  0.00    +0.135 C 
ATOM     11  C   UNL     1       8.706   8.310   6.362  0.00  0.00    +0.185 C 
ATOM     13  C   UNL     1      10.336   6.520   7.825  0.00  0.00    +0.242 C 
ATOM     14  C   UNL     1       8.981   7.034   8.298  0.00  0.00    +0.255 C 
BRANCH   6  10
ATOM     10  C   UNL     1      12.024   6.563   6.020  0.00  0.00    +0.111 C 
BRANCH  10  12
ATOM     12  C   UNL     1      12.693   7.743   5.308  0.00  0.00    +0.000 C 
ATOM     16  C   UNL     1      13.355   7.269   4.015  0.00  0.00    +0.009 C 
ATOM     17  C   UNL     1      13.728   8.429   6.203  0.00  0.00    +0.009 C 
ENDBRANCH  10  12
ENDBRANCH   6  10
ENDBRANCH   9   8
BRANCH   9   3
ATOM      3  O   UNL     1       9.024   5.187   5.518  0.00  0.00    -0.385 OA
ATOM     28  H   UNL     1       8.303   4.630   5.179  0.00  0.00    +0.210 HD
ENDBRANCH   9   3
ENDBRANCH  15   9
TORSDOF 7
ENDMDL
MODEL 9
REMARK VINA RESULT:      -5.9     27.579     30.340
REMARK  Name = 56774725
REMARK  9 active torsions:
REMARK  status: ('A' for Active; 'I' for Inactive)
REMARK    1  A    between atoms: O_3  and  C_9
REMARK    2  A    between atoms: N_6  and  C_10
REMARK    3  A    between atoms: N_7  and  C_22
REMARK    4  A    between atoms: C_8  and  C_9
REMARK    5  A    between atoms: C_9  and  C_15
REMARK    6  A    between atoms: C_10  and  C_12
REMARK    7  A    between atoms: C_12  and  C_16
REMARK    8  A    between atoms: C_12  and  C_17
REMARK    9  A    between atoms: C_23  and  C_24
REMARK                            x       y       z     vdW  Elec       q    Type
REMARK                         _______ _______ _______ _____ _____    ______ ____
ROOT
ATOM     15  C   UNL     1      -3.265 -10.594  10.639  0.00  0.00    -0.017 A 
ATOM     18  C   UNL     1      -3.330  -9.242  10.307  0.00  0.00    +0.008 A 
ATOM     19  C   UNL     1      -4.036 -11.522   9.938  0.00  0.00    +0.008 A 
ATOM     20  C   UNL     1      -4.166  -8.816   9.274  0.00  0.00    +0.023 A 
ATOM     21  C   UNL     1      -4.871 -11.097   8.906  0.00  0.00    +0.023 A 
ATOM     22  C   UNL     1      -4.936  -9.744   8.574  0.00  0.00    +0.034 A 
ENDROOT
BRANCH  22   7
ATOM      5  O   UNL     1      -7.697  -8.578   8.671  0.00  0.00    -0.269 OA
ATOM      7  N   UNL     1      -5.773  -9.318   7.541  0.00  0.00    -0.281 N 
ATOM     23  C   UNL     1      -7.061  -8.777   7.642  0.00  0.00    +0.255 C 
ATOM     29  H   UNL     1      -5.387  -9.414   6.603  0.00  0.00    +0.155 HD
BRANCH  23  24
ATOM      1  S   UNL     1      -7.197  -9.175   4.913  0.00  0.00    -0.092 S 
ATOM     24  C   UNL     1      -7.692  -8.390   6.352  0.00  0.00    +0.074 A 
ATOM     25  C   UNL     1      -8.667  -7.446   6.117  0.00  0.00    +0.021 A 
ATOM     26  C   UNL     1      -9.012  -7.366   4.738  0.00  0.00    +0.008 A 
ATOM     27  C   UNL     1      -8.288  -8.251   3.970  0.00  0.00    +0.046 A 
ENDBRANCH  23  24
ENDBRANCH  22   7
BRANCH  15   9
ATOM      9  C   UNL     1      -2.363 -11.054  11.756  0.00  0.00    +0.167 C 
BRANCH   9   8
ATOM      2  O   UNL     1      -1.167 -12.347  14.104  0.00  0.00    -0.369 OA
ATOM      4  O   UNL     1      -3.517 -10.244  15.864  0.00  0.00    -0.273 OA
ATOM      6  N   UNL     1      -3.740 -11.278  13.790  0.00  0.00    -0.291 N 
ATOM      8  C   UNL     1      -3.079 -12.016  12.707  0.00  0.00    +0.135 C 
ATOM     11  C   UNL     1      -2.108 -13.037  13.289  0.00  0.00    +0.185 C 
ATOM     13  C   UNL     1      -3.088 -10.999  14.990  0.00  0.00    +0.242 C 
ATOM     14  C   UNL     1      -1.796 -11.774  15.228  0.00  0.00    +0.255 C 
BRANCH   6  10
ATOM     10  C   UNL     1      -5.037 -10.681  13.504  0.00  0.00    +0.111 C 
BRANCH  10  12
ATOM     12  C   UNL     1      -6.166 -11.716  13.495  0.00  0.00    +0.000 C 
ATOM     16  C   UNL     1      -6.953 -11.624  12.188  0.00  0.00    +0.009 C 
ATOM     17  C   UNL     1      -7.110 -11.533  14.686  0.00  0.00    +0.009 C 
ENDBRANCH  10  12
ENDBRANCH   6  10
ENDBRANCH   9   8
BRANCH   9   3
ATOM      3  O   UNL     1      -1.900  -9.925  12.489  0.00  0.00    -0.385 OA
ATOM     28  H   UNL     1      -2.332  -9.917  13.360  0.00  0.00    +0.210 HD
ENDBRANCH   9   3
ENDBRANCH  15   9
TORSDOF 7
ENDMDL
MODEL 10
REMARK VINA RESULT:      -5.8     15.607     18.893
REMARK  Name = 56774725
REMARK  9 active torsions:
REMARK  status: ('A' for Active; 'I' for Inactive)
REMARK    1  A    between atoms: O_3  and  C_9
REMARK    2  A    between atoms: N_6  and  C_10
REMARK    3  A    between atoms: N_7  and  C_22
REMARK    4  A    between atoms: C_8  and  C_9
REMARK    5  A    between atoms: C_9  and  C_15
REMARK    6  A    between atoms: C_10  and  C_12
REMARK    7  A    between atoms: C_12  and  C_16
REMARK    8  A    between atoms: C_12  and  C_17
REMARK    9  A    between atoms: C_23  and  C_24
REMARK                            x       y       z     vdW  Elec       q    Type
REMARK                         _______ _______ _______ _____ _____    ______ ____
ROOT
ATOM     15  C   UNL     1       9.688   6.532   3.509  0.00  0.00    -0.017 A 
ATOM     18  C   UNL     1       9.582   7.293   2.346  0.00  0.00    +0.008 A 
ATOM     19  C   UNL     1      10.120   5.207   3.438  0.00  0.00    +0.008 A 
ATOM     20  C   UNL     1       9.907   6.730   1.111  0.00  0.00    +0.023 A 
ATOM     21  C   UNL     1      10.444   4.645   2.205  0.00  0.00    +0.023 A 
ATOM     22  C   UNL     1      10.338   5.406   1.041  0.00  0.00    +0.034 A 
ENDROOT
BRANCH  22   7
ATOM      5  O   UNL     1      13.013   4.841  -0.190  0.00  0.00    -0.269 OA
ATOM      7  N   UNL     1      10.662   4.842  -0.194  0.00  0.00    -0.281 N 
ATOM     23  C   UNL     1      11.936   4.598  -0.723  0.00  0.00    +0.255 C 
ATOM     29  H   UNL     1       9.866   4.574  -0.771  0.00  0.00    +0.155 HD
BRANCH  23  24
ATOM      1  S   UNL     1      10.513   3.896  -2.982  0.00  0.00    -0.092 S 
ATOM     24  C   UNL     1      11.957   3.955  -2.063  0.00  0.00    +0.074 A 
ATOM     25  C   UNL     1      13.012   3.363  -2.721  0.00  0.00    +0.021 A 
ATOM     26  C   UNL     1      12.632   2.856  -3.996  0.00  0.00    +0.008 A 
ATOM     27  C   UNL     1      11.299   3.078  -4.265  0.00  0.00    +0.046 A 
ENDBRANCH  23  24
ENDBRANCH  22   7
BRANCH  15   9
ATOM      9  C   UNL     1       9.337   7.140   4.843  0.00  0.00    +0.167 C 
BRANCH   9   8
ATOM      2  O   UNL     1      11.591   8.924   5.434  0.00  0.00    -0.369 OA
ATOM      4  O   UNL     1       9.868   9.274   8.589  0.00  0.00    -0.273 OA
ATOM      6  N   UNL     1      10.019   7.414   7.197  0.00  0.00    -0.291 N 
ATOM      8  C   UNL     1      10.426   6.887   5.889  0.00  0.00    +0.135 C 
ATOM     11  C   UNL     1      11.751   7.510   5.465  0.00  0.00    +0.185 C 
ATOM     13  C   UNL     1      10.322   8.717   7.588  0.00  0.00    +0.242 C 
ATOM     14  C   UNL     1      11.357   9.434   6.728  0.00  0.00    +0.255 C 
BRANCH   6  10
ATOM     10  C   UNL     1       9.127   6.593   8.006  0.00  0.00    +0.111 C 
BRANCH  10  12
ATOM     12  C   UNL     1       9.846   5.394   8.633  0.00  0.00    +0.000 C 
ATOM     16  C   UNL     1       9.850   4.216   7.658  0.00  0.00    +0.009 C 
ATOM     17  C   UNL     1       9.198   4.975   9.954  0.00  0.00    +0.009 C 
ENDBRANCH  10  12
ENDBRANCH   6  10
ENDBRANCH   9   8
BRANCH   9   3
ATOM      3  O   UNL     1       8.105   6.597   5.304  0.00  0.00    -0.385 OA
ATOM     28  H   UNL     1       7.388   7.219   5.095  0.00  0.00    +0.210 HD
ENDBRANCH   9   3
ENDBRANCH  15   9
TORSDOF 7
ENDMDL
