MODEL 1
REMARK VINA RESULT:      -7.4      0.000      0.000
REMARK  Name = 11912117
REMARK  3 active torsions:
REMARK  status: ('A' for Active; 'I' for Inactive)
REMARK    1  A    between atoms: N_7  and  C_18
REMARK    2  A    between atoms: N_8  and  C_26
REMARK    3  A    between atoms: N_9  and  C_29
REMARK                            x       y       z     vdW  Elec       q    Type
REMARK                         _______ _______ _______ _____ _____    ______ ____
ROOT
ATOM      2  O   UNL     1     -16.585   8.835  21.896  0.00  0.00    -0.253 OA
ATOM      3  O   UNL     1     -15.523   3.336  24.175  0.00  0.00    -0.266 OA
ATOM      5  N   UNL     1     -17.367   6.831  21.022  0.00  0.00    -0.285 N 
ATOM      6  N   UNL     1     -17.327   4.480  23.228  0.00  0.00    -0.310 N 
ATOM      7  N   UNL     1     -15.146   7.556  20.650  0.00  0.00    -0.296 N 
ATOM     10  C   UNL     1     -17.871   4.386  20.730  0.00  0.00    +0.027 C 
ATOM     11  C   UNL     1     -19.263   5.743  22.228  0.00  0.00    +0.054 C 
ATOM     12  C   UNL     1     -19.305   4.647  21.168  0.00  0.00    +0.018 C 
ATOM     13  C   UNL     1     -17.230   5.658  20.144  0.00  0.00    +0.114 C 
ATOM     14  C   UNL     1     -18.700   7.031  21.604  0.00  0.00    +0.119 C 
ATOM     15  C   UNL     1     -17.079   3.846  21.928  0.00  0.00    +0.130 C 
ATOM     16  C   UNL     1     -18.418   5.333  23.419  0.00  0.00    +0.027 A 
ATOM     17  C   UNL     1     -16.380   7.811  21.237  0.00  0.00    +0.302 C 
ATOM     19  C   UNL     1     -18.698   5.808  24.644  0.00  0.00    +0.024 A 
ATOM     20  C   UNL     1     -16.482   4.100  24.291  0.00  0.00    +0.273 A 
ATOM     26  C   UNL     1     -16.813   4.671  25.635  0.00  0.00    +0.100 A 
ATOM     27  C   UNL     1     -17.875   5.470  25.772  0.00  0.00    +0.030 A 
ATOM     35  H   UNL     1     -15.032   6.797  19.994  0.00  0.00    +0.151 HD
ENDROOT
BRANCH  26   8
ATOM      4  O   UNL     1     -17.199   2.485  27.414  0.00  0.00    -0.252 OA
ATOM      8  N   UNL     1     -16.010   4.339  26.686  0.00  0.00    -0.265 N 
ATOM      9  N   UNL     1     -15.244   3.179  28.513  0.00  0.00    -0.269 N 
ATOM     28  C   UNL     1     -16.244   3.250  27.536  0.00  0.00    +0.308 C 
ATOM     36  H   UNL     1     -15.360   5.050  27.012  0.00  0.00    +0.157 HD
ATOM     37  H   UNL     1     -14.518   3.891  28.472  0.00  0.00    +0.156 HD
BRANCH   9  29
ATOM      1  F   UNL     1     -14.838   2.147  33.166  0.00  0.00    -0.205 F 
ATOM     29  C   UNL     1     -15.113   2.232  29.555  0.00  0.00    +0.037 A 
ATOM     30  C   UNL     1     -15.039   2.671  30.866  0.00  0.00    +0.061 A 
ATOM     31  C   UNL     1     -15.063   0.883  29.242  0.00  0.00    +0.023 A 
ATOM     32  C   UNL     1     -14.911   1.737  31.894  0.00  0.00    +0.125 A 
ATOM     33  C   UNL     1     -14.935  -0.051  30.269  0.00  0.00    +0.005 A 
ATOM     34  C   UNL     1     -14.859   0.375  31.595  0.00  0.00    +0.038 A 
ENDBRANCH   9  29
ENDBRANCH  26   8
BRANCH   7  18
ATOM     18  C   UNL     1     -14.031   8.469  20.773  0.00  0.00    +0.074 C 
ATOM     21  C   UNL     1     -13.543   8.933  19.396  0.00  0.00    +0.022 C 
ATOM     22  C   UNL     1     -12.892   7.840  21.584  0.00  0.00    +0.022 C 
ATOM     23  C   UNL     1     -12.816   7.826  18.631  0.00  0.00    +0.002 C 
ATOM     24  C   UNL     1     -12.166   6.736  20.814  0.00  0.00    +0.002 C 
ATOM     25  C   UNL     1     -11.681   7.224  19.453  0.00  0.00    +0.000 C 
ENDBRANCH   7  18
TORSDOF 3
ENDMDL
MODEL 2
REMARK VINA RESULT:      -7.4     21.434     24.490
REMARK  Name = 11912117
REMARK  3 active torsions:
REMARK  status: ('A' for Active; 'I' for Inactive)
REMARK    1  A    between atoms: N_7  and  C_18
REMARK    2  A    between atoms: N_8  and  C_26
REMARK    3  A    between atoms: N_9  and  C_29
REMARK                            x       y       z     vdW  Elec       q    Type
REMARK                         _______ _______ _______ _____ _____    ______ ____
ROOT
ATOM      2  O   UNL     1      -2.796 -10.210  15.891  0.00  0.00    -0.253 OA
ATOM      3  O   UNL     1      -6.565 -11.199  11.267  0.00  0.00    -0.266 OA
ATOM      5  N   UNL     1      -3.144 -12.251  14.837  0.00  0.00    -0.285 N 
ATOM      6  N   UNL     1      -4.416 -11.866  11.900  0.00  0.00    -0.310 N 
ATOM      7  N   UNL     1      -4.672 -11.414  16.438  0.00  0.00    -0.296 N 
ATOM     10  C   UNL     1      -3.964 -14.002  13.232  0.00  0.00    +0.027 C 
ATOM     11  C   UNL     1      -2.093 -12.548  12.592  0.00  0.00    +0.054 C 
ATOM     12  C   UNL     1      -2.606 -13.984  12.546  0.00  0.00    +0.018 C 
ATOM     13  C   UNL     1      -3.852 -13.533  14.695  0.00  0.00    +0.114 C 
ATOM     14  C   UNL     1      -1.906 -12.124  14.059  0.00  0.00    +0.119 C 
ATOM     15  C   UNL     1      -4.937 -13.134  12.426  0.00  0.00    +0.130 C 
ATOM     16  C   UNL     1      -3.045 -11.595  11.895  0.00  0.00    +0.027 A 
ATOM     17  C   UNL     1      -3.490 -11.220  15.731  0.00  0.00    +0.302 C 
ATOM     19  C   UNL     1      -2.577 -10.484  11.302  0.00  0.00    +0.024 A 
ATOM     20  C   UNL     1      -5.351 -10.994  11.305  0.00  0.00    +0.273 A 
ATOM     26  C   UNL     1      -4.792  -9.755  10.678  0.00  0.00    +0.100 A 
ATOM     27  C   UNL     1      -3.472  -9.546  10.684  0.00  0.00    +0.030 A 
ATOM     35  H   UNL     1      -5.150 -12.301  16.413  0.00  0.00    +0.151 HD
ENDROOT
BRANCH  26   8
ATOM      4  O   UNL     1      -5.993 -10.019   8.113  0.00  0.00    -0.252 OA
ATOM      8  N   UNL     1      -5.666  -8.877  10.105  0.00  0.00    -0.265 N 
ATOM      9  N   UNL     1      -7.082  -7.983   8.536  0.00  0.00    -0.269 N 
ATOM     28  C   UNL     1      -6.231  -9.053   8.834  0.00  0.00    +0.308 C 
ATOM     36  H   UNL     1      -5.715  -7.947  10.509  0.00  0.00    +0.157 HD
ATOM     37  H   UNL     1      -7.172  -7.262   9.248  0.00  0.00    +0.156 HD
BRANCH   9  29
ATOM      1  F   UNL     1      -7.650  -8.490   3.812  0.00  0.00    -0.205 F 
ATOM     29  C   UNL     1      -7.842  -7.780   7.360  0.00  0.00    +0.037 A 
ATOM     30  C   UNL     1      -7.357  -8.246   6.149  0.00  0.00    +0.061 A 
ATOM     31  C   UNL     1      -9.058  -7.121   7.445  0.00  0.00    +0.023 A 
ATOM     32  C   UNL     1      -8.107  -8.047   4.990  0.00  0.00    +0.125 A 
ATOM     33  C   UNL     1      -9.807  -6.922   6.285  0.00  0.00    +0.005 A 
ATOM     34  C   UNL     1      -9.332  -7.384   5.058  0.00  0.00    +0.038 A 
ENDBRANCH   9  29
ENDBRANCH  26   8
BRANCH   7  18
ATOM     18  C   UNL     1      -5.160 -10.449  17.399  0.00  0.00    +0.074 C 
ATOM     21  C   UNL     1      -5.196 -11.047  18.810  0.00  0.00    +0.022 C 
ATOM     22  C   UNL     1      -6.535  -9.911  16.988  0.00  0.00    +0.022 C 
ATOM     23  C   UNL     1      -6.309 -12.083  18.977  0.00  0.00    +0.002 C 
ATOM     24  C   UNL     1      -7.645 -10.948  17.159  0.00  0.00    +0.002 C 
ATOM     25  C   UNL     1      -7.668 -11.520  18.573  0.00  0.00    +0.000 C 
ENDBRANCH   7  18
TORSDOF 3
ENDMDL
MODEL 3
REMARK VINA RESULT:      -7.4     28.449     31.979
REMARK  Name = 11912117
REMARK  3 active torsions:
REMARK  status: ('A' for Active; 'I' for Inactive)
REMARK    1  A    between atoms: N_7  and  C_18
REMARK    2  A    between atoms: N_8  and  C_26
REMARK    3  A    between atoms: N_9  and  C_29
REMARK                            x       y       z     vdW  Elec       q    Type
REMARK                         _______ _______ _______ _____ _____    ______ ____
ROOT
ATOM      2  O   UNL     1      14.519  10.476  22.268  0.00  0.00    -0.253 OA
ATOM      3  O   UNL     1      11.810   9.422  16.966  0.00  0.00    -0.266 OA
ATOM      5  N   UNL     1      12.610   9.192  21.953  0.00  0.00    -0.285 N 
ATOM      6  N   UNL     1      12.334   8.210  18.894  0.00  0.00    -0.310 N 
ATOM      7  N   UNL     1      12.513  11.556  21.999  0.00  0.00    -0.296 N 
ATOM     10  C   UNL     1      10.714   7.959  20.857  0.00  0.00    +0.027 C 
ATOM     11  C   UNL     1      12.934   6.920  20.972  0.00  0.00    +0.054 C 
ATOM     12  C   UNL     1      11.440   6.647  21.116  0.00  0.00    +0.018 C 
ATOM     13  C   UNL     1      11.149   9.042  21.863  0.00  0.00    +0.114 C 
ATOM     14  C   UNL     1      13.369   7.939  22.038  0.00  0.00    +0.119 C 
ATOM     15  C   UNL     1      10.971   8.388  19.407  0.00  0.00    +0.130 C 
ATOM     16  C   UNL     1      13.273   7.441  19.588  0.00  0.00    +0.027 A 
ATOM     17  C   UNL     1      13.300  10.412  22.084  0.00  0.00    +0.302 C 
ATOM     19  C   UNL     1      14.476   7.191  19.046  0.00  0.00    +0.024 A 
ATOM     20  C   UNL     1      12.610   8.757  17.624  0.00  0.00    +0.273 A 
ATOM     26  C   UNL     1      13.971   8.476  17.065  0.00  0.00    +0.100 A 
ATOM     27  C   UNL     1      14.830   7.722  17.759  0.00  0.00    +0.030 A 
ATOM     35  H   UNL     1      11.506  11.492  21.999  0.00  0.00    +0.151 HD
ENDROOT
BRANCH  26   8
ATOM      4  O   UNL     1      15.082  11.050  16.581  0.00  0.00    -0.252 OA
ATOM      8  N   UNL     1      14.283   9.000  15.845  0.00  0.00    -0.265 N 
ATOM      9  N   UNL     1      15.033  10.518  14.295  0.00  0.00    -0.269 N 
ATOM     28  C   UNL     1      14.829  10.277  15.659  0.00  0.00    +0.308 C 
ATOM     36  H   UNL     1      13.876   8.547  15.032  0.00  0.00    +0.157 HD
ATOM     37  H   UNL     1      14.773   9.768  13.658  0.00  0.00    +0.156 HD
BRANCH   9  29
ATOM      1  F   UNL     1      18.734  13.405  13.371  0.00  0.00    -0.205 F 
ATOM     29  C   UNL     1      15.564  11.679  13.688  0.00  0.00    +0.037 A 
ATOM     30  C   UNL     1      16.911  11.968  13.836  0.00  0.00    +0.061 A 
ATOM     31  C   UNL     1      14.725  12.505  12.957  0.00  0.00    +0.023 A 
ATOM     32  C   UNL     1      17.435  13.113  13.237  0.00  0.00    +0.125 A 
ATOM     33  C   UNL     1      15.250  13.651  12.358  0.00  0.00    +0.005 A 
ATOM     34  C   UNL     1      16.604  13.955  12.497  0.00  0.00    +0.038 A 
ENDBRANCH   9  29
ENDBRANCH  26   8
BRANCH   7  18
ATOM     18  C   UNL     1      13.071  12.884  22.120  0.00  0.00    +0.074 C 
ATOM     21  C   UNL     1      12.066  13.848  22.760  0.00  0.00    +0.022 C 
ATOM     22  C   UNL     1      13.554  13.405  20.762  0.00  0.00    +0.022 C 
ATOM     23  C   UNL     1      10.912  14.197  21.819  0.00  0.00    +0.002 C 
ATOM     24  C   UNL     1      12.397  13.755  19.825  0.00  0.00    +0.002 C 
ATOM     25  C   UNL     1      11.416  14.723  20.479  0.00  0.00    +0.000 C 
ENDBRANCH   7  18
TORSDOF 3
ENDMDL
MODEL 4
REMARK VINA RESULT:      -7.3     31.373     35.849
REMARK  Name = 11912117
REMARK  3 active torsions:
REMARK  status: ('A' for Active; 'I' for Inactive)
REMARK    1  A    between atoms: N_7  and  C_18
REMARK    2  A    between atoms: N_8  and  C_26
REMARK    3  A    between atoms: N_9  and  C_29
REMARK                            x       y       z     vdW  Elec       q    Type
REMARK                         _______ _______ _______ _____ _____    ______ ____
ROOT
ATOM      2  O   UNL     1       9.514   8.122   2.907  0.00  0.00    -0.253 OA
ATOM      3  O   UNL     1      13.662   6.662   7.056  0.00  0.00    -0.266 OA
ATOM      5  N   UNL     1       9.098   7.030   4.914  0.00  0.00    -0.285 N 
ATOM      6  N   UNL     1      11.481   7.501   7.035  0.00  0.00    -0.310 N 
ATOM      7  N   UNL     1       9.970   5.878   3.040  0.00  0.00    -0.296 N 
ATOM     10  C   UNL     1       9.417   5.997   7.182  0.00  0.00    +0.027 C 
ATOM     11  C   UNL     1       9.140   8.427   6.982  0.00  0.00    +0.054 C 
ATOM     12  C   UNL     1       8.743   7.209   7.810  0.00  0.00    +0.018 C 
ATOM     13  C   UNL     1       8.967   5.807   5.721  0.00  0.00    +0.114 C 
ATOM     14  C   UNL     1       8.610   8.260   5.548  0.00  0.00    +0.119 C 
ATOM     15  C   UNL     1      10.937   6.162   7.296  0.00  0.00    +0.130 C 
ATOM     16  C   UNL     1      10.644   8.618   6.959  0.00  0.00    +0.027 A 
ATOM     17  C   UNL     1       9.528   7.083   3.574  0.00  0.00    +0.302 C 
ATOM     19  C   UNL     1      11.169   9.849   6.839  0.00  0.00    +0.024 A 
ATOM     20  C   UNL     1      12.885   7.614   6.974  0.00  0.00    +0.273 A 
ATOM     26  C   UNL     1      13.429   9.000   6.814  0.00  0.00    +0.100 A 
ATOM     27  C   UNL     1      12.591  10.040   6.763  0.00  0.00    +0.030 A 
ATOM     35  H   UNL     1       9.840   5.011   3.540  0.00  0.00    +0.151 HD
ENDROOT
BRANCH  26   8
ATOM      4  O   UNL     1      15.003   8.821   4.451  0.00  0.00    -0.252 OA
ATOM      8  N   UNL     1      14.783   9.151   6.737  0.00  0.00    -0.265 N 
ATOM      9  N   UNL     1      16.875   9.256   5.799  0.00  0.00    -0.269 N 
ATOM     28  C   UNL     1      15.514   9.052   5.545  0.00  0.00    +0.308 C 
ATOM     36  H   UNL     1      15.304   9.087   7.607  0.00  0.00    +0.157 HD
ATOM     37  H   UNL     1      17.134   9.442   6.765  0.00  0.00    +0.156 HD
BRANCH   9  29
ATOM      1  F   UNL     1      20.464   6.953   3.630  0.00  0.00    -0.205 F 
ATOM     29  C   UNL     1      17.943   9.240   4.872  0.00  0.00    +0.037 A 
ATOM     30  C   UNL     1      18.685   8.082   4.711  0.00  0.00    +0.061 A 
ATOM     31  C   UNL     1      18.224  10.384   4.142  0.00  0.00    +0.023 A 
ATOM     32  C   UNL     1      19.737   8.066   3.796  0.00  0.00    +0.125 A 
ATOM     33  C   UNL     1      19.277  10.368   3.227  0.00  0.00    +0.005 A 
ATOM     34  C   UNL     1      20.033   9.209   3.054  0.00  0.00    +0.038 A 
ENDBRANCH   9  29
ENDBRANCH  26   8
BRANCH   7  18
ATOM     18  C   UNL     1      10.438   5.766   1.676  0.00  0.00    +0.074 C 
ATOM     21  C   UNL     1      10.533   4.299   1.244  0.00  0.00    +0.022 C 
ATOM     22  C   UNL     1      11.779   6.487   1.494  0.00  0.00    +0.022 C 
ATOM     23  C   UNL     1      11.692   3.565   1.918  0.00  0.00    +0.002 C 
ATOM     24  C   UNL     1      12.936   5.749   2.167  0.00  0.00    +0.002 C 
ATOM     25  C   UNL     1      13.016   4.295   1.713  0.00  0.00    +0.000 C 
ENDBRANCH   7  18
TORSDOF 3
ENDMDL
MODEL 5
REMARK VINA RESULT:      -7.2     15.900     17.210
REMARK  Name = 11912117
REMARK  3 active torsions:
REMARK  status: ('A' for Active; 'I' for Inactive)
REMARK    1  A    between atoms: N_7  and  C_18
REMARK    2  A    between atoms: N_8  and  C_26
REMARK    3  A    between atoms: N_9  and  C_29
REMARK                            x       y       z     vdW  Elec       q    Type
REMARK                         _______ _______ _______ _____ _____    ______ ____
ROOT
ATOM      2  O   UNL     1     -14.914  -4.446  13.765  0.00  0.00    -0.253 OA
ATOM      3  O   UNL     1     -10.708  -8.777  13.437  0.00  0.00    -0.266 OA
ATOM      5  N   UNL     1     -15.229  -6.580  12.904  0.00  0.00    -0.285 N 
ATOM      6  N   UNL     1     -12.979  -8.630  13.966  0.00  0.00    -0.310 N 
ATOM      7  N   UNL     1     -14.169  -4.883  11.640  0.00  0.00    -0.296 N 
ATOM     10  C   UNL     1     -14.830  -8.968  12.234  0.00  0.00    +0.027 C 
ATOM     11  C   UNL     1     -15.420  -8.441  14.557  0.00  0.00    +0.054 C 
ATOM     12  C   UNL     1     -15.672  -9.423  13.417  0.00  0.00    +0.018 C 
ATOM     13  C   UNL     1     -15.217  -7.544  11.793  0.00  0.00    +0.114 C 
ATOM     14  C   UNL     1     -15.890  -7.040  14.131  0.00  0.00    +0.119 C 
ATOM     15  C   UNL     1     -13.348  -9.067  12.614  0.00  0.00    +0.130 C 
ATOM     16  C   UNL     1     -13.953  -8.400  14.942  0.00  0.00    +0.027 A 
ATOM     17  C   UNL     1     -14.778  -5.248  12.836  0.00  0.00    +0.302 C 
ATOM     19  C   UNL     1     -13.592  -8.118  16.204  0.00  0.00    +0.024 A 
ATOM     20  C   UNL     1     -11.601  -8.563  14.257  0.00  0.00    +0.273 A 
ATOM     26  C   UNL     1     -11.240  -8.220  15.669  0.00  0.00    +0.100 A 
ATOM     27  C   UNL     1     -12.206  -8.024  16.571  0.00  0.00    +0.030 A 
ATOM     35  H   UNL     1     -14.197  -5.495  10.838  0.00  0.00    +0.151 HD
ENDROOT
BRANCH  26   8
ATOM      4  O   UNL     1      -9.582 -10.353  16.561  0.00  0.00    -0.252 OA
ATOM      8  N   UNL     1      -9.916  -8.130  15.988  0.00  0.00    -0.265 N 
ATOM      9  N   UNL     1      -7.828  -8.797  16.668  0.00  0.00    -0.269 N 
ATOM     28  C   UNL     1      -9.142  -9.214  16.424  0.00  0.00    +0.308 C 
ATOM     36  H   UNL     1      -9.544  -7.199  16.150  0.00  0.00    +0.157 HD
ATOM     37  H   UNL     1      -7.625  -7.814  16.501  0.00  0.00    +0.156 HD
BRANCH   9  29
ATOM      1  F   UNL     1      -5.690 -11.371  20.087  0.00  0.00    -0.205 F 
ATOM     29  C   UNL     1      -6.739  -9.578  17.119  0.00  0.00    +0.037 A 
ATOM     30  C   UNL     1      -6.758 -10.094  18.403  0.00  0.00    +0.061 A 
ATOM     31  C   UNL     1      -5.674  -9.812  16.263  0.00  0.00    +0.023 A 
ATOM     32  C   UNL     1      -5.685 -10.866  18.847  0.00  0.00    +0.125 A 
ATOM     33  C   UNL     1      -4.600 -10.584  16.707  0.00  0.00    +0.005 A 
ATOM     34  C   UNL     1      -4.605 -11.111  17.999  0.00  0.00    +0.038 A 
ENDBRANCH   9  29
ENDBRANCH  26   8
BRANCH   7  18
ATOM     18  C   UNL     1     -13.659  -3.549  11.412  0.00  0.00    +0.074 C 
ATOM     21  C   UNL     1     -14.255  -2.942  10.137  0.00  0.00    +0.022 C 
ATOM     22  C   UNL     1     -12.127  -3.547  11.365  0.00  0.00    +0.022 C 
ATOM     23  C   UNL     1     -13.703  -3.592   8.867  0.00  0.00    +0.002 C 
ATOM     24  C   UNL     1     -11.579  -4.195  10.093  0.00  0.00    +0.002 C 
ATOM     25  C   UNL     1     -12.178  -3.567   8.839  0.00  0.00    +0.000 C 
ENDBRANCH   7  18
TORSDOF 3
ENDMDL
MODEL 6
REMARK VINA RESULT:      -7.2     31.326     36.412
REMARK  Name = 11912117
REMARK  3 active torsions:
REMARK  status: ('A' for Active; 'I' for Inactive)
REMARK    1  A    between atoms: N_7  and  C_18
REMARK    2  A    between atoms: N_8  and  C_26
REMARK    3  A    between atoms: N_9  and  C_29
REMARK                            x       y       z     vdW  Elec       q    Type
REMARK                         _______ _______ _______ _____ _____    ______ ____
ROOT
ATOM      2  O   UNL     1       9.559   3.916  -2.348  0.00  0.00    -0.253 OA
ATOM      3  O   UNL     1      13.230   7.394   0.968  0.00  0.00    -0.266 OA
ATOM      5  N   UNL     1      11.562   4.846  -3.068  0.00  0.00    -0.285 N 
ATOM      6  N   UNL     1      13.450   5.660  -0.584  0.00  0.00    -0.310 N 
ATOM      7  N   UNL     1       9.576   6.128  -2.959  0.00  0.00    -0.296 N 
ATOM     10  C   UNL     1      13.754   6.074  -3.090  0.00  0.00    +0.027 C 
ATOM     11  C   UNL     1      13.659   3.774  -2.239  0.00  0.00    +0.054 C 
ATOM     12  C   UNL     1      14.483   4.738  -3.087  0.00  0.00    +0.018 C 
ATOM     13  C   UNL     1      12.340   5.933  -3.683  0.00  0.00    +0.114 C 
ATOM     14  C   UNL     1      12.280   3.578  -2.891  0.00  0.00    +0.119 C 
ATOM     15  C   UNL     1      13.722   6.623  -1.658  0.00  0.00    +0.130 C 
ATOM     16  C   UNL     1      13.493   4.284  -0.820  0.00  0.00    +0.027 A 
ATOM     17  C   UNL     1      10.189   4.895  -2.761  0.00  0.00    +0.302 C 
ATOM     19  C   UNL     1      13.360   3.418   0.199  0.00  0.00    +0.024 A 
ATOM     20  C   UNL     1      13.255   6.191   0.708  0.00  0.00    +0.273 A 
ATOM     26  C   UNL     1      13.085   5.193   1.812  0.00  0.00    +0.100 A 
ATOM     27  C   UNL     1      13.149   3.886   1.540  0.00  0.00    +0.030 A 
ATOM     35  H   UNL     1      10.059   6.875  -3.434  0.00  0.00    +0.151 HD
ENDROOT
BRANCH  26   8
ATOM      4  O   UNL     1      10.561   5.586   3.063  0.00  0.00    -0.252 OA
ATOM      8  N   UNL     1      12.879   5.666   3.075  0.00  0.00    -0.265 N 
ATOM      9  N   UNL     1      11.737   6.340   4.949  0.00  0.00    -0.269 N 
ATOM     28  C   UNL     1      11.611   5.842   3.647  0.00  0.00    +0.308 C 
ATOM     36  H   UNL     1      13.659   6.136   3.524  0.00  0.00    +0.157 HD
ATOM     37  H   UNL     1      12.685   6.495   5.286  0.00  0.00    +0.156 HD
BRANCH   9  29
ATOM      1  F   UNL     1       9.144   5.263   8.822  0.00  0.00    -0.205 F 
ATOM     29  C   UNL     1      10.704   6.653   5.862  0.00  0.00    +0.037 A 
ATOM     30  C   UNL     1      10.435   5.784   6.906  0.00  0.00    +0.061 A 
ATOM     31  C   UNL     1       9.983   7.825   5.694  0.00  0.00    +0.023 A 
ATOM     32  C   UNL     1       9.417   6.094   7.808  0.00  0.00    +0.125 A 
ATOM     33  C   UNL     1       8.965   8.134   6.596  0.00  0.00    +0.005 A 
ATOM     34  C   UNL     1       8.682   7.269   7.653  0.00  0.00    +0.038 A 
ENDBRANCH   9  29
ENDBRANCH  26   8
BRANCH   7  18
ATOM     18  C   UNL     1       8.169   6.339  -2.696  0.00  0.00    +0.074 C 
ATOM     21  C   UNL     1       7.328   6.070  -3.948  0.00  0.00    +0.022 C 
ATOM     22  C   UNL     1       7.917   7.748  -2.149  0.00  0.00    +0.022 C 
ATOM     23  C   UNL     1       7.501   7.155  -5.012  0.00  0.00    +0.002 C 
ATOM     24  C   UNL     1       8.089   8.830  -3.215  0.00  0.00    +0.002 C 
ATOM     25  C   UNL     1       7.235   8.547  -4.447  0.00  0.00    +0.000 C 
ENDBRANCH   7  18
TORSDOF 3
ENDMDL
MODEL 7
REMARK VINA RESULT:      -6.9     33.069     36.859
REMARK  Name = 11912117
REMARK  3 active torsions:
REMARK  status: ('A' for Active; 'I' for Inactive)
REMARK    1  A    between atoms: N_7  and  C_18
REMARK    2  A    between atoms: N_8  and  C_26
REMARK    3  A    between atoms: N_9  and  C_29
REMARK                            x       y       z     vdW  Elec       q    Type
REMARK                         _______ _______ _______ _____ _____    ______ ____
ROOT
ATOM      2  O   UNL     1      22.954   5.811  25.218  0.00  0.00    -0.253 OA
ATOM      3  O   UNL     1      19.389   5.083  20.390  0.00  0.00    -0.266 OA
ATOM      5  N   UNL     1      23.629   5.954  23.001  0.00  0.00    -0.285 N 
ATOM      6  N   UNL     1      21.131   6.500  21.035  0.00  0.00    -0.310 N 
ATOM      7  N   UNL     1      23.314   3.863  24.061  0.00  0.00    -0.296 N 
ATOM     10  C   UNL     1      23.583   6.018  20.489  0.00  0.00    +0.027 C 
ATOM     11  C   UNL     1      22.994   8.029  21.766  0.00  0.00    +0.054 C 
ATOM     12  C   UNL     1      23.754   7.530  20.542  0.00  0.00    +0.018 C 
ATOM     13  C   UNL     1      24.143   5.353  21.761  0.00  0.00    +0.114 C 
ATOM     14  C   UNL     1      23.619   7.422  23.033  0.00  0.00    +0.119 C 
ATOM     15  C   UNL     1      22.099   5.695  20.280  0.00  0.00    +0.130 C 
ATOM     16  C   UNL     1      21.522   7.670  21.692  0.00  0.00    +0.027 A 
ATOM     17  C   UNL     1      23.274   5.249  24.166  0.00  0.00    +0.302 C 
ATOM     19  C   UNL     1      20.603   8.456  22.277  0.00  0.00    +0.024 A 
ATOM     20  C   UNL     1      19.782   6.094  20.972  0.00  0.00    +0.273 A 
ATOM     26  C   UNL     1      18.792   6.983  21.658  0.00  0.00    +0.100 A 
ATOM     27  C   UNL     1      19.211   8.101  22.260  0.00  0.00    +0.030 A 
ATOM     35  H   UNL     1      23.717   3.417  23.251  0.00  0.00    +0.151 HD
ENDROOT
BRANCH  26   8
ATOM      4  O   UNL     1      16.663   8.463  20.489  0.00  0.00    -0.252 OA
ATOM      8  N   UNL     1      17.478   6.618  21.633  0.00  0.00    -0.265 N 
ATOM      9  N   UNL     1      15.231   6.739  21.184  0.00  0.00    -0.269 N 
ATOM     28  C   UNL     1      16.464   7.384  21.043  0.00  0.00    +0.308 C 
ATOM     36  H   UNL     1      17.191   5.887  22.278  0.00  0.00    +0.157 HD
ATOM     37  H   UNL     1      15.239   5.844  21.669  0.00  0.00    +0.156 HD
BRANCH   9  29
ATOM      1  F   UNL     1      12.110   7.462  17.631  0.00  0.00    -0.205 F 
ATOM     29  C   UNL     1      13.965   7.176  20.730  0.00  0.00    +0.037 A 
ATOM     30  C   UNL     1      13.663   7.099  19.381  0.00  0.00    +0.061 A 
ATOM     31  C   UNL     1      13.050   7.672  21.647  0.00  0.00    +0.023 A 
ATOM     32  C   UNL     1      12.415   7.530  18.933  0.00  0.00    +0.125 A 
ATOM     33  C   UNL     1      11.802   8.102  21.199  0.00  0.00    +0.005 A 
ATOM     34  C   UNL     1      11.483   8.031  19.843  0.00  0.00    +0.038 A 
ENDBRANCH   9  29
ENDBRANCH  26   8
BRANCH   7  18
ATOM     18  C   UNL     1      22.983   2.997  25.172  0.00  0.00    +0.074 C 
ATOM     21  C   UNL     1      24.174   2.844  26.124  0.00  0.00    +0.022 C 
ATOM     22  C   UNL     1      22.487   1.634  24.678  0.00  0.00    +0.022 C 
ATOM     23  C   UNL     1      25.294   1.991  25.526  0.00  0.00    +0.002 C 
ATOM     24  C   UNL     1      23.609   0.783  24.084  0.00  0.00    +0.002 C 
ATOM     25  C   UNL     1      24.778   0.635  25.053  0.00  0.00    +0.000 C 
ENDBRANCH   7  18
TORSDOF 3
ENDMDL
MODEL 8
REMARK VINA RESULT:      -6.9     31.729     36.649
REMARK  Name = 11912117
REMARK  3 active torsions:
REMARK  status: ('A' for Active; 'I' for Inactive)
REMARK    1  A    between atoms: N_7  and  C_18
REMARK    2  A    between atoms: N_8  and  C_26
REMARK    3  A    between atoms: N_9  and  C_29
REMARK                            x       y       z     vdW  Elec       q    Type
REMARK                         _______ _______ _______ _____ _____    ______ ____
ROOT
ATOM      2  O   UNL     1      13.532   8.856  -0.641  0.00  0.00    -0.253 OA
ATOM      3  O   UNL     1      13.342   3.464   2.089  0.00  0.00    -0.266 OA
ATOM      5  N   UNL     1      14.357   6.866  -1.510  0.00  0.00    -0.285 N 
ATOM      6  N   UNL     1      13.030   4.304  -0.069  0.00  0.00    -0.310 N 
ATOM      7  N   UNL     1      15.565   8.101   0.107  0.00  0.00    -0.296 N 
ATOM     10  C   UNL     1      14.917   4.433  -1.791  0.00  0.00    +0.027 C 
ATOM     11  C   UNL     1      12.675   5.239  -2.381  0.00  0.00    +0.054 C 
ATOM     12  C   UNL     1      13.804   4.313  -2.823  0.00  0.00    +0.018 C 
ATOM     13  C   UNL     1      15.434   5.881  -1.698  0.00  0.00    +0.114 C 
ATOM     14  C   UNL     1      13.183   6.690  -2.374  0.00  0.00    +0.119 C 
ATOM     15  C   UNL     1      14.398   3.921  -0.442  0.00  0.00    +0.130 C 
ATOM     16  C   UNL     1      12.157   4.866  -1.005  0.00  0.00    +0.027 A 
ATOM     17  C   UNL     1      14.421   7.999  -0.677  0.00  0.00    +0.302 C 
ATOM     19  C   UNL     1      10.875   5.098  -0.678  0.00  0.00    +0.024 A 
ATOM     20  C   UNL     1      12.615   3.977   1.238  0.00  0.00    +0.273 A 
ATOM     26  C   UNL     1      11.186   4.276   1.570  0.00  0.00    +0.100 A 
ATOM     27  C   UNL     1      10.383   4.798   0.638  0.00  0.00    +0.030 A 
ATOM     35  H   UNL     1      16.348   7.481  -0.038  0.00  0.00    +0.151 HD
ENDROOT
BRANCH  26   8
ATOM      4  O   UNL     1      10.766   6.151   3.668  0.00  0.00    -0.252 OA
ATOM      8  N   UNL     1      10.748   3.988   2.830  0.00  0.00    -0.265 N 
ATOM      9  N   UNL     1      10.104   4.339   5.005  0.00  0.00    -0.269 N 
ATOM     28  C   UNL     1      10.557   4.951   3.831  0.00  0.00    +0.308 C 
ATOM     36  H   UNL     1      10.799   3.017   3.125  0.00  0.00    +0.157 HD
ATOM     37  H   UNL     1       9.978   3.330   4.972  0.00  0.00    +0.156 HD
BRANCH   9  29
ATOM      1  F   UNL     1       8.293   8.009   7.483  0.00  0.00    -0.205 F 
ATOM     29  C   UNL     1       9.793   4.954   6.240  0.00  0.00    +0.037 A 
ATOM     30  C   UNL     1       9.187   6.199   6.245  0.00  0.00    +0.061 A 
ATOM     31  C   UNL     1      10.101   4.297   7.421  0.00  0.00    +0.023 A 
ATOM     32  C   UNL     1       8.879   6.805   7.463  0.00  0.00    +0.125 A 
ATOM     33  C   UNL     1       9.793   4.903   8.639  0.00  0.00    +0.005 A 
ATOM     34  C   UNL     1       9.182   6.157   8.660  0.00  0.00    +0.038 A 
ENDBRANCH   9  29
ENDBRANCH  26   8
BRANCH   7  18
ATOM     18  C   UNL     1      15.784   9.210   1.009  0.00  0.00    +0.074 C 
ATOM     21  C   UNL     1      17.278   9.515   1.156  0.00  0.00    +0.022 C 
ATOM     22  C   UNL     1      15.134   8.946   2.372  0.00  0.00    +0.022 C 
ATOM     23  C   UNL     1      18.016   8.446   1.963  0.00  0.00    +0.002 C 
ATOM     24  C   UNL     1      15.875   7.879   3.178  0.00  0.00    +0.002 C 
ATOM     25  C   UNL     1      17.358   8.210   3.319  0.00  0.00    +0.000 C 
ENDBRANCH   7  18
TORSDOF 3
ENDMDL
MODEL 9
REMARK VINA RESULT:      -6.9     30.990     35.577
REMARK  Name = 11912117
REMARK  3 active torsions:
REMARK  status: ('A' for Active; 'I' for Inactive)
REMARK    1  A    between atoms: N_7  and  C_18
REMARK    2  A    between atoms: N_8  and  C_26
REMARK    3  A    between atoms: N_9  and  C_29
REMARK                            x       y       z     vdW  Elec       q    Type
REMARK                         _______ _______ _______ _____ _____    ______ ____
ROOT
ATOM      2  O   UNL     1       8.659   9.621   7.056  0.00  0.00    -0.253 OA
ATOM      3  O   UNL     1      12.498   7.061   3.149  0.00  0.00    -0.266 OA
ATOM      5  N   UNL     1       8.634   7.396   6.391  0.00  0.00    -0.285 N 
ATOM      6  N   UNL     1      11.479   6.491   5.174  0.00  0.00    -0.310 N 
ATOM      7  N   UNL     1       7.734   9.102   5.022  0.00  0.00    -0.296 N 
ATOM     10  C   UNL     1       9.262   5.221   5.300  0.00  0.00    +0.027 C 
ATOM     11  C   UNL     1      10.388   5.913   7.368  0.00  0.00    +0.054 C 
ATOM     12  C   UNL     1       9.780   4.718   6.640  0.00  0.00    +0.018 C 
ATOM     13  C   UNL     1       8.196   6.316   5.493  0.00  0.00    +0.114 C 
ATOM     14  C   UNL     1       9.292   6.959   7.629  0.00  0.00    +0.119 C 
ATOM     15  C   UNL     1      10.450   5.719   4.467  0.00  0.00    +0.130 C 
ATOM     16  C   UNL     1      11.518   6.534   6.570  0.00  0.00    +0.027 A 
ATOM     17  C   UNL     1       8.365   8.766   6.214  0.00  0.00    +0.302 C 
ATOM     19  C   UNL     1      12.536   7.145   7.199  0.00  0.00    +0.024 A 
ATOM     20  C   UNL     1      12.479   7.089   4.380  0.00  0.00    +0.273 A 
ATOM     26  C   UNL     1      13.582   7.783   5.119  0.00  0.00    +0.100 A 
ATOM     27  C   UNL     1      13.586   7.784   6.456  0.00  0.00    +0.030 A 
ATOM     35  H   UNL     1       7.365   8.388   4.412  0.00  0.00    +0.151 HD
ENDROOT
BRANCH  26   8
ATOM      4  O   UNL     1      15.950   6.545   4.143  0.00  0.00    -0.252 OA
ATOM      8  N   UNL     1      14.562   8.387   4.387  0.00  0.00    -0.265 N 
ATOM      9  N   UNL     1      16.519   8.623   3.212  0.00  0.00    -0.269 N 
ATOM     28  C   UNL     1      15.713   7.732   3.929  0.00  0.00    +0.308 C 
ATOM     36  H   UNL     1      14.575   9.403   4.386  0.00  0.00    +0.157 HD
ATOM     37  H   UNL     1      16.174   9.577   3.123  0.00  0.00    +0.156 HD
BRANCH   9  29
ATOM      1  F   UNL     1      21.207   7.715   3.497  0.00  0.00    -0.205 F 
ATOM     29  C   UNL     1      17.760   8.361   2.587  0.00  0.00    +0.037 A 
ATOM     30  C   UNL     1      18.886   8.165   3.369  0.00  0.00    +0.061 A 
ATOM     31  C   UNL     1      17.824   8.305   1.204  0.00  0.00    +0.023 A 
ATOM     32  C   UNL     1      20.110   7.906   2.753  0.00  0.00    +0.125 A 
ATOM     33  C   UNL     1      19.048   8.045   0.588  0.00  0.00    +0.005 A 
ATOM     34  C   UNL     1      20.191   7.845   1.362  0.00  0.00    +0.038 A 
ENDBRANCH   9  29
ENDBRANCH  26   8
BRANCH   7  18
ATOM     18  C   UNL     1       7.384  10.467   4.694  0.00  0.00    +0.074 C 
ATOM     21  C   UNL     1       5.888  10.595   4.387  0.00  0.00    +0.022 C 
ATOM     22  C   UNL     1       8.236  10.990   3.532  0.00  0.00    +0.022 C 
ATOM     23  C   UNL     1       5.510   9.960   3.048  0.00  0.00    +0.002 C 
ATOM     24  C   UNL     1       7.854  10.355   2.195  0.00  0.00    +0.002 C 
ATOM     25  C   UNL     1       6.364  10.504   1.907  0.00  0.00    +0.000 C 
ENDBRANCH   7  18
TORSDOF 3
ENDMDL
MODEL 10
REMARK VINA RESULT:      -6.8     31.104     36.641
REMARK  Name = 11912117
REMARK  3 active torsions:
REMARK  status: ('A' for Active; 'I' for Inactive)
REMARK    1  A    between atoms: N_7  and  C_18
REMARK    2  A    between atoms: N_8  and  C_26
REMARK    3  A    between atoms: N_9  and  C_29
REMARK                            x       y       z     vdW  Elec       q    Type
REMARK                         _______ _______ _______ _____ _____    ______ ____
ROOT
ATOM      2  O   UNL     1      10.372   9.075   5.191  0.00  0.00    -0.253 OA
ATOM      3  O   UNL     1      14.790   5.862   2.600  0.00  0.00    -0.266 OA
ATOM      5  N   UNL     1      12.557   8.910   5.959  0.00  0.00    -0.285 N 
ATOM      6  N   UNL     1      14.564   7.951   3.624  0.00  0.00    -0.310 N 
ATOM      7  N   UNL     1      10.979   7.192   6.352  0.00  0.00    -0.296 N 
ATOM     10  C   UNL     1      14.996   8.325   6.117  0.00  0.00    +0.027 C 
ATOM     11  C   UNL     1      14.287  10.206   4.709  0.00  0.00    +0.054 C 
ATOM     12  C   UNL     1      15.346   9.748   5.707  0.00  0.00    +0.018 C 
ATOM     13  C   UNL     1      13.601   8.263   6.769  0.00  0.00    +0.114 C 
ATOM     14  C   UNL     1      12.913  10.220   5.400  0.00  0.00    +0.119 C 
ATOM     15  C   UNL     1      15.093   7.417   4.885  0.00  0.00    +0.130 C 
ATOM     16  C   UNL     1      14.244   9.305   3.490  0.00  0.00    +0.027 A 
ATOM     17  C   UNL     1      11.242   8.436   5.790  0.00  0.00    +0.302 C 
ATOM     19  C   UNL     1      13.876   9.797   2.296  0.00  0.00    +0.024 A 
ATOM     20  C   UNL     1      14.500   7.057   2.535  0.00  0.00    +0.273 A 
ATOM     26  C   UNL     1      14.060   7.640   1.228  0.00  0.00    +0.100 A 
ATOM     27  C   UNL     1      13.780   8.945   1.144  0.00  0.00    +0.030 A 
ATOM     35  H   UNL     1      11.647   6.748   6.963  0.00  0.00    +0.151 HD
ENDROOT
BRANCH  26   8
ATOM      4  O   UNL     1      11.871   5.933   0.609  0.00  0.00    -0.252 OA
ATOM      8  N   UNL     1      13.971   6.806   0.152  0.00  0.00    -0.265 N 
ATOM      9  N   UNL     1      13.082   5.250  -1.282  0.00  0.00    -0.269 N 
ATOM     28  C   UNL     1      12.867   5.982  -0.109  0.00  0.00    +0.308 C 
ATOM     36  H   UNL     1      14.835   6.593  -0.338  0.00  0.00    +0.157 HD
ATOM     37  H   UNL     1      13.964   5.411  -1.763  0.00  0.00    +0.156 HD
BRANCH   9  29
ATOM      1  F   UNL     1       9.038   4.231  -3.627  0.00  0.00    -0.205 F 
ATOM     29  C   UNL     1      12.217   4.311  -1.890  0.00  0.00    +0.037 A 
ATOM     30  C   UNL     1      11.036   4.748  -2.466  0.00  0.00    +0.061 A 
ATOM     31  C   UNL     1      12.570   2.970  -1.898  0.00  0.00    +0.023 A 
ATOM     32  C   UNL     1      10.183   3.822  -3.067  0.00  0.00    +0.125 A 
ATOM     33  C   UNL     1      11.717   2.044  -2.499  0.00  0.00    +0.005 A 
ATOM     34  C   UNL     1      10.524   2.470  -3.083  0.00  0.00    +0.038 A 
ENDBRANCH   9  29
ENDBRANCH  26   8
BRANCH   7  18
ATOM     18  C   UNL     1       9.675   6.571   6.270  0.00  0.00    +0.074 C 
ATOM     21  C   UNL     1       8.728   7.136   7.334  0.00  0.00    +0.022 C 
ATOM     22  C   UNL     1       9.784   5.046   6.376  0.00  0.00    +0.022 C 
ATOM     23  C   UNL     1       9.089   6.668   8.745  0.00  0.00    +0.002 C 
ATOM     24  C   UNL     1      10.142   4.581   7.787  0.00  0.00    +0.002 C 
ATOM     25  C   UNL     1       9.180   5.147   8.827  0.00  0.00    +0.000 C 
ENDBRANCH   7  18
TORSDOF 3
ENDMDL
