MODEL 1
REMARK VINA RESULT:      -7.3      0.000      0.000
REMARK  Name = 40533450
REMARK  4 active torsions:
REMARK  status: ('A' for Active; 'I' for Inactive)
REMARK    1  A    between atoms: O_3  and  C_27
REMARK    2  A    between atoms: O_3  and  C_30
REMARK    3  A    between atoms: C_16  and  C_19
REMARK    4  A    between atoms: C_17  and  C_20
REMARK                            x       y       z     vdW  Elec       q    Type
REMARK                         _______ _______ _______ _____ _____    ______ ____
ROOT
ATOM      1  O   UNL     1      10.619   9.571  21.896  0.00  0.00    -0.267 OA
ATOM      2  O   UNL     1      14.685   6.636  20.949  0.00  0.00    -0.270 OA
ATOM      4  N   UNL     1      14.374   7.977  19.057  0.00  0.00    -0.297 N 
ATOM      5  N   UNL     1      11.953   9.776  19.994  0.00  0.00    -0.311 N 
ATOM      7  C   UNL     1      12.048   7.971  18.177  0.00  0.00    +0.027 C 
ATOM      8  C   UNL     1      13.430   9.998  17.967  0.00  0.00    +0.054 C 
ATOM      9  C   UNL     1      12.403   9.125  17.246  0.00  0.00    +0.018 C 
ATOM     10  C   UNL     1      13.304   7.144  18.508  0.00  0.00    +0.113 C 
ATOM     11  C   UNL     1      11.383   8.540  19.437  0.00  0.00    +0.130 C 
ATOM     12  C   UNL     1      14.699   9.170  18.258  0.00  0.00    +0.117 C 
ATOM     13  C   UNL     1      12.870  10.540  19.268  0.00  0.00    +0.027 A 
ATOM     14  C   UNL     1      13.284  11.726  19.740  0.00  0.00    +0.022 A 
ATOM     15  C   UNL     1      11.452  10.199  21.241  0.00  0.00    +0.259 A 
ATOM     16  C   UNL     1      14.956   7.633  20.280  0.00  0.00    +0.247 C 
ATOM     17  C   UNL     1      11.971  11.510  21.767  0.00  0.00    +0.048 A 
ATOM     18  C   UNL     1      12.829  12.213  21.012  0.00  0.00    +0.015 A 
ENDROOT
BRANCH  17  20
ATOM      6  N   UNL     1      11.807  11.927  25.493  0.00  0.00    -0.263 NA
ATOM     20  C   UNL     1      11.568  12.014  23.089  0.00  0.00    +0.005 A 
ATOM     23  C   UNL     1      10.609  13.014  23.213  0.00  0.00    +0.011 A 
ATOM     24  C   UNL     1      12.131  11.509  24.250  0.00  0.00    +0.119 A 
ATOM     28  C   UNL     1      10.249  13.471  24.476  0.00  0.00    +0.020 A 
ATOM     29  C   UNL     1      10.871  12.900  25.574  0.00  0.00    +0.111 A 
ENDBRANCH  17  20
BRANCH  16  19
ATOM     19  C   UNL     1      15.962   8.538  20.844  0.00  0.00    +0.037 A 
ATOM     21  C   UNL     1      15.562   9.681  21.535  0.00  0.00    +0.016 A 
ATOM     22  C   UNL     1      17.319   8.255  20.689  0.00  0.00    +0.016 A 
ATOM     25  C   UNL     1      16.519  10.542  22.072  0.00  0.00    +0.046 A 
ATOM     26  C   UNL     1      18.276   9.116  21.226  0.00  0.00    +0.046 A 
ATOM     27  C   UNL     1      17.876  10.260  21.917  0.00  0.00    +0.120 A 
BRANCH  27   3
ATOM      3  O   UNL     1      18.810  11.100  22.440  0.00  0.00    -0.495 OA
ATOM     30  C   UNL     1      18.333  12.204  23.210  0.00  0.00    +0.277 C 
ENDBRANCH  27   3
ENDBRANCH  16  19
TORSDOF 3
ENDMDL
MODEL 2
REMARK VINA RESULT:      -7.1      2.764      5.910
REMARK  Name = 40533450
REMARK  4 active torsions:
REMARK  status: ('A' for Active; 'I' for Inactive)
REMARK    1  A    between atoms: O_3  and  C_27
REMARK    2  A    between atoms: O_3  and  C_30
REMARK    3  A    between atoms: C_16  and  C_19
REMARK    4  A    between atoms: C_17  and  C_20
REMARK                            x       y       z     vdW  Elec       q    Type
REMARK                         _______ _______ _______ _____ _____    ______ ____
ROOT
ATOM      1  O   UNL     1      14.140  10.097  16.551  0.00  0.00    -0.267 OA
ATOM      2  O   UNL     1      10.538   8.516  19.803  0.00  0.00    -0.270 OA
ATOM      4  N   UNL     1      12.590   7.844  20.701  0.00  0.00    -0.297 N 
ATOM      5  N   UNL     1      14.596   9.098  18.608  0.00  0.00    -0.311 N 
ATOM      7  C   UNL     1      14.058   6.640  19.096  0.00  0.00    +0.027 C 
ATOM      8  C   UNL     1      15.060   8.048  20.850  0.00  0.00    +0.054 C 
ATOM      9  C   UNL     1      15.211   6.730  20.090  0.00  0.00    +0.018 C 
ATOM     10  C   UNL     1      12.708   6.670  19.836  0.00  0.00    +0.113 C 
ATOM     11  C   UNL     1      14.188   7.786  18.084  0.00  0.00    +0.130 C 
ATOM     12  C   UNL     1      13.723   8.051  21.619  0.00  0.00    +0.117 C 
ATOM     13  C   UNL     1      15.103   9.232  19.903  0.00  0.00    +0.027 A 
ATOM     14  C   UNL     1      15.584  10.414  20.321  0.00  0.00    +0.022 A 
ATOM     15  C   UNL     1      14.548  10.182  17.710  0.00  0.00    +0.259 A 
ATOM     16  C   UNL     1      11.485   8.688  20.569  0.00  0.00    +0.247 C 
ATOM     17  C   UNL     1      15.049  11.505  18.222  0.00  0.00    +0.048 A 
ATOM     18  C   UNL     1      15.551  11.567  19.465  0.00  0.00    +0.015 A 
ENDROOT
BRANCH  17  20
ATOM      6  N   UNL     1      15.995  14.125  15.707  0.00  0.00    -0.263 NA
ATOM     20  C   UNL     1      14.983  12.718  17.393  0.00  0.00    +0.005 A 
ATOM     23  C   UNL     1      13.903  13.590  17.481  0.00  0.00    +0.011 A 
ATOM     24  C   UNL     1      15.994  13.029  16.497  0.00  0.00    +0.119 A 
ATOM     28  C   UNL     1      13.868  14.728  16.683  0.00  0.00    +0.020 A 
ATOM     29  C   UNL     1      14.929  14.948  15.821  0.00  0.00    +0.111 A 
ENDBRANCH  17  20
BRANCH  16  19
ATOM     19  C   UNL     1      11.442   9.903  21.390  0.00  0.00    +0.037 A 
ATOM     21  C   UNL     1      10.878   9.864  22.663  0.00  0.00    +0.016 A 
ATOM     22  C   UNL     1      11.968  11.097  20.895  0.00  0.00    +0.016 A 
ATOM     25  C   UNL     1      10.837  11.019  23.445  0.00  0.00    +0.046 A 
ATOM     26  C   UNL     1      11.928  12.252  21.676  0.00  0.00    +0.046 A 
ATOM     27  C   UNL     1      11.362  12.214  22.950  0.00  0.00    +0.120 A 
BRANCH  27   3
ATOM      3  O   UNL     1      11.322  13.341  23.710  0.00  0.00    -0.495 OA
ATOM     30  C   UNL     1      10.501  13.308  24.878  0.00  0.00    +0.277 C 
ENDBRANCH  27   3
ENDBRANCH  16  19
TORSDOF 3
ENDMDL
MODEL 3
REMARK VINA RESULT:      -6.8     24.660     27.745
REMARK  Name = 40533450
REMARK  4 active torsions:
REMARK  status: ('A' for Active; 'I' for Inactive)
REMARK    1  A    between atoms: O_3  and  C_27
REMARK    2  A    between atoms: O_3  and  C_30
REMARK    3  A    between atoms: C_16  and  C_19
REMARK    4  A    between atoms: C_17  and  C_20
REMARK                            x       y       z     vdW  Elec       q    Type
REMARK                         _______ _______ _______ _____ _____    ______ ____
ROOT
ATOM      1  O   UNL     1     -14.113   8.624  17.977  0.00  0.00    -0.267 OA
ATOM      2  O   UNL     1     -16.624  10.043  22.188  0.00  0.00    -0.270 OA
ATOM      4  N   UNL     1     -15.945   7.831  22.529  0.00  0.00    -0.297 N 
ATOM      5  N   UNL     1     -14.293   7.301  19.889  0.00  0.00    -0.311 N 
ATOM      7  C   UNL     1     -16.518   6.292  20.662  0.00  0.00    +0.027 C 
ATOM      8  C   UNL     1     -14.472   5.908  21.979  0.00  0.00    +0.054 C 
ATOM      9  C   UNL     1     -15.647   5.210  21.294  0.00  0.00    +0.018 C 
ATOM     10  C   UNL     1     -17.037   7.259  21.741  0.00  0.00    +0.113 C 
ATOM     11  C   UNL     1     -15.702   7.014  19.583  0.00  0.00    +0.130 C 
ATOM     12  C   UNL     1     -15.002   6.845  23.085  0.00  0.00    +0.117 C 
ATOM     13  C   UNL     1     -13.657   6.710  20.984  0.00  0.00    +0.027 A 
ATOM     14  C   UNL     1     -12.340   6.887  21.176  0.00  0.00    +0.022 A 
ATOM     15  C   UNL     1     -13.597   8.113  18.972  0.00  0.00    +0.259 A 
ATOM     16  C   UNL     1     -15.838   9.218  22.652  0.00  0.00    +0.247 C 
ATOM     17  C   UNL     1     -12.133   8.332  19.241  0.00  0.00    +0.048 A 
ATOM     18  C   UNL     1     -11.571   7.715  20.291  0.00  0.00    +0.015 A 
ENDROOT
BRANCH  17  20
ATOM      6  N   UNL     1     -10.152   9.564  16.300  0.00  0.00    -0.263 NA
ATOM     20  C   UNL     1     -11.325   9.216  18.385  0.00  0.00    +0.005 A 
ATOM     23  C   UNL     1     -10.969  10.493  18.806  0.00  0.00    +0.011 A 
ATOM     24  C   UNL     1     -10.895   8.803  17.134  0.00  0.00    +0.119 A 
ATOM     28  C   UNL     1     -10.206  11.305  17.975  0.00  0.00    +0.020 A 
ATOM     29  C   UNL     1      -9.826  10.798  16.743  0.00  0.00    +0.111 A 
ENDBRANCH  17  20
BRANCH  16  19
ATOM     19  C   UNL     1     -14.681   9.760  23.373  0.00  0.00    +0.037 A 
ATOM     21  C   UNL     1     -14.737   9.927  24.756  0.00  0.00    +0.016 A 
ATOM     22  C   UNL     1     -13.524  10.107  22.675  0.00  0.00    +0.016 A 
ATOM     25  C   UNL     1     -13.637  10.441  25.443  0.00  0.00    +0.046 A 
ATOM     26  C   UNL     1     -12.424  10.622  23.361  0.00  0.00    +0.046 A 
ATOM     27  C   UNL     1     -12.481  10.789  24.745  0.00  0.00    +0.120 A 
BRANCH  27   3
ATOM      3  O   UNL     1     -11.407  11.292  25.412  0.00  0.00    -0.495 OA
ATOM     30  C   UNL     1     -10.843  10.478  26.441  0.00  0.00    +0.277 C 
ENDBRANCH  27   3
ENDBRANCH  16  19
TORSDOF 3
ENDMDL
MODEL 4
REMARK VINA RESULT:      -6.7      2.707      6.428
REMARK  Name = 40533450
REMARK  4 active torsions:
REMARK  status: ('A' for Active; 'I' for Inactive)
REMARK    1  A    between atoms: O_3  and  C_27
REMARK    2  A    between atoms: O_3  and  C_30
REMARK    3  A    between atoms: C_16  and  C_19
REMARK    4  A    between atoms: C_17  and  C_20
REMARK                            x       y       z     vdW  Elec       q    Type
REMARK                         _______ _______ _______ _____ _____    ______ ____
ROOT
ATOM      1  O   UNL     1      15.301   6.231  21.640  0.00  0.00    -0.267 OA
ATOM      2  O   UNL     1      11.945   7.303  17.948  0.00  0.00    -0.270 OA
ATOM      4  N   UNL     1      11.665   8.936  19.599  0.00  0.00    -0.297 N 
ATOM      5  N   UNL     1      13.954   8.135  21.623  0.00  0.00    -0.311 N 
ATOM      7  C   UNL     1      11.408   8.024  21.898  0.00  0.00    +0.027 C 
ATOM      8  C   UNL     1      12.513  10.199  21.561  0.00  0.00    +0.054 C 
ATOM      9  C   UNL     1      11.549   9.432  22.466  0.00  0.00    +0.018 C 
ATOM     10  C   UNL     1      10.853   8.078  20.463  0.00  0.00    +0.113 C 
ATOM     11  C   UNL     1      12.773   7.327  21.964  0.00  0.00    +0.130 C 
ATOM     12  C   UNL     1      11.929  10.281  20.136  0.00  0.00    +0.117 C 
ATOM     13  C   UNL     1      13.871   9.525  21.513  0.00  0.00    +0.027 A 
ATOM     14  C   UNL     1      14.982  10.255  21.324  0.00  0.00    +0.022 A 
ATOM     15  C   UNL     1      15.181   7.451  21.517  0.00  0.00    +0.259 A 
ATOM     16  C   UNL     1      12.164   8.427  18.397  0.00  0.00    +0.247 C 
ATOM     17  C   UNL     1      16.401   8.291  21.256  0.00  0.00    +0.048 A 
ATOM     18  C   UNL     1      16.264   9.624  21.189  0.00  0.00    +0.015 A 
ENDROOT
BRANCH  17  20
ATOM      6  N   UNL     1      20.093   7.677  21.540  0.00  0.00    -0.263 NA
ATOM     20  C   UNL     1      17.724   7.675  21.061  0.00  0.00    +0.005 A 
ATOM     23  C   UNL     1      17.881   6.554  20.253  0.00  0.00    +0.011 A 
ATOM     24  C   UNL     1      18.852   8.194  21.677  0.00  0.00    +0.119 A 
ATOM     28  C   UNL     1      19.143   5.994  20.089  0.00  0.00    +0.020 A 
ATOM     29  C   UNL     1      20.207   6.588  20.747  0.00  0.00    +0.111 A 
ENDBRANCH  17  20
BRANCH  16  19
ATOM     19  C   UNL     1      13.047   9.283  17.599  0.00  0.00    +0.037 A 
ATOM     21  C   UNL     1      12.713   9.595  16.282  0.00  0.00    +0.016 A 
ATOM     22  C   UNL     1      14.222   9.787  18.158  0.00  0.00    +0.016 A 
ATOM     25  C   UNL     1      13.552  10.410  15.523  0.00  0.00    +0.046 A 
ATOM     26  C   UNL     1      15.062  10.601  17.399  0.00  0.00    +0.046 A 
ATOM     27  C   UNL     1      14.728  10.912  16.081  0.00  0.00    +0.120 A 
BRANCH  27   3
ATOM      3  O   UNL     1      15.548  11.707  15.342  0.00  0.00    -0.495 OA
ATOM     30  C   UNL     1      15.675  11.394  13.954  0.00  0.00    +0.277 C 
ENDBRANCH  27   3
ENDBRANCH  16  19
TORSDOF 3
ENDMDL
MODEL 5
REMARK VINA RESULT:      -6.6     12.147     16.091
REMARK  Name = 40533450
REMARK  4 active torsions:
REMARK  status: ('A' for Active; 'I' for Inactive)
REMARK    1  A    between atoms: O_3  and  C_27
REMARK    2  A    between atoms: O_3  and  C_30
REMARK    3  A    between atoms: C_16  and  C_19
REMARK    4  A    between atoms: C_17  and  C_20
REMARK                            x       y       z     vdW  Elec       q    Type
REMARK                         _______ _______ _______ _____ _____    ______ ____
ROOT
ATOM      1  O   UNL     1      12.457   7.297   3.384  0.00  0.00    -0.267 OA
ATOM      2  O   UNL     1       8.638   9.639   5.830  0.00  0.00    -0.270 OA
ATOM      4  N   UNL     1       9.085   7.673   7.017  0.00  0.00    -0.297 N 
ATOM      5  N   UNL     1      11.562   6.556   5.406  0.00  0.00    -0.311 N 
ATOM      7  C   UNL     1       9.180   5.630   5.602  0.00  0.00    +0.027 C 
ATOM      8  C   UNL     1      10.601   5.797   7.607  0.00  0.00    +0.054 C 
ATOM      9  C   UNL     1       9.734   4.843   6.785  0.00  0.00    +0.018 C 
ATOM     10  C   UNL     1       8.335   6.818   6.097  0.00  0.00    +0.113 C 
ATOM     11  C   UNL     1      10.351   6.082   4.720  0.00  0.00    +0.130 C 
ATOM     12  C   UNL     1       9.735   6.962   8.130  0.00  0.00    +0.117 C 
ATOM     13  C   UNL     1      11.744   6.349   6.776  0.00  0.00    +0.027 A 
ATOM     14  C   UNL     1      12.907   6.677   7.360  0.00  0.00    +0.022 A 
ATOM     15  C   UNL     1      12.565   7.129   4.600  0.00  0.00    +0.259 A 
ATOM     16  C   UNL     1       9.180   9.043   6.760  0.00  0.00    +0.247 C 
ATOM     17  C   UNL     1      13.839   7.531   5.292  0.00  0.00    +0.048 A 
ATOM     18  C   UNL     1      13.967   7.281   6.604  0.00  0.00    +0.015 A 
ENDROOT
BRANCH  17  20
ATOM      6  N   UNL     1      15.861  10.241   3.663  0.00  0.00    -0.263 NA
ATOM     20  C   UNL     1      14.926   8.200   4.559  0.00  0.00    +0.005 A 
ATOM     23  C   UNL     1      16.016   7.482   4.079  0.00  0.00    +0.011 A 
ATOM     24  C   UNL     1      14.897   9.566   4.327  0.00  0.00    +0.119 A 
ATOM     28  C   UNL     1      17.028   8.142   3.391  0.00  0.00    +0.020 A 
ATOM     29  C   UNL     1      16.904   9.510   3.211  0.00  0.00    +0.111 A 
ENDBRANCH  17  20
BRANCH  16  19
ATOM     19  C   UNL     1      10.014   9.856   7.652  0.00  0.00    +0.037 A 
ATOM     21  C   UNL     1      11.363  10.051   7.359  0.00  0.00    +0.016 A 
ATOM     22  C   UNL     1       9.457  10.434   8.793  0.00  0.00    +0.016 A 
ATOM     25  C   UNL     1      12.157  10.823   8.207  0.00  0.00    +0.046 A 
ATOM     26  C   UNL     1      10.250  11.207   9.641  0.00  0.00    +0.046 A 
ATOM     27  C   UNL     1      11.600  11.401   9.348  0.00  0.00    +0.120 A 
BRANCH  27   3
ATOM      3  O   UNL     1      12.373  12.154  10.176  0.00  0.00    -0.495 OA
ATOM     30  C   UNL     1      11.917  12.317  11.520  0.00  0.00    +0.277 C 
ENDBRANCH  27   3
ENDBRANCH  16  19
TORSDOF 3
ENDMDL
MODEL 6
REMARK VINA RESULT:      -6.4     28.227     31.044
REMARK  Name = 40533450
REMARK  4 active torsions:
REMARK  status: ('A' for Active; 'I' for Inactive)
REMARK    1  A    between atoms: O_3  and  C_27
REMARK    2  A    between atoms: O_3  and  C_30
REMARK    3  A    between atoms: C_16  and  C_19
REMARK    4  A    between atoms: C_17  and  C_20
REMARK                            x       y       z     vdW  Elec       q    Type
REMARK                         _______ _______ _______ _____ _____    ______ ____
ROOT
ATOM      1  O   UNL     1     -11.168  -9.356  18.995  0.00  0.00    -0.267 OA
ATOM      2  O   UNL     1      -6.495 -10.999  20.226  0.00  0.00    -0.270 OA
ATOM      4  N   UNL     1      -7.604 -12.812  19.249  0.00  0.00    -0.297 N 
ATOM      5  N   UNL     1     -10.346 -11.466  18.440  0.00  0.00    -0.311 N 
ATOM      7  C   UNL     1      -9.856 -13.262  20.203  0.00  0.00    +0.027 C 
ATOM      8  C   UNL     1      -9.421 -13.726  17.823  0.00  0.00    +0.054 C 
ATOM      9  C   UNL     1     -10.132 -14.247  19.072  0.00  0.00    +0.018 C 
ATOM     10  C   UNL     1      -8.343 -13.156  20.464  0.00  0.00    +0.113 C 
ATOM     11  C   UNL     1     -10.475 -11.906  19.837  0.00  0.00    +0.130 C 
ATOM     12  C   UNL     1      -7.902 -13.662  18.084  0.00  0.00    +0.117 C 
ATOM     13  C   UNL     1      -9.928 -12.349  17.441  0.00  0.00    +0.027 A 
ATOM     14  C   UNL     1      -9.934 -11.964  16.154  0.00  0.00    +0.022 A 
ATOM     15  C   UNL     1     -10.761 -10.153  18.148  0.00  0.00    +0.259 A 
ATOM     16  C   UNL     1      -6.744 -11.711  19.254  0.00  0.00    +0.247 C 
ATOM     17  C   UNL     1     -10.711  -9.735  16.703  0.00  0.00    +0.048 A 
ATOM     18  C   UNL     1     -10.328 -10.635  15.785  0.00  0.00    +0.015 A 
ENDROOT
BRANCH  17  20
ATOM      6  N   UNL     1     -10.322  -6.172  15.589  0.00  0.00    -0.263 NA
ATOM     20  C   UNL     1     -11.058  -8.364  16.294  0.00  0.00    +0.005 A 
ATOM     23  C   UNL     1     -12.383  -7.952  16.216  0.00  0.00    +0.011 A 
ATOM     24  C   UNL     1     -10.073  -7.444  15.972  0.00  0.00    +0.119 A 
ATOM     28  C   UNL     1     -12.680  -6.651  15.824  0.00  0.00    +0.020 A 
ATOM     29  C   UNL     1     -11.623  -5.808  15.525  0.00  0.00    +0.111 A 
ENDBRANCH  17  20
BRANCH  16  19
ATOM     19  C   UNL     1      -6.089 -11.340  17.995  0.00  0.00    +0.037 A 
ATOM     21  C   UNL     1      -4.857 -11.900  17.660  0.00  0.00    +0.016 A 
ATOM     22  C   UNL     1      -6.700 -10.429  17.134  0.00  0.00    +0.016 A 
ATOM     25  C   UNL     1      -4.234 -11.548  16.462  0.00  0.00    +0.046 A 
ATOM     26  C   UNL     1      -6.077 -10.077  15.936  0.00  0.00    +0.046 A 
ATOM     27  C   UNL     1      -4.844 -10.636  15.601  0.00  0.00    +0.120 A 
BRANCH  27   3
ATOM      3  O   UNL     1      -4.237 -10.291  14.433  0.00  0.00    -0.495 OA
ATOM     30  C   UNL     1      -2.873 -10.682  14.271  0.00  0.00    +0.277 C 
ENDBRANCH  27   3
ENDBRANCH  16  19
TORSDOF 3
ENDMDL
MODEL 7
REMARK VINA RESULT:      -6.3     22.620     24.509
REMARK  Name = 40533450
REMARK  4 active torsions:
REMARK  status: ('A' for Active; 'I' for Inactive)
REMARK    1  A    between atoms: O_3  and  C_27
REMARK    2  A    between atoms: O_3  and  C_30
REMARK    3  A    between atoms: C_16  and  C_19
REMARK    4  A    between atoms: C_17  and  C_20
REMARK                            x       y       z     vdW  Elec       q    Type
REMARK                         _______ _______ _______ _____ _____    ______ ____
ROOT
ATOM      1  O   UNL     1       9.515  -9.395  32.500  0.00  0.00    -0.267 OA
ATOM      2  O   UNL     1       9.092  -8.046  37.404  0.00  0.00    -0.270 OA
ATOM      4  N   UNL     1       8.541  -6.155  36.142  0.00  0.00    -0.297 N 
ATOM      5  N   UNL     1       8.710  -7.325  33.213  0.00  0.00    -0.311 N 
ATOM      7  C   UNL     1      10.198  -5.593  34.376  0.00  0.00    +0.027 C 
ATOM      8  C   UNL     1       7.811  -5.112  34.010  0.00  0.00    +0.054 C 
ATOM      9  C   UNL     1       9.225  -4.573  33.794  0.00  0.00    +0.018 C 
ATOM     10  C   UNL     1       9.933  -5.791  35.879  0.00  0.00    +0.113 C 
ATOM     11  C   UNL     1      10.067  -6.904  33.589  0.00  0.00    +0.130 C 
ATOM     12  C   UNL     1       7.543  -5.269  35.521  0.00  0.00    +0.117 C 
ATOM     13  C   UNL     1       7.625  -6.451  33.322  0.00  0.00    +0.027 A 
ATOM     14  C   UNL     1       6.418  -6.811  32.859  0.00  0.00    +0.022 A 
ATOM     15  C   UNL     1       8.578  -8.607  32.645  0.00  0.00    +0.259 A 
ATOM     16  C   UNL     1       8.259  -7.304  36.886  0.00  0.00    +0.247 C 
ATOM     17  C   UNL     1       7.203  -9.002  32.179  0.00  0.00    +0.048 A 
ATOM     18  C   UNL     1       6.207  -8.109  32.284  0.00  0.00    +0.015 A 
ENDROOT
BRANCH  17  20
ATOM      6  N   UNL     1       6.226 -12.622  32.009  0.00  0.00    -0.263 NA
ATOM     20  C   UNL     1       6.938 -10.342  31.633  0.00  0.00    +0.005 A 
ATOM     23  C   UNL     1       7.130 -10.618  30.283  0.00  0.00    +0.011 A 
ATOM     24  C   UNL     1       6.488 -11.370  32.446  0.00  0.00    +0.119 A 
ATOM     28  C   UNL     1       6.870 -11.894  29.796  0.00  0.00    +0.020 A 
ATOM     29  C   UNL     1       6.424 -12.851  30.692  0.00  0.00    +0.111 A 
ENDBRANCH  17  20
BRANCH  16  19
ATOM     19  C   UNL     1       6.854  -7.689  37.054  0.00  0.00    +0.037 A 
ATOM     21  C   UNL     1       6.254  -8.553  36.139  0.00  0.00    +0.016 A 
ATOM     22  C   UNL     1       6.119  -7.191  38.130  0.00  0.00    +0.016 A 
ATOM     25  C   UNL     1       4.918  -8.920  36.299  0.00  0.00    +0.046 A 
ATOM     26  C   UNL     1       4.782  -7.557  38.290  0.00  0.00    +0.046 A 
ATOM     27  C   UNL     1       4.182  -8.422  37.374  0.00  0.00    +0.120 A 
BRANCH  27   3
ATOM      3  O   UNL     1       2.878  -8.778  37.530  0.00  0.00    -0.495 OA
ATOM     30  C   UNL     1       2.417  -9.901  36.778  0.00  0.00    +0.277 C 
ENDBRANCH  27   3
ENDBRANCH  16  19
TORSDOF 3
ENDMDL
MODEL 8
REMARK VINA RESULT:      -6.3     28.158     30.294
REMARK  Name = 40533450
REMARK  4 active torsions:
REMARK  status: ('A' for Active; 'I' for Inactive)
REMARK    1  A    between atoms: O_3  and  C_27
REMARK    2  A    between atoms: O_3  and  C_30
REMARK    3  A    between atoms: C_16  and  C_19
REMARK    4  A    between atoms: C_17  and  C_20
REMARK                            x       y       z     vdW  Elec       q    Type
REMARK                         _______ _______ _______ _____ _____    ______ ____
ROOT
ATOM      1  O   UNL     1      -4.428 -15.005  15.332  0.00  0.00    -0.267 OA
ATOM      2  O   UNL     1      -8.032 -11.601  14.119  0.00  0.00    -0.270 OA
ATOM      4  N   UNL     1      -6.625 -10.559  15.670  0.00  0.00    -0.297 N 
ATOM      5  N   UNL     1      -4.435 -12.798  16.084  0.00  0.00    -0.311 N 
ATOM      7  C   UNL     1      -6.196 -11.904  17.717  0.00  0.00    +0.027 C 
ATOM      8  C   UNL     1      -4.448 -10.400  16.854  0.00  0.00    +0.054 C 
ATOM      9  C   UNL     1      -5.109 -10.918  18.131  0.00  0.00    +0.018 C 
ATOM     10  C   UNL     1      -7.241 -11.207  16.828  0.00  0.00    +0.113 C 
ATOM     11  C   UNL     1      -5.537 -13.095  17.010  0.00  0.00    +0.130 C 
ATOM     12  C   UNL     1      -5.496  -9.669  15.989  0.00  0.00    +0.117 C 
ATOM     13  C   UNL     1      -3.836 -11.535  16.056  0.00  0.00    +0.027 A 
ATOM     14  C   UNL     1      -2.752 -11.319  15.294  0.00  0.00    +0.022 A 
ATOM     15  C   UNL     1      -3.950 -13.870  15.310  0.00  0.00    +0.259 A 
ATOM     16  C   UNL     1      -7.089 -10.857  14.387  0.00  0.00    +0.247 C 
ATOM     17  C   UNL     1      -2.764 -13.584  14.430  0.00  0.00    +0.048 A 
ATOM     18  C   UNL     1      -2.214 -12.361  14.466  0.00  0.00    +0.015 A 
ENDROOT
BRANCH  17  20
ATOM      6  N   UNL     1      -2.215 -15.657  11.349  0.00  0.00    -0.263 NA
ATOM     20  C   UNL     1      -2.217 -14.612  13.529  0.00  0.00    +0.005 A 
ATOM     23  C   UNL     1      -1.226 -15.487  13.958  0.00  0.00    +0.011 A 
ATOM     24  C   UNL     1      -2.673 -14.737  12.226  0.00  0.00    +0.119 A 
ATOM     28  C   UNL     1      -0.728 -16.448  13.083  0.00  0.00    +0.020 A 
ATOM     29  C   UNL     1      -1.252 -16.491  11.802  0.00  0.00    +0.111 A 
ENDBRANCH  17  20
BRANCH  16  19
ATOM     19  C   UNL     1      -6.390 -10.260  13.244  0.00  0.00    +0.037 A 
ATOM     21  C   UNL     1      -6.931  -9.148  12.600  0.00  0.00    +0.016 A 
ATOM     22  C   UNL     1      -5.184 -10.803  12.803  0.00  0.00    +0.016 A 
ATOM     25  C   UNL     1      -6.267  -8.579  11.513  0.00  0.00    +0.046 A 
ATOM     26  C   UNL     1      -4.519 -10.235  11.717  0.00  0.00    +0.046 A 
ATOM     27  C   UNL     1      -5.061  -9.123  11.071  0.00  0.00    +0.120 A 
BRANCH  27   3
ATOM      3  O   UNL     1      -4.412  -8.569  10.012  0.00  0.00    -0.495 OA
ATOM     30  C   UNL     1      -4.442  -9.295   8.782  0.00  0.00    +0.277 C 
ENDBRANCH  27   3
ENDBRANCH  16  19
TORSDOF 3
ENDMDL
MODEL 9
REMARK VINA RESULT:      -6.2     27.911     29.669
REMARK  Name = 40533450
REMARK  4 active torsions:
REMARK  status: ('A' for Active; 'I' for Inactive)
REMARK    1  A    between atoms: O_3  and  C_27
REMARK    2  A    between atoms: O_3  and  C_30
REMARK    3  A    between atoms: C_16  and  C_19
REMARK    4  A    between atoms: C_17  and  C_20
REMARK                            x       y       z     vdW  Elec       q    Type
REMARK                         _______ _______ _______ _____ _____    ______ ____
ROOT
ATOM      1  O   UNL     1      -6.607 -10.265  14.907  0.00  0.00    -0.267 OA
ATOM      2  O   UNL     1      -5.906 -13.936  11.431  0.00  0.00    -0.270 OA
ATOM      4  N   UNL     1      -4.322 -12.276  10.977  0.00  0.00    -0.297 N 
ATOM      5  N   UNL     1      -4.868 -10.267  13.353  0.00  0.00    -0.311 N 
ATOM      7  C   UNL     1      -5.268  -9.980  10.837  0.00  0.00    +0.027 C 
ATOM      8  C   UNL     1      -2.980 -10.311  11.687  0.00  0.00    +0.054 C 
ATOM      9  C   UNL     1      -3.855  -9.405  10.821  0.00  0.00    +0.018 C 
ATOM     10  C   UNL     1      -5.270 -11.412  10.272  0.00  0.00    +0.113 C 
ATOM     11  C   UNL     1      -5.806  -9.924  12.273  0.00  0.00    +0.130 C 
ATOM     12  C   UNL     1      -2.958 -11.733  11.089  0.00  0.00    +0.117 C 
ATOM     13  C   UNL     1      -3.495 -10.369  13.112  0.00  0.00    +0.027 A 
ATOM     14  C   UNL     1      -2.643 -10.560  14.132  0.00  0.00    +0.022 A 
ATOM     15  C   UNL     1      -5.408 -10.382  14.648  0.00  0.00    +0.259 A 
ATOM     16  C   UNL     1      -4.766 -13.482  11.524  0.00  0.00    +0.247 C 
ATOM     17  C   UNL     1      -4.433 -10.644  15.765  0.00  0.00    +0.048 A 
ATOM     18  C   UNL     1      -3.124 -10.704  15.476  0.00  0.00    +0.015 A 
ENDROOT
BRANCH  17  20
ATOM      6  N   UNL     1      -6.547 -10.417  18.858  0.00  0.00    -0.263 NA
ATOM     20  C   UNL     1      -4.894 -10.849  17.147  0.00  0.00    +0.005 A 
ATOM     23  C   UNL     1      -4.167 -11.632  18.037  0.00  0.00    +0.011 A 
ATOM     24  C   UNL     1      -6.067 -10.269  17.603  0.00  0.00    +0.119 A 
ATOM     28  C   UNL     1      -4.629 -11.808  19.337  0.00  0.00    +0.020 A 
ATOM     29  C   UNL     1      -5.813 -11.185  19.695  0.00  0.00    +0.111 A 
ENDBRANCH  17  20
BRANCH  16  19
ATOM     19  C   UNL     1      -3.811 -14.280  12.300  0.00  0.00    +0.037 A 
ATOM     21  C   UNL     1      -3.752 -14.141  13.686  0.00  0.00    +0.016 A 
ATOM     22  C   UNL     1      -2.963 -15.178  11.651  0.00  0.00    +0.016 A 
ATOM     25  C   UNL     1      -2.844 -14.900  14.425  0.00  0.00    +0.046 A 
ATOM     26  C   UNL     1      -2.055 -15.937  12.390  0.00  0.00    +0.046 A 
ATOM     27  C   UNL     1      -1.995 -15.797  13.777  0.00  0.00    +0.120 A 
BRANCH  27   3
ATOM      3  O   UNL     1      -1.109 -16.537  14.496  0.00  0.00    -0.495 OA
ATOM     30  C   UNL     1      -1.561 -17.056  15.747  0.00  0.00    +0.277 C 
ENDBRANCH  27   3
ENDBRANCH  16  19
TORSDOF 3
ENDMDL
MODEL 10
REMARK VINA RESULT:      -6.2     28.655     31.143
REMARK  Name = 40533450
REMARK  4 active torsions:
REMARK  status: ('A' for Active; 'I' for Inactive)
REMARK    1  A    between atoms: O_3  and  C_27
REMARK    2  A    between atoms: O_3  and  C_30
REMARK    3  A    between atoms: C_16  and  C_19
REMARK    4  A    between atoms: C_17  and  C_20
REMARK                            x       y       z     vdW  Elec       q    Type
REMARK                         _______ _______ _______ _____ _____    ______ ____
ROOT
ATOM      1  O   UNL     1      -6.395 -12.863  15.051  0.00  0.00    -0.267 OA
ATOM      2  O   UNL     1     -11.278 -12.111  16.328  0.00  0.00    -0.270 OA
ATOM      4  N   UNL     1     -10.010 -11.641  18.236  0.00  0.00    -0.297 N 
ATOM      5  N   UNL     1      -7.082 -12.007  17.109  0.00  0.00    -0.311 N 
ATOM      7  C   UNL     1      -8.366 -13.411  18.826  0.00  0.00    +0.027 C 
ATOM      8  C   UNL     1      -7.849 -11.051  19.309  0.00  0.00    +0.054 C 
ATOM      9  C   UNL     1      -7.736 -12.475  19.853  0.00  0.00    +0.018 C 
ATOM     10  C   UNL     1      -9.845 -13.046  18.607  0.00  0.00    +0.113 C 
ATOM     11  C   UNL     1      -7.553 -13.335  17.527  0.00  0.00    +0.130 C 
ATOM     12  C   UNL     1      -9.336 -10.684  19.130  0.00  0.00    +0.117 C 
ATOM     13  C   UNL     1      -7.131 -10.916  17.980  0.00  0.00    +0.027 A 
ATOM     14  C   UNL     1      -6.583  -9.742  17.625  0.00  0.00    +0.022 A 
ATOM     15  C   UNL     1      -6.488 -11.917  15.835  0.00  0.00    +0.259 A 
ATOM     16  C   UNL     1     -10.716 -11.313  17.077  0.00  0.00    +0.247 C 
ATOM     17  C   UNL     1      -5.926 -10.577  15.446  0.00  0.00    +0.048 A 
ATOM     18  C   UNL     1      -5.977  -9.573  16.335  0.00  0.00    +0.015 A 
ENDROOT
BRANCH  17  20
ATOM      6  N   UNL     1      -3.426 -10.491  12.647  0.00  0.00    -0.263 NA
ATOM     20  C   UNL     1      -5.344 -10.352  14.113  0.00  0.00    +0.005 A 
ATOM     23  C   UNL     1      -6.103  -9.813  13.080  0.00  0.00    +0.011 A 
ATOM     24  C   UNL     1      -4.021 -10.672  13.847  0.00  0.00    +0.119 A 
ATOM     28  C   UNL     1      -5.525  -9.614  11.831  0.00  0.00    +0.020 A 
ATOM     29  C   UNL     1      -4.195  -9.966  11.668  0.00  0.00    +0.111 A 
ENDBRANCH  17  20
BRANCH  16  19
ATOM     19  C   UNL     1     -10.785  -9.900  16.687  0.00  0.00    +0.037 A 
ATOM     21  C   UNL     1      -9.766  -9.339  15.918  0.00  0.00    +0.016 A 
ATOM     22  C   UNL     1     -11.870  -9.119  17.085  0.00  0.00    +0.016 A 
ATOM     25  C   UNL     1      -9.831  -7.996  15.547  0.00  0.00    +0.046 A 
ATOM     26  C   UNL     1     -11.935  -7.776  16.715  0.00  0.00    +0.046 A 
ATOM     27  C   UNL     1     -10.915  -7.214  15.946  0.00  0.00    +0.120 A 
BRANCH  27   3
ATOM      3  O   UNL     1     -10.979  -5.904  15.585  0.00  0.00    -0.495 OA
ATOM     30  C   UNL     1     -11.952  -5.548  14.603  0.00  0.00    +0.277 C 
ENDBRANCH  27   3
ENDBRANCH  16  19
TORSDOF 3
ENDMDL
