MODEL 1
REMARK VINA RESULT:      -5.9      0.000      0.000
REMARK  Name = 86769018
REMARK  2 active torsions:
REMARK  status: ('A' for Active; 'I' for Inactive)
REMARK    1  A    between atoms: N_3  and  C_8
REMARK    2  A    between atoms: N_5  and  C_17
REMARK                            x       y       z     vdW  Elec       q    Type
REMARK                         _______ _______ _______ _____ _____    ______ ____
ROOT
ATOM      2  O   UNL     1      10.577   8.468  18.944  0.00  0.00    -0.252 OA
ATOM      3  N   UNL     1      15.152   6.817  20.394  0.00  0.00    -0.296 NA
ATOM      4  N   UNL     1      12.700   7.493  19.195  0.00  0.00    -0.278 N 
ATOM      5  N   UNL     1      12.203   8.472  17.236  0.00  0.00    -0.287 N 
ATOM      6  C   UNL     1      13.841   7.213  18.349  0.00  0.00    +0.109 C 
ATOM      7  C   UNL     1      15.142   7.515  19.093  0.00  0.00    +0.108 C 
ATOM      9  C   UNL     1      14.018   7.252  21.234  0.00  0.00    +0.104 C 
ATOM     10  C   UNL     1      12.677   6.979  20.549  0.00  0.00    +0.125 C 
ATOM     11  C   UNL     1      13.595   8.070  17.111  0.00  0.00    +0.132 C 
ATOM     14  C   UNL     1      11.685   8.178  18.513  0.00  0.00    +0.305 C 
ATOM     17  C   UNL     1      11.526   9.220  16.200  0.00  0.00    +0.133 C 
ENDROOT
BRANCH   3   8
ATOM      1  O   UNL     1      19.106   8.080  21.030  0.00  0.00    -0.380 OA
ATOM      8  C   UNL     1      16.417   7.052  21.087  0.00  0.00    +0.061 C 
ATOM     12  C   UNL     1      16.726   8.549  21.177  0.00  0.00    +0.047 C 
ATOM     13  C   UNL     1      17.560   6.324  20.373  0.00  0.00    +0.047 C 
ATOM     15  C   UNL     1      18.108   8.770  21.782  0.00  0.00    +0.161 C 
ATOM     16  C   UNL     1      18.895   6.668  21.022  0.00  0.00    +0.161 C 
ENDBRANCH   3   8
TORSDOF 1
ENDMDL
MODEL 2
REMARK VINA RESULT:      -5.8      4.426      6.148
REMARK  Name = 86769018
REMARK  2 active torsions:
REMARK  status: ('A' for Active; 'I' for Inactive)
REMARK    1  A    between atoms: N_3  and  C_8
REMARK    2  A    between atoms: N_5  and  C_17
REMARK                            x       y       z     vdW  Elec       q    Type
REMARK                         _______ _______ _______ _____ _____    ______ ____
ROOT
ATOM      2  O   UNL     1      12.171   6.274  19.455  0.00  0.00    -0.252 OA
ATOM      3  N   UNL     1      11.410   9.739  23.085  0.00  0.00    -0.296 NA
ATOM      4  N   UNL     1      12.262   7.778  21.257  0.00  0.00    -0.278 N 
ATOM      5  N   UNL     1      14.015   7.690  19.856  0.00  0.00    -0.287 N 
ATOM      6  C   UNL     1      13.245   8.661  21.849  0.00  0.00    +0.109 C 
ATOM      7  C   UNL     1      12.599   9.989  22.245  0.00  0.00    +0.108 C 
ATOM      9  C   UNL     1      10.412   8.928  22.358  0.00  0.00    +0.104 C 
ATOM     10  C   UNL     1      10.994   7.580  21.927  0.00  0.00    +0.125 C 
ATOM     11  C   UNL     1      14.328   8.769  20.778  0.00  0.00    +0.132 C 
ATOM     14  C   UNL     1      12.744   7.135  20.109  0.00  0.00    +0.305 C 
ATOM     17  C   UNL     1      14.871   7.367  18.735  0.00  0.00    +0.133 C 
ENDROOT
BRANCH   3   8
ATOM      1  O   UNL     1      11.180  13.731  24.364  0.00  0.00    -0.380 OA
ATOM      8  C   UNL     1      10.819  11.002  23.519  0.00  0.00    +0.061 C 
ATOM     12  C   UNL     1      11.149  12.131  22.536  0.00  0.00    +0.047 C 
ATOM     13  C   UNL     1      11.313  11.369  24.921  0.00  0.00    +0.047 C 
ATOM     15  C   UNL     1      10.640  13.465  23.070  0.00  0.00    +0.161 C 
ATOM     16  C   UNL     1      10.795  12.745  25.323  0.00  0.00    +0.161 C 
ENDBRANCH   3   8
TORSDOF 1
ENDMDL
MODEL 3
REMARK VINA RESULT:      -5.5      3.866      5.506
REMARK  Name = 86769018
REMARK  2 active torsions:
REMARK  status: ('A' for Active; 'I' for Inactive)
REMARK    1  A    between atoms: N_3  and  C_8
REMARK    2  A    between atoms: N_5  and  C_17
REMARK                            x       y       z     vdW  Elec       q    Type
REMARK                         _______ _______ _______ _____ _____    ______ ____
ROOT
ATOM      2  O   UNL     1      11.305   7.771  17.130  0.00  0.00    -0.252 OA
ATOM      3  N   UNL     1      12.195   9.806  21.694  0.00  0.00    -0.296 NA
ATOM      4  N   UNL     1      12.149   8.535  19.185  0.00  0.00    -0.278 N 
ATOM      5  N   UNL     1      13.430   8.771  17.356  0.00  0.00    -0.287 N 
ATOM      6  C   UNL     1      13.404   9.055  19.685  0.00  0.00    +0.109 C 
ATOM      7  C   UNL     1      13.153  10.216  20.647  0.00  0.00    +0.108 C 
ATOM      9  C   UNL     1      10.906   9.402  21.098  0.00  0.00    +0.104 C 
ATOM     10  C   UNL     1      11.082   8.239  20.119  0.00  0.00    +0.125 C 
ATOM     11  C   UNL     1      14.174   9.423  18.420  0.00  0.00    +0.132 C 
ATOM     14  C   UNL     1      12.184   8.290  17.806  0.00  0.00    +0.305 C 
ATOM     17  C   UNL     1      13.888   8.778  15.984  0.00  0.00    +0.133 C 
ENDROOT
BRANCH   3   8
ATOM      1  O   UNL     1      10.183  12.569  24.132  0.00  0.00    -0.380 OA
ATOM      8  C   UNL     1      11.995  10.890  22.652  0.00  0.00    +0.061 C 
ATOM     12  C   UNL     1      11.245  10.396  23.893  0.00  0.00    +0.047 C 
ATOM     13  C   UNL     1      11.225  12.043  22.001  0.00  0.00    +0.047 C 
ATOM     15  C   UNL     1      10.927  11.563  24.820  0.00  0.00    +0.161 C 
ATOM     16  C   UNL     1      10.909  13.119  23.033  0.00  0.00    +0.161 C 
ENDBRANCH   3   8
TORSDOF 1
ENDMDL
MODEL 4
REMARK VINA RESULT:      -5.5     31.457     32.119
REMARK  Name = 86769018
REMARK  2 active torsions:
REMARK  status: ('A' for Active; 'I' for Inactive)
REMARK    1  A    between atoms: N_3  and  C_8
REMARK    2  A    between atoms: N_5  and  C_17
REMARK                            x       y       z     vdW  Elec       q    Type
REMARK                         _______ _______ _______ _____ _____    ______ ____
ROOT
ATOM      2  O   UNL     1     -14.996  -0.208  29.202  0.00  0.00    -0.252 OA
ATOM      3  N   UNL     1     -14.202   4.130  31.715  0.00  0.00    -0.296 NA
ATOM      4  N   UNL     1     -14.591   1.987  29.935  0.00  0.00    -0.278 N 
ATOM      5  N   UNL     1     -16.036   1.680  28.244  0.00  0.00    -0.287 N 
ATOM      6  C   UNL     1     -14.940   3.325  29.509  0.00  0.00    +0.109 C 
ATOM      7  C   UNL     1     -15.289   4.195  30.717  0.00  0.00    +0.108 C 
ATOM      9  C   UNL     1     -13.995   2.743  32.178  0.00  0.00    +0.104 C 
ATOM     10  C   UNL     1     -13.642   1.812  31.015  0.00  0.00    +0.125 C 
ATOM     11  C   UNL     1     -16.086   3.105  28.524  0.00  0.00    +0.132 C 
ATOM     14  C   UNL     1     -15.181   1.000  29.134  0.00  0.00    +0.305 C 
ATOM     17  C   UNL     1     -16.897   1.062  27.260  0.00  0.00    +0.133 C 
ENDROOT
BRANCH   3   8
ATOM      1  O   UNL     1     -13.596   6.342  35.232  0.00  0.00    -0.380 OA
ATOM      8  C   UNL     1     -14.499   5.004  32.847  0.00  0.00    +0.061 C 
ATOM     12  C   UNL     1     -13.641   6.273  32.803  0.00  0.00    +0.047 C 
ATOM     13  C   UNL     1     -14.269   4.263  34.168  0.00  0.00    +0.047 C 
ATOM     15  C   UNL     1     -13.866   7.108  34.058  0.00  0.00    +0.161 C 
ATOM     16  C   UNL     1     -14.459   5.210  35.347  0.00  0.00    +0.161 C 
ENDBRANCH   3   8
TORSDOF 1
ENDMDL
MODEL 5
REMARK VINA RESULT:      -5.3      4.352      5.729
REMARK  Name = 86769018
REMARK  2 active torsions:
REMARK  status: ('A' for Active; 'I' for Inactive)
REMARK    1  A    between atoms: N_3  and  C_8
REMARK    2  A    between atoms: N_5  and  C_17
REMARK                            x       y       z     vdW  Elec       q    Type
REMARK                         _______ _______ _______ _____ _____    ______ ____
ROOT
ATOM      2  O   UNL     1      10.950  11.132  25.320  0.00  0.00    -0.252 OA
ATOM      3  N   UNL     1      11.587   8.915  20.798  0.00  0.00    -0.296 NA
ATOM      4  N   UNL     1      11.066  10.507  23.058  0.00  0.00    -0.278 N 
ATOM      5  N   UNL     1      11.732  12.575  23.626  0.00  0.00    -0.287 N 
ATOM      6  C   UNL     1      11.359  11.154  21.796  0.00  0.00    +0.109 C 
ATOM      7  C   UNL     1      12.220  10.244  20.919  0.00  0.00    +0.108 C 
ATOM      9  C   UNL     1      11.434   8.283  22.124  0.00  0.00    +0.104 C 
ATOM     10  C   UNL     1      10.581   9.143  23.059  0.00  0.00    +0.125 C 
ATOM     11  C   UNL     1      12.023  12.466  22.206  0.00  0.00    +0.132 C 
ATOM     14  C   UNL     1      11.212  11.375  24.149  0.00  0.00    +0.305 C 
ATOM     17  C   UNL     1      12.095  13.746  24.394  0.00  0.00    +0.133 C 
ENDROOT
BRANCH   3   8
ATOM      1  O   UNL     1      14.706   7.690  18.268  0.00  0.00    -0.380 OA
ATOM      8  C   UNL     1      12.372   8.058  19.914  0.00  0.00    +0.061 C 
ATOM     12  C   UNL     1      13.758   7.778  20.504  0.00  0.00    +0.047 C 
ATOM     13  C   UNL     1      12.512   8.702  18.532  0.00  0.00    +0.047 C 
ATOM     15  C   UNL     1      14.609   6.995  19.511  0.00  0.00    +0.161 C 
ATOM     16  C   UNL     1      13.432   7.867  17.648  0.00  0.00    +0.161 C 
ENDBRANCH   3   8
TORSDOF 1
ENDMDL
MODEL 6
REMARK VINA RESULT:      -5.2      1.858      6.235
REMARK  Name = 86769018
REMARK  2 active torsions:
REMARK  status: ('A' for Active; 'I' for Inactive)
REMARK    1  A    between atoms: N_3  and  C_8
REMARK    2  A    between atoms: N_5  and  C_17
REMARK                            x       y       z     vdW  Elec       q    Type
REMARK                         _______ _______ _______ _____ _____    ______ ____
ROOT
ATOM      2  O   UNL     1      18.769   6.117  20.468  0.00  0.00    -0.252 OA
ATOM      3  N   UNL     1      14.340   8.331  19.353  0.00  0.00    -0.296 NA
ATOM      4  N   UNL     1      16.759   7.331  20.381  0.00  0.00    -0.278 N 
ATOM      5  N   UNL     1      18.586   8.355  21.191  0.00  0.00    -0.287 N 
ATOM      6  C   UNL     1      16.281   8.618  20.839  0.00  0.00    +0.109 C 
ATOM      7  C   UNL     1      15.401   9.270  19.772  0.00  0.00    +0.108 C 
ATOM      9  C   UNL     1      14.922   7.095  18.792  0.00  0.00    +0.104 C 
ATOM     10  C   UNL     1      15.820   6.388  19.810  0.00  0.00    +0.125 C 
ATOM     11  C   UNL     1      17.560   9.384  21.171  0.00  0.00    +0.132 C 
ATOM     14  C   UNL     1      18.119   7.137  20.659  0.00  0.00    +0.305 C 
ATOM     17  C   UNL     1      19.951   8.642  21.577  0.00  0.00    +0.133 C 
ENDROOT
BRANCH   3   8
ATOM      1  O   UNL     1      12.166   8.887  15.804  0.00  0.00    -0.380 OA
ATOM      8  C   UNL     1      13.457   8.965  18.377  0.00  0.00    +0.061 C 
ATOM     12  C   UNL     1      12.226   8.096  18.101  0.00  0.00    +0.047 C 
ATOM     13  C   UNL     1      14.211   9.233  17.071  0.00  0.00    +0.047 C 
ATOM     15  C   UNL     1      11.385   8.706  16.986  0.00  0.00    +0.161 C 
ATOM     16  C   UNL     1      13.260   9.780  16.012  0.00  0.00    +0.161 C 
ENDBRANCH   3   8
TORSDOF 1
ENDMDL
MODEL 7
REMARK VINA RESULT:      -5.1     26.053     28.017
REMARK  Name = 86769018
REMARK  2 active torsions:
REMARK  status: ('A' for Active; 'I' for Inactive)
REMARK    1  A    between atoms: N_3  and  C_8
REMARK    2  A    between atoms: N_5  and  C_17
REMARK                            x       y       z     vdW  Elec       q    Type
REMARK                         _______ _______ _______ _____ _____    ______ ____
ROOT
ATOM      2  O   UNL     1      -9.781 -10.148  18.112  0.00  0.00    -0.252 OA
ATOM      3  N   UNL     1      -4.893 -10.560  16.809  0.00  0.00    -0.296 NA
ATOM      4  N   UNL     1      -7.447 -10.375  17.973  0.00  0.00    -0.278 N 
ATOM      5  N   UNL     1      -8.567 -11.734  19.367  0.00  0.00    -0.287 N 
ATOM      6  C   UNL     1      -6.414 -11.118  18.662  0.00  0.00    +0.109 C 
ATOM      7  C   UNL     1      -5.390 -11.658  17.664  0.00  0.00    +0.108 C 
ATOM      9  C   UNL     1      -6.001  -9.936  16.057  0.00  0.00    +0.104 C 
ATOM     10  C   UNL     1      -7.069  -9.373  16.997  0.00  0.00    +0.125 C 
ATOM     11  C   UNL     1      -7.188 -12.188  19.430  0.00  0.00    +0.132 C 
ATOM     14  C   UNL     1      -8.731 -10.681  18.444  0.00  0.00    +0.305 C 
ATOM     17  C   UNL     1      -9.630 -12.415  20.072  0.00  0.00    +0.133 C 
ENDROOT
BRANCH   3   8
ATOM      1  O   UNL     1      -1.793 -10.487  13.979  0.00  0.00    -0.380 OA
ATOM      8  C   UNL     1      -3.870 -11.054  15.891  0.00  0.00    +0.061 C 
ATOM     12  C   UNL     1      -2.476 -10.574  16.310  0.00  0.00    +0.047 C 
ATOM     13  C   UNL     1      -4.172 -10.598  14.461  0.00  0.00    +0.047 C 
ATOM     15  C   UNL     1      -1.440 -10.985  15.270  0.00  0.00    +0.161 C 
ATOM     16  C   UNL     1      -3.042 -11.008  13.523  0.00  0.00    +0.161 C 
ENDBRANCH   3   8
TORSDOF 1
ENDMDL
MODEL 8
REMARK VINA RESULT:      -5.0     31.510     32.549
REMARK  Name = 86769018
REMARK  2 active torsions:
REMARK  status: ('A' for Active; 'I' for Inactive)
REMARK    1  A    between atoms: N_3  and  C_8
REMARK    2  A    between atoms: N_5  and  C_17
REMARK                            x       y       z     vdW  Elec       q    Type
REMARK                         _______ _______ _______ _____ _____    ______ ____
ROOT
ATOM      2  O   UNL     1     -15.994   0.580  28.260  0.00  0.00    -0.252 OA
ATOM      3  N   UNL     1     -15.722   4.424  31.563  0.00  0.00    -0.296 NA
ATOM      4  N   UNL     1     -15.801   2.019  30.107  0.00  0.00    -0.278 N 
ATOM      5  N   UNL     1     -14.339   0.325  29.920  0.00  0.00    -0.287 N 
ATOM      6  C   UNL     1     -15.022   2.076  31.325  0.00  0.00    +0.109 C 
ATOM      7  C   UNL     1     -14.563   3.509  31.598  0.00  0.00    +0.108 C 
ATOM      9  C   UNL     1     -16.384   4.385  30.243  0.00  0.00    +0.104 C 
ATOM     10  C   UNL     1     -16.871   2.974  29.904  0.00  0.00    +0.125 C 
ATOM     11  C   UNL     1     -13.895   1.076  31.083  0.00  0.00    +0.132 C 
ATOM     14  C   UNL     1     -15.450   0.929  29.299  0.00  0.00    +0.305 C 
ATOM     17  C   UNL     1     -13.600  -0.810  29.414  0.00  0.00    +0.133 C 
ENDROOT
BRANCH   3   8
ATOM      1  O   UNL     1     -14.587   7.748  33.864  0.00  0.00    -0.380 OA
ATOM      8  C   UNL     1     -15.303   5.787  31.880  0.00  0.00    +0.061 C 
ATOM     12  C   UNL     1     -13.935   5.796  32.571  0.00  0.00    +0.047 C 
ATOM     13  C   UNL     1     -16.343   6.472  32.772  0.00  0.00    +0.047 C 
ATOM     15  C   UNL     1     -13.574   7.210  33.014  0.00  0.00    +0.161 C 
ATOM     16  C   UNL     1     -15.849   7.847  33.203  0.00  0.00    +0.161 C 
ENDBRANCH   3   8
TORSDOF 1
ENDMDL
MODEL 9
REMARK VINA RESULT:      -4.9     26.017     27.594
REMARK  Name = 86769018
REMARK  2 active torsions:
REMARK  status: ('A' for Active; 'I' for Inactive)
REMARK    1  A    between atoms: N_3  and  C_8
REMARK    2  A    between atoms: N_5  and  C_17
REMARK                            x       y       z     vdW  Elec       q    Type
REMARK                         _______ _______ _______ _____ _____    ______ ____
ROOT
ATOM      2  O   UNL     1      -1.578 -11.519  12.606  0.00  0.00    -0.252 OA
ATOM      3  N   UNL     1      -4.909 -10.596  16.323  0.00  0.00    -0.296 NA
ATOM      4  N   UNL     1      -3.290 -10.770  14.029  0.00  0.00    -0.278 N 
ATOM      5  N   UNL     1      -3.781 -11.119  11.865  0.00  0.00    -0.287 N 
ATOM      6  C   UNL     1      -4.659 -10.319  13.890  0.00  0.00    +0.109 C 
ATOM      7  C   UNL     1      -5.524 -10.891  15.013  0.00  0.00    +0.108 C 
ATOM      9  C   UNL     1      -3.561 -11.193  16.417  0.00  0.00    +0.104 C 
ATOM     10  C   UNL     1      -2.637 -10.665  15.317  0.00  0.00    +0.125 C 
ATOM     11  C   UNL     1      -5.049 -10.772  12.484  0.00  0.00    +0.132 C 
ATOM     14  C   UNL     1      -2.735 -11.176  12.808  0.00  0.00    +0.305 C 
ATOM     17  C   UNL     1      -3.688 -11.501  10.473  0.00  0.00    +0.133 C 
ENDROOT
BRANCH   3   8
ATOM      1  O   UNL     1      -7.047 -10.611  19.935  0.00  0.00    -0.380 OA
ATOM      8  C   UNL     1      -5.758 -11.086  17.405  0.00  0.00    +0.061 C 
ATOM     12  C   UNL     1      -7.029 -10.241  17.534  0.00  0.00    +0.047 C 
ATOM     13  C   UNL     1      -4.990 -11.080  18.730  0.00  0.00    +0.047 C 
ATOM     15  C   UNL     1      -7.838 -10.681  18.749  0.00  0.00    +0.161 C 
ATOM     16  C   UNL     1      -5.911 -11.474  19.879  0.00  0.00    +0.161 C 
ENDBRANCH   3   8
TORSDOF 1
ENDMDL
MODEL 10
REMARK VINA RESULT:      -4.8     25.727     27.528
REMARK  Name = 86769018
REMARK  2 active torsions:
REMARK  status: ('A' for Active; 'I' for Inactive)
REMARK    1  A    between atoms: N_3  and  C_8
REMARK    2  A    between atoms: N_5  and  C_17
REMARK                            x       y       z     vdW  Elec       q    Type
REMARK                         _______ _______ _______ _____ _____    ______ ____
ROOT
ATOM      2  O   UNL     1      -3.086 -12.412  11.476  0.00  0.00    -0.252 OA
ATOM      3  N   UNL     1      -4.353 -12.348  16.390  0.00  0.00    -0.296 NA
ATOM      4  N   UNL     1      -3.217 -12.286  13.818  0.00  0.00    -0.278 N 
ATOM      5  N   UNL     1      -2.041 -10.711  12.732  0.00  0.00    -0.287 N 
ATOM      6  C   UNL     1      -2.619 -11.490  14.869  0.00  0.00    +0.109 C 
ATOM      7  C   UNL     1      -3.665 -11.128  15.924  0.00  0.00    +0.108 C 
ATOM      9  C   UNL     1      -5.031 -13.032  15.270  0.00  0.00    +0.104 C 
ATOM     10  C   UNL     1      -4.040 -13.424  14.172  0.00  0.00    +0.125 C 
ATOM     11  C   UNL     1      -2.018 -10.299  14.125  0.00  0.00    +0.132 C 
ATOM     14  C   UNL     1      -2.813 -11.874  12.541  0.00  0.00    +0.305 C 
ATOM     17  C   UNL     1      -1.454  -9.904  11.685  0.00  0.00    +0.133 C 
ENDROOT
BRANCH   3   8
ATOM      1  O   UNL     1      -6.208 -10.197  19.482  0.00  0.00    -0.380 OA
ATOM      8  C   UNL     1      -5.313 -12.020  17.441  0.00  0.00    +0.061 C 
ATOM     12  C   UNL     1      -6.067 -10.727  17.115  0.00  0.00    +0.047 C 
ATOM     13  C   UNL     1      -4.602 -11.885  18.791  0.00  0.00    +0.047 C 
ATOM     15  C   UNL     1      -6.966 -10.328  18.280  0.00  0.00    +0.161 C 
ATOM     16  C   UNL     1      -5.582 -11.423  19.863  0.00  0.00    +0.161 C 
ENDBRANCH   3   8
TORSDOF 1
ENDMDL
