MODEL 1
REMARK VINA RESULT:      -6.3      0.000      0.000
REMARK  Name = 7049358
REMARK  15 active torsions:
REMARK  status: ('A' for Active; 'I' for Inactive)
REMARK    1  A    between atoms: O_1  and  C_10
REMARK    2  A    between atoms: O_2  and  C_12
REMARK    3  A    between atoms: N_6  and  C_11
REMARK    4  A    between atoms: N_7  and  C_18
REMARK    5  A    between atoms: N_8  and  C_17
REMARK    6  A    between atoms: C_14  and  C_16
REMARK    7  A    between atoms: C_17  and  C_19
REMARK    8  A    between atoms: C_17  and  C_21
REMARK    9  A    between atoms: C_18  and  C_20
REMARK   10  A    between atoms: C_18  and  C_25
REMARK   11  A    between atoms: C_20  and  C_22
REMARK   12  A    between atoms: C_21  and  C_23
REMARK   13  A    between atoms: C_21  and  C_24
REMARK   14  A    between atoms: C_22  and  C_26
REMARK   15  A    between atoms: C_22  and  C_27
REMARK                            x       y       z     vdW  Elec       q    Type
REMARK                         _______ _______ _______ _____ _____    ______ ____
ROOT
ATOM     10  C   UNL     1      13.849   7.533   6.938  0.00  0.00    +0.167 C 
ATOM     11  C   UNL     1      12.629   7.772   6.028  0.00  0.00    +0.127 C 
ATOM     12  C   UNL     1      15.140   8.051   6.294  0.00  0.00    +0.149 C 
ATOM     13  C   UNL     1      15.383   7.432   4.906  0.00  0.00    +0.074 C 
ATOM     14  C   UNL     1      14.128   7.270   4.098  0.00  0.00    +0.015 C 
ATOM     15  C   UNL     1      12.887   7.427   4.586  0.00  0.00    +0.006 C 
ENDROOT
BRANCH  14  16
ATOM      3  O   UNL     1      14.564   7.798   1.851  0.00  0.00    -0.271 OA
ATOM      7  N   UNL     1      14.006   5.604   2.408  0.00  0.00    -0.300 N 
ATOM     16  C   UNL     1      14.259   6.938   2.676  0.00  0.00    +0.241 C 
ATOM     29  H   UNL     1      13.829   4.967   3.179  0.00  0.00    +0.150 HD
BRANCH   7  18
ATOM     18  C   UNL     1      14.070   5.041   1.078  0.00  0.00    +0.159 C 
BRANCH  18  25
ATOM      5  O   UNL     1      16.006   3.936   0.107  0.00  0.00    -0.274 OA
ATOM      9  N   UNL     1      15.395   3.394   2.254  0.00  0.00    -0.328 N 
ATOM     25  C   UNL     1      15.244   4.072   1.061  0.00  0.00    +0.231 C 
ATOM     34  H   UNL     1      16.147   2.726   2.381  0.00  0.00    +0.145 HD
ATOM     35  H   UNL     1      14.771   3.533   3.043  0.00  0.00    +0.145 HD
ENDBRANCH  18  25
BRANCH  18  20
ATOM     20  C   UNL     1      12.776   4.314   0.691  0.00  0.00    +0.034 C 
BRANCH  20  22
ATOM     22  C   UNL     1      11.555   4.655   1.570  0.00  0.00    -0.015 C 
ATOM     26  C   UNL     1      10.290   4.888   0.742  0.00  0.00    +0.007 C 
ATOM     27  C   UNL     1      11.311   3.528   2.576  0.00  0.00    +0.007 C 
ENDBRANCH  20  22
ENDBRANCH  18  20
ENDBRANCH   7  18
ENDBRANCH  14  16
BRANCH  11   6
ATOM      4  O   UNL     1      10.602   8.698   7.844  0.00  0.00    -0.274 OA
ATOM      6  N   UNL     1      11.473   7.037   6.481  0.00  0.00    -0.305 N 
ATOM     19  C   UNL     1      10.544   7.567   7.365  0.00  0.00    +0.231 C 
ATOM     28  H   UNL     1      11.364   6.076   6.168  0.00  0.00    +0.149 HD
BRANCH  19  17
ATOM     17  C   UNL     1       9.422   6.583   7.695  0.00  0.00    +0.140 C 
BRANCH  17   8
ATOM      8  N   UNL     1       8.493   7.281   8.586  0.00  0.00    -0.320 NA
ATOM     32  H   UNL     1       7.549   7.228   8.207  0.00  0.00    +0.119 HD
ATOM     33  H   UNL     1       8.463   6.806   9.488  0.00  0.00    +0.119 HD
ENDBRANCH  17   8
BRANCH  17  21
ATOM     21  C   UNL     1       9.934   5.269   8.329  0.00  0.00    +0.009 C 
ATOM     23  C   UNL     1       9.253   4.981   9.672  0.00  0.00    +0.009 C 
ATOM     24  C   UNL     1       9.809   4.046   7.414  0.00  0.00    +0.009 C 
ENDBRANCH  17  21
ENDBRANCH  19  17
ENDBRANCH  11   6
BRANCH  10   1
ATOM      1  O   UNL     1      13.990   6.135   7.194  0.00  0.00    -0.387 OA
ATOM     30  H   UNL     1      14.044   5.684   6.335  0.00  0.00    +0.210 HD
ENDBRANCH  10   1
BRANCH  12   2
ATOM      2  O   UNL     1      15.106   9.472   6.197  0.00  0.00    -0.389 OA
ATOM     31  H   UNL     1      15.772   9.826   6.811  0.00  0.00    +0.210 HD
ENDBRANCH  12   2
TORSDOF 11
ENDMDL
MODEL 2
REMARK VINA RESULT:      -6.3     12.555     17.281
REMARK  Name = 7049358
REMARK  15 active torsions:
REMARK  status: ('A' for Active; 'I' for Inactive)
REMARK    1  A    between atoms: O_1  and  C_10
REMARK    2  A    between atoms: O_2  and  C_12
REMARK    3  A    between atoms: N_6  and  C_11
REMARK    4  A    between atoms: N_7  and  C_18
REMARK    5  A    between atoms: N_8  and  C_17
REMARK    6  A    between atoms: C_14  and  C_16
REMARK    7  A    between atoms: C_17  and  C_19
REMARK    8  A    between atoms: C_17  and  C_21
REMARK    9  A    between atoms: C_18  and  C_20
REMARK   10  A    between atoms: C_18  and  C_25
REMARK   11  A    between atoms: C_20  and  C_22
REMARK   12  A    between atoms: C_21  and  C_23
REMARK   13  A    between atoms: C_21  and  C_24
REMARK   14  A    between atoms: C_22  and  C_26
REMARK   15  A    between atoms: C_22  and  C_27
REMARK                            x       y       z     vdW  Elec       q    Type
REMARK                         _______ _______ _______ _____ _____    ______ ____
ROOT
ATOM     10  C   UNL     1      13.632   7.832  18.665  0.00  0.00    +0.167 C 
ATOM     11  C   UNL     1      12.531   8.846  18.296  0.00  0.00    +0.127 C 
ATOM     12  C   UNL     1      13.160   6.862  19.755  0.00  0.00    +0.149 C 
ATOM     13  C   UNL     1      12.672   7.599  21.014  0.00  0.00    +0.074 C 
ATOM     14  C   UNL     1      11.903   8.853  20.710  0.00  0.00    +0.015 C 
ATOM     15  C   UNL     1      11.825   9.419  19.495  0.00  0.00    +0.006 C 
ENDROOT
BRANCH  14  16
ATOM      3  O   UNL     1      10.311   8.885  22.437  0.00  0.00    -0.271 OA
ATOM      7  N   UNL     1      11.555  10.810  22.014  0.00  0.00    -0.300 N 
ATOM     16  C   UNL     1      11.171   9.497  21.805  0.00  0.00    +0.241 C 
ATOM     29  H   UNL     1      12.327  11.194  21.475  0.00  0.00    +0.150 HD
BRANCH   7  18
ATOM     18  C   UNL     1      10.973  11.649  23.035  0.00  0.00    +0.159 C 
BRANCH  18  25
ATOM      5  O   UNL     1      11.197  11.175  25.409  0.00  0.00    -0.274 OA
ATOM      9  N   UNL     1      13.103  11.335  24.137  0.00  0.00    -0.328 N 
ATOM     25  C   UNL     1      11.737  11.378  24.325  0.00  0.00    +0.231 C 
ATOM     34  H   UNL     1      13.729  11.149  24.913  0.00  0.00    +0.145 HD
ATOM     35  H   UNL     1      13.535  11.482  23.230  0.00  0.00    +0.145 HD
ENDBRANCH  18  25
BRANCH  18  20
ATOM     20  C   UNL     1      11.050  13.139  22.677  0.00  0.00    +0.034 C 
BRANCH  20  22
ATOM     22  C   UNL     1      11.626  13.440  21.279  0.00  0.00    -0.015 C 
ATOM     26  C   UNL     1      10.869  14.561  20.565  0.00  0.00    +0.007 C 
ATOM     27  C   UNL     1      13.106  13.812  21.398  0.00  0.00    +0.007 C 
ENDBRANCH  20  22
ENDBRANCH  18  20
ENDBRANCH   7  18
ENDBRANCH  14  16
BRANCH  11   6
ATOM      4  O   UNL     1      12.799   8.910  15.435  0.00  0.00    -0.274 OA
ATOM      6  N   UNL     1      13.052   9.931  17.501  0.00  0.00    -0.305 N 
ATOM     19  C   UNL     1      13.145   9.872  16.118  0.00  0.00    +0.231 C 
ATOM     28  H   UNL     1      13.400  10.754  17.984  0.00  0.00    +0.149 HD
BRANCH  19  17
ATOM     17  C   UNL     1      13.739  11.145  15.516  0.00  0.00    +0.140 C 
BRANCH  17   8
ATOM      8  N   UNL     1      13.038  11.387  14.253  0.00  0.00    -0.320 NA
ATOM     32  H   UNL     1      13.621  11.085  13.474  0.00  0.00    +0.119 HD
ATOM     33  H   UNL     1      12.196  10.814  14.216  0.00  0.00    +0.119 HD
ENDBRANCH  17   8
BRANCH  17  21
ATOM     21  C   UNL     1      15.269  11.061  15.306  0.00  0.00    +0.009 C 
ATOM     23  C   UNL     1      15.651  11.218  13.830  0.00  0.00    +0.009 C 
ATOM     24  C   UNL     1      16.070  12.054  16.156  0.00  0.00    +0.009 C 
ENDBRANCH  17  21
ENDBRANCH  19  17
ENDBRANCH  11   6
BRANCH  10   1
ATOM      1  O   UNL     1      14.787   8.528  19.138  0.00  0.00    -0.387 OA
ATOM     30  H   UNL     1      15.384   7.870  19.530  0.00  0.00    +0.210 HD
ENDBRANCH  10   1
BRANCH  12   2
ATOM      2  O   UNL     1      12.127   6.020  19.250  0.00  0.00    -0.389 OA
ATOM     31  H   UNL     1      12.498   5.510  18.510  0.00  0.00    +0.210 HD
ENDBRANCH  12   2
TORSDOF 11
ENDMDL
MODEL 3
REMARK VINA RESULT:      -6.2     15.256     17.876
REMARK  Name = 7049358
REMARK  15 active torsions:
REMARK  status: ('A' for Active; 'I' for Inactive)
REMARK    1  A    between atoms: O_1  and  C_10
REMARK    2  A    between atoms: O_2  and  C_12
REMARK    3  A    between atoms: N_6  and  C_11
REMARK    4  A    between atoms: N_7  and  C_18
REMARK    5  A    between atoms: N_8  and  C_17
REMARK    6  A    between atoms: C_14  and  C_16
REMARK    7  A    between atoms: C_17  and  C_19
REMARK    8  A    between atoms: C_17  and  C_21
REMARK    9  A    between atoms: C_18  and  C_20
REMARK   10  A    between atoms: C_18  and  C_25
REMARK   11  A    between atoms: C_20  and  C_22
REMARK   12  A    between atoms: C_21  and  C_23
REMARK   13  A    between atoms: C_21  and  C_24
REMARK   14  A    between atoms: C_22  and  C_26
REMARK   15  A    between atoms: C_22  and  C_27
REMARK                            x       y       z     vdW  Elec       q    Type
REMARK                         _______ _______ _______ _____ _____    ______ ____
ROOT
ATOM     10  C   UNL     1      12.148   8.376  20.064  0.00  0.00    +0.167 C 
ATOM     11  C   UNL     1      12.881   8.198  21.408  0.00  0.00    +0.127 C 
ATOM     12  C   UNL     1      12.570   7.307  19.048  0.00  0.00    +0.149 C 
ATOM     13  C   UNL     1      14.092   7.288  18.826  0.00  0.00    +0.074 C 
ATOM     14  C   UNL     1      14.881   7.512  20.085  0.00  0.00    +0.015 C 
ATOM     15  C   UNL     1      14.350   7.912  21.251  0.00  0.00    +0.006 C 
ENDROOT
BRANCH  14  16
ATOM      3  O   UNL     1      16.802   6.427  19.280  0.00  0.00    -0.271 OA
ATOM      7  N   UNL     1      17.032   8.039  20.947  0.00  0.00    -0.300 N 
ATOM     16  C   UNL     1      16.325   7.260  20.049  0.00  0.00    +0.241 C 
ATOM     29  H   UNL     1      16.540   8.746  21.487  0.00  0.00    +0.150 HD
BRANCH   7  18
ATOM     18  C   UNL     1      18.467   7.966  21.096  0.00  0.00    +0.159 C 
BRANCH  18  25
ATOM      5  O   UNL     1      20.044   9.363  22.309  0.00  0.00    -0.274 OA
ATOM      9  N   UNL     1      17.820   9.934  22.345  0.00  0.00    -0.328 N 
ATOM     25  C   UNL     1      18.883   9.132  21.984  0.00  0.00    +0.231 C 
ATOM     34  H   UNL     1      17.961  10.753  22.926  0.00  0.00    +0.145 HD
ATOM     35  H   UNL     1      16.867   9.744  22.050  0.00  0.00    +0.145 HD
ENDBRANCH  18  25
BRANCH  18  20
ATOM     20  C   UNL     1      18.920   6.639  21.717  0.00  0.00    +0.034 C 
BRANCH  20  22
ATOM     22  C   UNL     1      20.297   6.136  21.236  0.00  0.00    -0.015 C 
ATOM     26  C   UNL     1      21.251   5.850  22.397  0.00  0.00    +0.007 C 
ATOM     27  C   UNL     1      20.120   4.873  20.391  0.00  0.00    +0.007 C 
ENDBRANCH  20  22
ENDBRANCH  18  20
ENDBRANCH   7  18
ENDBRANCH  14  16
BRANCH  11   6
ATOM      4  O   UNL     1      10.504   8.974  22.827  0.00  0.00    -0.274 OA
ATOM      6  N   UNL     1      12.720   9.351  22.259  0.00  0.00    -0.305 N 
ATOM     19  C   UNL     1      11.529   9.648  22.906  0.00  0.00    +0.231 C 
ATOM     28  H   UNL     1      13.505   9.990  22.352  0.00  0.00    +0.149 HD
BRANCH  19  17
ATOM     17  C   UNL     1      11.617  10.928  23.737  0.00  0.00    +0.140 C 
BRANCH  17   8
ATOM      8  N   UNL     1      11.368  10.550  25.130  0.00  0.00    -0.320 NA
ATOM     32  H   UNL     1      11.996   9.794  25.397  0.00  0.00    +0.119 HD
ATOM     33  H   UNL     1      11.591  11.334  25.741  0.00  0.00    +0.119 HD
ENDBRANCH  17   8
BRANCH  17  21
ATOM     21  C   UNL     1      10.638  12.028  23.265  0.00  0.00    +0.009 C 
ATOM     23  C   UNL     1      10.411  13.090  24.347  0.00  0.00    +0.009 C 
ATOM     24  C   UNL     1      11.047  12.706  21.953  0.00  0.00    +0.009 C 
ENDBRANCH  17  21
ENDBRANCH  19  17
ENDBRANCH  11   6
BRANCH  10   1
ATOM      1  O   UNL     1      12.443   9.665  19.524  0.00  0.00    -0.387 OA
ATOM     30  H   UNL     1      12.520   9.568  18.560  0.00  0.00    +0.210 HD
ENDBRANCH  10   1
BRANCH  12   2
ATOM      2  O   UNL     1      12.121   6.022  19.472  0.00  0.00    -0.389 OA
ATOM     31  H   UNL     1      12.701   5.357  19.064  0.00  0.00    +0.210 HD
ENDBRANCH  12   2
TORSDOF 11
ENDMDL
MODEL 4
REMARK VINA RESULT:      -6.1     15.881     19.472
REMARK  Name = 7049358
REMARK  15 active torsions:
REMARK  status: ('A' for Active; 'I' for Inactive)
REMARK    1  A    between atoms: O_1  and  C_10
REMARK    2  A    between atoms: O_2  and  C_12
REMARK    3  A    between atoms: N_6  and  C_11
REMARK    4  A    between atoms: N_7  and  C_18
REMARK    5  A    between atoms: N_8  and  C_17
REMARK    6  A    between atoms: C_14  and  C_16
REMARK    7  A    between atoms: C_17  and  C_19
REMARK    8  A    between atoms: C_17  and  C_21
REMARK    9  A    between atoms: C_18  and  C_20
REMARK   10  A    between atoms: C_18  and  C_25
REMARK   11  A    between atoms: C_20  and  C_22
REMARK   12  A    between atoms: C_21  and  C_23
REMARK   13  A    between atoms: C_21  and  C_24
REMARK   14  A    between atoms: C_22  and  C_26
REMARK   15  A    between atoms: C_22  and  C_27
REMARK                            x       y       z     vdW  Elec       q    Type
REMARK                         _______ _______ _______ _____ _____    ______ ____
ROOT
ATOM     10  C   UNL     1      12.041   7.165  20.724  0.00  0.00    +0.167 C 
ATOM     11  C   UNL     1      13.296   8.039  20.533  0.00  0.00    +0.127 C 
ATOM     12  C   UNL     1      10.758   8.000  20.650  0.00  0.00    +0.149 C 
ATOM     13  C   UNL     1      10.760   9.157  21.665  0.00  0.00    +0.074 C 
ATOM     14  C   UNL     1      12.102   9.814  21.816  0.00  0.00    +0.015 C 
ATOM     15  C   UNL     1      13.246   9.328  21.307  0.00  0.00    +0.006 C 
ENDROOT
BRANCH  14  16
ATOM      3  O   UNL     1      12.289  12.151  21.955  0.00  0.00    -0.271 OA
ATOM      7  N   UNL     1      12.097  10.915  23.922  0.00  0.00    -0.300 N 
ATOM     16  C   UNL     1      12.173  11.080  22.551  0.00  0.00    +0.241 C 
ATOM     29  H   UNL     1      11.933   9.987  24.303  0.00  0.00    +0.150 HD
BRANCH   7  18
ATOM     18  C   UNL     1      12.149  12.018  24.854  0.00  0.00    +0.159 C 
BRANCH  18  25
ATOM      5  O   UNL     1      14.287  13.173  24.931  0.00  0.00    -0.274 OA
ATOM      9  N   UNL     1      14.077  11.177  26.048  0.00  0.00    -0.328 N 
ATOM     25  C   UNL     1      13.608  12.200  25.249  0.00  0.00    +0.231 C 
ATOM     34  H   UNL     1      15.031  11.182  26.393  0.00  0.00    +0.145 HD
ATOM     35  H   UNL     1      13.498  10.389  26.322  0.00  0.00    +0.145 HD
ENDBRANCH  18  25
BRANCH  18  20
ATOM     20  C   UNL     1      11.597  13.315  24.250  0.00  0.00    +0.034 C 
BRANCH  20  22
ATOM     22  C   UNL     1      10.454  13.968  25.053  0.00  0.00    -0.015 C 
ATOM     26  C   UNL     1      10.936  14.556  26.380  0.00  0.00    +0.007 C 
ATOM     27  C   UNL     1       9.793  15.064  24.215  0.00  0.00    +0.007 C 
ENDBRANCH  20  22
ENDBRANCH  18  20
ENDBRANCH   7  18
ENDBRANCH  14  16
BRANCH  11   6
ATOM      4  O   UNL     1      15.376   7.168  18.750  0.00  0.00    -0.274 OA
ATOM      6  N   UNL     1      14.500   7.328  20.891  0.00  0.00    -0.305 N 
ATOM     19  C   UNL     1      15.452   6.946  19.957  0.00  0.00    +0.231 C 
ATOM     28  H   UNL     1      14.628   7.065  21.863  0.00  0.00    +0.149 HD
BRANCH  19  17
ATOM     17  C   UNL     1      16.625   6.198  20.590  0.00  0.00    +0.140 C 
BRANCH  17   8
ATOM      8  N   UNL     1      16.349   6.110  22.026  0.00  0.00    -0.320 NA
ATOM     32  H   UNL     1      15.778   6.903  22.315  0.00  0.00    +0.119 HD
ATOM     33  H   UNL     1      15.792   5.277  22.215  0.00  0.00    +0.119 HD
ENDBRANCH  17   8
BRANCH  17  21
ATOM     21  C   UNL     1      17.992   6.868  20.318  0.00  0.00    +0.009 C 
ATOM     23  C   UNL     1      18.196   8.118  21.181  0.00  0.00    +0.009 C 
ATOM     24  C   UNL     1      19.191   5.927  20.480  0.00  0.00    +0.009 C 
ENDBRANCH  17  21
ENDBRANCH  19  17
ENDBRANCH  11   6
BRANCH  10   1
ATOM      1  O   UNL     1      12.096   6.518  21.997  0.00  0.00    -0.387 OA
ATOM     30  H   UNL     1      11.461   5.783  21.979  0.00  0.00    +0.210 HD
ENDBRANCH  10   1
BRANCH  12   2
ATOM      2  O   UNL     1      10.577   8.508  19.330  0.00  0.00    -0.389 OA
ATOM     31  H   UNL     1      10.813   7.800  18.707  0.00  0.00    +0.210 HD
ENDBRANCH  12   2
TORSDOF 11
ENDMDL
MODEL 5
REMARK VINA RESULT:      -6.0     15.781     19.253
REMARK  Name = 7049358
REMARK  15 active torsions:
REMARK  status: ('A' for Active; 'I' for Inactive)
REMARK    1  A    between atoms: O_1  and  C_10
REMARK    2  A    between atoms: O_2  and  C_12
REMARK    3  A    between atoms: N_6  and  C_11
REMARK    4  A    between atoms: N_7  and  C_18
REMARK    5  A    between atoms: N_8  and  C_17
REMARK    6  A    between atoms: C_14  and  C_16
REMARK    7  A    between atoms: C_17  and  C_19
REMARK    8  A    between atoms: C_17  and  C_21
REMARK    9  A    between atoms: C_18  and  C_20
REMARK   10  A    between atoms: C_18  and  C_25
REMARK   11  A    between atoms: C_20  and  C_22
REMARK   12  A    between atoms: C_21  and  C_23
REMARK   13  A    between atoms: C_21  and  C_24
REMARK   14  A    between atoms: C_22  and  C_26
REMARK   15  A    between atoms: C_22  and  C_27
REMARK                            x       y       z     vdW  Elec       q    Type
REMARK                         _______ _______ _______ _____ _____    ______ ____
ROOT
ATOM     10  C   UNL     1      12.080   7.281  20.652  0.00  0.00    +0.167 C 
ATOM     11  C   UNL     1      13.341   8.109  20.339  0.00  0.00    +0.127 C 
ATOM     12  C   UNL     1      10.805   8.118  20.494  0.00  0.00    +0.149 C 
ATOM     13  C   UNL     1      10.835   9.388  21.361  0.00  0.00    +0.074 C 
ATOM     14  C   UNL     1      12.186  10.042  21.413  0.00  0.00    +0.015 C 
ATOM     15  C   UNL     1      13.317   9.483  20.952  0.00  0.00    +0.006 C 
ENDROOT
BRANCH  14  16
ATOM      3  O   UNL     1      12.576  12.354  21.286  0.00  0.00    -0.271 OA
ATOM      7  N   UNL     1      12.014  11.416  23.345  0.00  0.00    -0.300 N 
ATOM     16  C   UNL     1      12.282  11.387  21.988  0.00  0.00    +0.241 C 
ATOM     29  H   UNL     1      11.713  10.564  23.810  0.00  0.00    +0.150 HD
BRANCH   7  18
ATOM     18  C   UNL     1      12.049  12.628  24.130  0.00  0.00    +0.159 C 
BRANCH  18  25
ATOM      5  O   UNL     1      10.310  12.734  25.826  0.00  0.00    -0.274 OA
ATOM      9  N   UNL     1       9.770  13.289  23.664  0.00  0.00    -0.328 N 
ATOM     25  C   UNL     1      10.637  12.864  24.649  0.00  0.00    +0.231 C 
ATOM     34  H   UNL     1       8.800  13.496  23.878  0.00  0.00    +0.145 HD
ATOM     35  H   UNL     1      10.059  13.415  22.699  0.00  0.00    +0.145 HD
ENDBRANCH  18  25
BRANCH  18  20
ATOM     20  C   UNL     1      13.035  12.533  25.301  0.00  0.00    +0.034 C 
BRANCH  20  22
ATOM     22  C   UNL     1      14.447  13.080  25.004  0.00  0.00    -0.015 C 
ATOM     26  C   UNL     1      15.352  12.033  24.354  0.00  0.00    +0.007 C 
ATOM     27  C   UNL     1      14.345  14.308  24.096  0.00  0.00    +0.007 C 
ENDBRANCH  20  22
ENDBRANCH  18  20
ENDBRANCH   7  18
ENDBRANCH  14  16
BRANCH  11   6
ATOM      4  O   UNL     1      15.341   6.925  18.647  0.00  0.00    -0.274 OA
ATOM      6  N   UNL     1      14.542   7.432  20.764  0.00  0.00    -0.305 N 
ATOM     19  C   UNL     1      15.454   6.888  19.871  0.00  0.00    +0.231 C 
ATOM     28  H   UNL     1      14.699   7.317  21.761  0.00  0.00    +0.149 HD
BRANCH  19  17
ATOM     17  C   UNL     1      16.633   6.216  20.575  0.00  0.00    +0.140 C 
BRANCH  17   8
ATOM      8  N   UNL     1      16.300   6.157  22.001  0.00  0.00    -0.320 NA
ATOM     32  H   UNL     1      17.083   6.508  22.550  0.00  0.00    +0.119 HD
ATOM     33  H   UNL     1      15.517   6.780  22.194  0.00  0.00    +0.119 HD
ENDBRANCH  17   8
BRANCH  17  21
ATOM     21  C   UNL     1      17.977   6.944  20.338  0.00  0.00    +0.009 C 
ATOM     23  C   UNL     1      18.122   8.179  21.234  0.00  0.00    +0.009 C 
ATOM     24  C   UNL     1      19.208   6.044  20.494  0.00  0.00    +0.009 C 
ENDBRANCH  17  21
ENDBRANCH  19  17
ENDBRANCH  11   6
BRANCH  10   1
ATOM      1  O   UNL     1      12.147   6.793  21.993  0.00  0.00    -0.387 OA
ATOM     30  H   UNL     1      12.555   7.487  22.537  0.00  0.00    +0.210 HD
ENDBRANCH  10   1
BRANCH  12   2
ATOM      2  O   UNL     1      10.610   8.463  19.125  0.00  0.00    -0.389 OA
ATOM     31  H   UNL     1      10.096   9.288  19.099  0.00  0.00    +0.210 HD
ENDBRANCH  12   2
TORSDOF 11
ENDMDL
MODEL 6
REMARK VINA RESULT:      -6.0      2.824      7.772
REMARK  Name = 7049358
REMARK  15 active torsions:
REMARK  status: ('A' for Active; 'I' for Inactive)
REMARK    1  A    between atoms: O_1  and  C_10
REMARK    2  A    between atoms: O_2  and  C_12
REMARK    3  A    between atoms: N_6  and  C_11
REMARK    4  A    between atoms: N_7  and  C_18
REMARK    5  A    between atoms: N_8  and  C_17
REMARK    6  A    between atoms: C_14  and  C_16
REMARK    7  A    between atoms: C_17  and  C_19
REMARK    8  A    between atoms: C_17  and  C_21
REMARK    9  A    between atoms: C_18  and  C_20
REMARK   10  A    between atoms: C_18  and  C_25
REMARK   11  A    between atoms: C_20  and  C_22
REMARK   12  A    between atoms: C_21  and  C_23
REMARK   13  A    between atoms: C_21  and  C_24
REMARK   14  A    between atoms: C_22  and  C_26
REMARK   15  A    between atoms: C_22  and  C_27
REMARK                            x       y       z     vdW  Elec       q    Type
REMARK                         _______ _______ _______ _____ _____    ______ ____
ROOT
ATOM     10  C   UNL     1      13.063   6.896   1.900  0.00  0.00    +0.167 C 
ATOM     11  C   UNL     1      12.583   5.435   1.791  0.00  0.00    +0.127 C 
ATOM     12  C   UNL     1      13.392   7.271   3.350  0.00  0.00    +0.149 C 
ATOM     13  C   UNL     1      12.203   7.030   4.296  0.00  0.00    +0.074 C 
ATOM     14  C   UNL     1      11.433   5.780   3.977  0.00  0.00    +0.015 C 
ATOM     15  C   UNL     1      11.599   5.051   2.862  0.00  0.00    +0.006 C 
ENDROOT
BRANCH  14  16
ATOM      3  O   UNL     1       9.809   4.274   4.759  0.00  0.00    -0.271 OA
ATOM      7  N   UNL     1      10.338   6.138   6.056  0.00  0.00    -0.300 N 
ATOM     16  C   UNL     1      10.447   5.308   4.954  0.00  0.00    +0.241 C 
ATOM     29  H   UNL     1      10.965   6.932   6.145  0.00  0.00    +0.150 HD
BRANCH   7  18
ATOM     18  C   UNL     1       9.429   5.881   7.149  0.00  0.00    +0.159 C 
BRANCH  18  25
ATOM      5  O   UNL     1      10.773   5.637   9.161  0.00  0.00    -0.274 OA
ATOM      9  N   UNL     1      10.175   3.745   8.004  0.00  0.00    -0.328 N 
ATOM     25  C   UNL     1      10.209   5.110   8.206  0.00  0.00    +0.231 C 
ATOM     34  H   UNL     1      10.645   3.113   8.644  0.00  0.00    +0.145 HD
ATOM     35  H   UNL     1       9.686   3.320   7.223  0.00  0.00    +0.145 HD
ENDBRANCH  18  25
BRANCH  18  20
ATOM     20  C   UNL     1       8.860   7.173   7.748  0.00  0.00    +0.034 C 
BRANCH  20  22
ATOM     22  C   UNL     1       9.319   8.468   7.048  0.00  0.00    -0.015 C 
ATOM     26  C   UNL     1       8.326   8.939   5.984  0.00  0.00    +0.007 C 
ATOM     27  C   UNL     1       9.524   9.574   8.086  0.00  0.00    +0.007 C 
ENDBRANCH  20  22
ENDBRANCH  18  20
ENDBRANCH   7  18
ENDBRANCH  14  16
BRANCH  11   6
ATOM      4  O   UNL     1      13.157   3.200   0.076  0.00  0.00    -0.274 OA
ATOM      6  N   UNL     1      11.997   5.163   0.501  0.00  0.00    -0.305 N 
ATOM     19  C   UNL     1      12.337   4.054  -0.260  0.00  0.00    +0.231 C 
ATOM     28  H   UNL     1      11.338   5.837   0.123  0.00  0.00    +0.149 HD
BRANCH  19  17
ATOM     17  C   UNL     1      11.584   4.002  -1.589  0.00  0.00    +0.140 C 
BRANCH  17   8
ATOM      8  N   UNL     1      10.160   4.143  -1.276  0.00  0.00    -0.320 NA
ATOM     32  H   UNL     1       9.684   3.256  -1.434  0.00  0.00    +0.119 HD
ATOM     33  H   UNL     1      10.048   4.352  -0.285  0.00  0.00    +0.119 HD
ENDBRANCH  17   8
BRANCH  17  21
ATOM     21  C   UNL     1      11.860   2.712  -2.395  0.00  0.00    +0.009 C 
ATOM     23  C   UNL     1      10.563   2.002  -2.797  0.00  0.00    +0.009 C 
ATOM     24  C   UNL     1      12.736   2.927  -3.634  0.00  0.00    +0.009 C 
ENDBRANCH  17  21
ENDBRANCH  19  17
ENDBRANCH  11   6
BRANCH  10   1
ATOM      1  O   UNL     1      12.044   7.773   1.418  0.00  0.00    -0.387 OA
ATOM     30  H   UNL     1      11.597   8.155   2.191  0.00  0.00    +0.210 HD
ENDBRANCH  10   1
BRANCH  12   2
ATOM      2  O   UNL     1      14.532   6.542   3.801  0.00  0.00    -0.389 OA
ATOM     31  H   UNL     1      14.634   6.713   4.752  0.00  0.00    +0.210 HD
ENDBRANCH  12   2
TORSDOF 11
ENDMDL
MODEL 7
REMARK VINA RESULT:      -5.8     24.334     27.760
REMARK  Name = 7049358
REMARK  15 active torsions:
REMARK  status: ('A' for Active; 'I' for Inactive)
REMARK    1  A    between atoms: O_1  and  C_10
REMARK    2  A    between atoms: O_2  and  C_12
REMARK    3  A    between atoms: N_6  and  C_11
REMARK    4  A    between atoms: N_7  and  C_18
REMARK    5  A    between atoms: N_8  and  C_17
REMARK    6  A    between atoms: C_14  and  C_16
REMARK    7  A    between atoms: C_17  and  C_19
REMARK    8  A    between atoms: C_17  and  C_21
REMARK    9  A    between atoms: C_18  and  C_20
REMARK   10  A    between atoms: C_18  and  C_25
REMARK   11  A    between atoms: C_20  and  C_22
REMARK   12  A    between atoms: C_21  and  C_23
REMARK   13  A    between atoms: C_21  and  C_24
REMARK   14  A    between atoms: C_22  and  C_26
REMARK   15  A    between atoms: C_22  and  C_27
REMARK                            x       y       z     vdW  Elec       q    Type
REMARK                         _______ _______ _______ _____ _____    ______ ____
ROOT
ATOM     10  C   UNL     1      -8.460 -10.324  18.013  0.00  0.00    +0.167 C 
ATOM     11  C   UNL     1      -7.827  -9.117  17.294  0.00  0.00    +0.127 C 
ATOM     12  C   UNL     1      -7.414 -11.115  18.808  0.00  0.00    +0.149 C 
ATOM     13  C   UNL     1      -6.242 -11.577  17.925  0.00  0.00    +0.074 C 
ATOM     14  C   UNL     1      -5.827 -10.555  16.906  0.00  0.00    +0.015 C 
ATOM     15  C   UNL     1      -6.523  -9.444  16.618  0.00  0.00    +0.006 C 
ENDROOT
BRANCH  14  16
ATOM      3  O   UNL     1      -3.501 -10.867  16.793  0.00  0.00    -0.271 OA
ATOM      7  N   UNL     1      -4.734 -10.841  14.814  0.00  0.00    -0.300 N 
ATOM     16  C   UNL     1      -4.568 -10.770  16.186  0.00  0.00    +0.241 C 
ATOM     29  H   UNL     1      -5.673 -10.816  14.425  0.00  0.00    +0.150 HD
BRANCH   7  18
ATOM     18  C   UNL     1      -3.637 -11.045  13.896  0.00  0.00    +0.159 C 
BRANCH  18  25
ATOM      5  O   UNL     1      -3.989 -13.353  13.218  0.00  0.00    -0.274 OA
ATOM      9  N   UNL     1      -2.246 -12.879  14.636  0.00  0.00    -0.328 N 
ATOM     25  C   UNL     1      -3.345 -12.539  13.875  0.00  0.00    +0.231 C 
ATOM     34  H   UNL     1      -1.934 -13.843  14.698  0.00  0.00    +0.145 HD
ATOM     35  H   UNL     1      -1.709 -12.193  15.157  0.00  0.00    +0.145 HD
ENDBRANCH  18  25
BRANCH  18  20
ATOM     20  C   UNL     1      -3.963 -10.548  12.482  0.00  0.00    +0.034 C 
BRANCH  20  22
ATOM     22  C   UNL     1      -2.750 -10.453  11.534  0.00  0.00    -0.015 C 
ATOM     26  C   UNL     1      -2.991  -9.484  10.375  0.00  0.00    +0.007 C 
ATOM     27  C   UNL     1      -1.512 -10.015  12.321  0.00  0.00    +0.007 C 
ENDBRANCH  20  22
ENDBRANCH  18  20
ENDBRANCH   7  18
ENDBRANCH  14  16
BRANCH  11   6
ATOM      4  O   UNL     1     -10.136  -7.488  17.826  0.00  0.00    -0.274 OA
ATOM      6  N   UNL     1      -8.726  -8.547  16.320  0.00  0.00    -0.305 N 
ATOM     19  C   UNL     1      -9.821  -7.770  16.671  0.00  0.00    +0.231 C 
ATOM     28  H   UNL     1      -8.566  -8.761  15.340  0.00  0.00    +0.149 HD
BRANCH  19  17
ATOM     17  C   UNL     1     -10.617  -7.297  15.455  0.00  0.00    +0.140 C 
BRANCH  17   8
ATOM      8  N   UNL     1     -10.514  -5.836  15.420  0.00  0.00    -0.320 NA
ATOM     32  H   UNL     1     -11.257  -5.427  15.984  0.00  0.00    +0.119 HD
ATOM     33  H   UNL     1      -9.637  -5.546  15.852  0.00  0.00    +0.119 HD
ENDBRANCH  17   8
BRANCH  17  21
ATOM     21  C   UNL     1     -12.092  -7.759  15.477  0.00  0.00    +0.009 C 
ATOM     23  C   UNL     1     -13.049  -6.598  15.769  0.00  0.00    +0.009 C 
ATOM     24  C   UNL     1     -12.537  -8.487  14.204  0.00  0.00    +0.009 C 
ENDBRANCH  17  21
ENDBRANCH  19  17
ENDBRANCH  11   6
BRANCH  10   1
ATOM      1  O   UNL     1      -9.062 -11.194  17.052  0.00  0.00    -0.387 OA
ATOM     30  H   UNL     1      -9.346 -11.995  17.522  0.00  0.00    +0.210 HD
ENDBRANCH  10   1
BRANCH  12   2
ATOM      2  O   UNL     1      -6.929 -10.333  19.897  0.00  0.00    -0.389 OA
ATOM     31  H   UNL     1      -7.352 -10.661  20.708  0.00  0.00    +0.210 HD
ENDBRANCH  12   2
TORSDOF 11
ENDMDL
MODEL 8
REMARK VINA RESULT:      -5.7     12.360     15.799
REMARK  Name = 7049358
REMARK  15 active torsions:
REMARK  status: ('A' for Active; 'I' for Inactive)
REMARK    1  A    between atoms: O_1  and  C_10
REMARK    2  A    between atoms: O_2  and  C_12
REMARK    3  A    between atoms: N_6  and  C_11
REMARK    4  A    between atoms: N_7  and  C_18
REMARK    5  A    between atoms: N_8  and  C_17
REMARK    6  A    between atoms: C_14  and  C_16
REMARK    7  A    between atoms: C_17  and  C_19
REMARK    8  A    between atoms: C_17  and  C_21
REMARK    9  A    between atoms: C_18  and  C_20
REMARK   10  A    between atoms: C_18  and  C_25
REMARK   11  A    between atoms: C_20  and  C_22
REMARK   12  A    between atoms: C_21  and  C_23
REMARK   13  A    between atoms: C_21  and  C_24
REMARK   14  A    between atoms: C_22  and  C_26
REMARK   15  A    between atoms: C_22  and  C_27
REMARK                            x       y       z     vdW  Elec       q    Type
REMARK                         _______ _______ _______ _____ _____    ______ ____
ROOT
ATOM     10  C   UNL     1      13.600   7.013  20.892  0.00  0.00    +0.167 C 
ATOM     11  C   UNL     1      14.850   6.828  20.011  0.00  0.00    +0.127 C 
ATOM     12  C   UNL     1      12.336   7.200  20.044  0.00  0.00    +0.149 C 
ATOM     13  C   UNL     1      12.470   8.373  19.057  0.00  0.00    +0.074 C 
ATOM     14  C   UNL     1      13.836   8.482  18.443  0.00  0.00    +0.015 C 
ATOM     15  C   UNL     1      14.910   7.790  18.855  0.00  0.00    +0.006 C 
ENDROOT
BRANCH  14  16
ATOM      3  O   UNL     1      13.900   8.983  16.149  0.00  0.00    -0.271 OA
ATOM      7  N   UNL     1      14.304  10.686  17.688  0.00  0.00    -0.300 N 
ATOM     16  C   UNL     1      14.011   9.390  17.305  0.00  0.00    +0.241 C 
ATOM     29  H   UNL     1      14.304  10.925  18.675  0.00  0.00    +0.150 HD
BRANCH   7  18
ATOM     18  C   UNL     1      14.523  11.757  16.743  0.00  0.00    +0.159 C 
BRANCH  18  25
ATOM      5  O   UNL     1      14.503  14.163  17.090  0.00  0.00    -0.274 OA
ATOM      9  N   UNL     1      13.205  12.847  18.453  0.00  0.00    -0.328 N 
ATOM     25  C   UNL     1      14.110  13.051  17.431  0.00  0.00    +0.231 C 
ATOM     34  H   UNL     1      12.838  13.628  18.986  0.00  0.00    +0.145 HD
ATOM     35  H   UNL     1      12.870  11.923  18.710  0.00  0.00    +0.145 HD
ENDBRANCH  18  25
BRANCH  18  20
ATOM     20  C   UNL     1      15.985  11.842  16.288  0.00  0.00    +0.034 C 
BRANCH  20  22
ATOM     22  C   UNL     1      16.242  11.369  14.842  0.00  0.00    -0.015 C 
ATOM     26  C   UNL     1      15.084  11.711  13.903  0.00  0.00    +0.007 C 
ATOM     27  C   UNL     1      17.535  11.997  14.315  0.00  0.00    +0.007 C 
ENDBRANCH  20  22
ENDBRANCH  18  20
ENDBRANCH   7  18
ENDBRANCH  14  16
BRANCH  11   6
ATOM      4  O   UNL     1      17.457   5.872  19.266  0.00  0.00    -0.274 OA
ATOM      6  N   UNL     1      16.066   6.947  20.778  0.00  0.00    -0.305 N 
ATOM     19  C   UNL     1      17.284   6.452  20.337  0.00  0.00    +0.231 C 
ATOM     28  H   UNL     1      16.011   7.376  21.697  0.00  0.00    +0.149 HD
BRANCH  19  17
ATOM     17  C   UNL     1      18.412   6.696  21.339  0.00  0.00    +0.140 C 
BRANCH  17   8
ATOM      8  N   UNL     1      18.110   7.957  22.022  0.00  0.00    -0.320 NA
ATOM     32  H   UNL     1      17.404   7.797  22.739  0.00  0.00    +0.119 HD
ATOM     33  H   UNL     1      18.942   8.287  22.510  0.00  0.00    +0.119 HD
ENDBRANCH  17   8
BRANCH  17  21
ATOM     21  C   UNL     1      19.812   6.729  20.683  0.00  0.00    +0.009 C 
ATOM     23  C   UNL     1      20.656   7.900  21.201  0.00  0.00    +0.009 C 
ATOM     24  C   UNL     1      20.599   5.422  20.826  0.00  0.00    +0.009 C 
ENDBRANCH  17  21
ENDBRANCH  19  17
ENDBRANCH  11   6
BRANCH  10   1
ATOM      1  O   UNL     1      13.767   8.161  21.727  0.00  0.00    -0.387 OA
ATOM     30  H   UNL     1      13.740   7.857  22.650  0.00  0.00    +0.210 HD
ENDBRANCH  10   1
BRANCH  12   2
ATOM      2  O   UNL     1      12.036   5.998  19.338  0.00  0.00    -0.389 OA
ATOM     31  H   UNL     1      11.365   6.210  18.667  0.00  0.00    +0.210 HD
ENDBRANCH  12   2
TORSDOF 11
ENDMDL
MODEL 9
REMARK VINA RESULT:      -5.6     24.423     28.859
REMARK  Name = 7049358
REMARK  15 active torsions:
REMARK  status: ('A' for Active; 'I' for Inactive)
REMARK    1  A    between atoms: O_1  and  C_10
REMARK    2  A    between atoms: O_2  and  C_12
REMARK    3  A    between atoms: N_6  and  C_11
REMARK    4  A    between atoms: N_7  and  C_18
REMARK    5  A    between atoms: N_8  and  C_17
REMARK    6  A    between atoms: C_14  and  C_16
REMARK    7  A    between atoms: C_17  and  C_19
REMARK    8  A    between atoms: C_17  and  C_21
REMARK    9  A    between atoms: C_18  and  C_20
REMARK   10  A    between atoms: C_18  and  C_25
REMARK   11  A    between atoms: C_20  and  C_22
REMARK   12  A    between atoms: C_21  and  C_23
REMARK   13  A    between atoms: C_21  and  C_24
REMARK   14  A    between atoms: C_22  and  C_26
REMARK   15  A    between atoms: C_22  and  C_27
REMARK                            x       y       z     vdW  Elec       q    Type
REMARK                         _______ _______ _______ _____ _____    ______ ____
ROOT
ATOM     10  C   UNL     1      -3.792 -11.230  16.585  0.00  0.00    +0.167 C 
ATOM     11  C   UNL     1      -5.056 -11.416  15.724  0.00  0.00    +0.127 C 
ATOM     12  C   UNL     1      -4.016 -11.712  18.024  0.00  0.00    +0.149 C 
ATOM     13  C   UNL     1      -5.218 -11.017  18.686  0.00  0.00    +0.074 C 
ATOM     14  C   UNL     1      -6.376 -10.809  17.752  0.00  0.00    +0.015 C 
ATOM     15  C   UNL     1      -6.319 -10.992  16.423  0.00  0.00    +0.006 C 
ENDROOT
BRANCH  14  16
ATOM      3  O   UNL     1      -7.940 -10.648  19.496  0.00  0.00    -0.271 OA
ATOM      7  N   UNL     1      -8.467  -9.732  17.419  0.00  0.00    -0.300 N 
ATOM     16  C   UNL     1      -7.661 -10.398  18.324  0.00  0.00    +0.241 C 
ATOM     29  H   UNL     1      -8.106  -9.519  16.494  0.00  0.00    +0.150 HD
BRANCH   7  18
ATOM     18  C   UNL     1      -9.782  -9.233  17.752  0.00  0.00    +0.159 C 
BRANCH  18  25
ATOM      5  O   UNL     1     -10.836  -7.123  17.161  0.00  0.00    -0.274 OA
ATOM      9  N   UNL     1      -9.198  -7.956  15.783  0.00  0.00    -0.328 N 
ATOM     25  C   UNL     1     -10.024  -8.003  16.887  0.00  0.00    +0.231 C 
ATOM     34  H   UNL     1      -9.248  -7.181  15.129  0.00  0.00    +0.145 HD
ATOM     35  H   UNL     1      -8.516  -8.679  15.580  0.00  0.00    +0.145 HD
ENDBRANCH  18  25
BRANCH  18  20
ATOM     20  C   UNL     1     -10.879 -10.277  17.509  0.00  0.00    +0.034 C 
BRANCH  20  22
ATOM     22  C   UNL     1     -11.892 -10.432  18.662  0.00  0.00    -0.015 C 
ATOM     26  C   UNL     1     -11.307 -10.010  20.011  0.00  0.00    +0.007 C 
ATOM     27  C   UNL     1     -13.146  -9.607  18.364  0.00  0.00    +0.007 C 
ENDBRANCH  20  22
ENDBRANCH  18  20
ENDBRANCH   7  18
ENDBRANCH  14  16
BRANCH  11   6
ATOM      4  O   UNL     1      -4.356 -12.526  13.166  0.00  0.00    -0.274 OA
ATOM      6  N   UNL     1      -4.956 -10.707  14.472  0.00  0.00    -0.305 N 
ATOM     19  C   UNL     1      -4.609 -11.328  13.281  0.00  0.00    +0.231 C 
ATOM     28  H   UNL     1      -5.109  -9.702  14.478  0.00  0.00    +0.149 HD
BRANCH  19  17
ATOM     17  C   UNL     1      -4.564 -10.354  12.104  0.00  0.00    +0.140 C 
BRANCH  17   8
ATOM      8  N   UNL     1      -5.709 -10.668  11.247  0.00  0.00    -0.320 NA
ATOM     32  H   UNL     1      -6.546 -10.220  11.615  0.00  0.00    +0.119 HD
ATOM     33  H   UNL     1      -5.559 -10.272  10.319  0.00  0.00    +0.119 HD
ENDBRANCH  17   8
BRANCH  17  21
ATOM     21  C   UNL     1      -3.234 -10.413  11.317  0.00  0.00    +0.009 C 
ATOM     23  C   UNL     1      -3.175  -9.347  10.217  0.00  0.00    +0.009 C 
ATOM     24  C   UNL     1      -1.983 -10.318  12.197  0.00  0.00    +0.009 C 
ENDBRANCH  17  21
ENDBRANCH  19  17
ENDBRANCH  11   6
BRANCH  10   1
ATOM      1  O   UNL     1      -3.430  -9.848  16.615  0.00  0.00    -0.387 OA
ATOM     30  H   UNL     1      -3.496  -9.510  15.706  0.00  0.00    +0.210 HD
ENDBRANCH  10   1
BRANCH  12   2
ATOM      2  O   UNL     1      -4.195 -13.126  18.047  0.00  0.00    -0.389 OA
ATOM     31  H   UNL     1      -3.489 -13.521  17.507  0.00  0.00    +0.210 HD
ENDBRANCH  12   2
TORSDOF 11
ENDMDL
MODEL 10
REMARK VINA RESULT:      -5.5     31.386     35.505
REMARK  Name = 7049358
REMARK  15 active torsions:
REMARK  status: ('A' for Active; 'I' for Inactive)
REMARK    1  A    between atoms: O_1  and  C_10
REMARK    2  A    between atoms: O_2  and  C_12
REMARK    3  A    between atoms: N_6  and  C_11
REMARK    4  A    between atoms: N_7  and  C_18
REMARK    5  A    between atoms: N_8  and  C_17
REMARK    6  A    between atoms: C_14  and  C_16
REMARK    7  A    between atoms: C_17  and  C_19
REMARK    8  A    between atoms: C_17  and  C_21
REMARK    9  A    between atoms: C_18  and  C_20
REMARK   10  A    between atoms: C_18  and  C_25
REMARK   11  A    between atoms: C_20  and  C_22
REMARK   12  A    between atoms: C_21  and  C_23
REMARK   13  A    between atoms: C_21  and  C_24
REMARK   14  A    between atoms: C_22  and  C_26
REMARK   15  A    between atoms: C_22  and  C_27
REMARK                            x       y       z     vdW  Elec       q    Type
REMARK                         _______ _______ _______ _____ _____    ______ ____
ROOT
ATOM     10  C   UNL     1      -4.601   9.322  37.379  0.00  0.00    +0.167 C 
ATOM     11  C   UNL     1      -3.102   9.065  37.132  0.00  0.00    +0.127 C 
ATOM     12  C   UNL     1      -5.211  10.195  36.276  0.00  0.00    +0.149 C 
ATOM     13  C   UNL     1      -4.462  11.530  36.113  0.00  0.00    +0.074 C 
ATOM     14  C   UNL     1      -2.973  11.399  36.261  0.00  0.00    +0.015 C 
ATOM     15  C   UNL     1      -2.349  10.298  36.708  0.00  0.00    +0.006 C 
ENDROOT
BRANCH  14  16
ATOM      3  O   UNL     1      -2.445  13.687  36.199  0.00  0.00    -0.271 OA
ATOM      7  N   UNL     1      -1.027  12.172  35.136  0.00  0.00    -0.300 N 
ATOM     16  C   UNL     1      -2.138  12.540  35.874  0.00  0.00    +0.241 C 
ATOM     29  H   UNL     1      -0.836  11.186  34.985  0.00  0.00    +0.150 HD
BRANCH   7  18
ATOM     18  C   UNL     1      -0.059  13.123  34.640  0.00  0.00    +0.159 C 
BRANCH  18  25
ATOM      5  O   UNL     1       1.057  14.565  36.248  0.00  0.00    -0.274 OA
ATOM      9  N   UNL     1       1.499  12.312  36.303  0.00  0.00    -0.328 N 
ATOM     25  C   UNL     1       0.887  13.438  35.791  0.00  0.00    +0.231 C 
ATOM     34  H   UNL     1       2.144  12.380  37.083  0.00  0.00    +0.145 HD
ATOM     35  H   UNL     1       1.332  11.382  35.931  0.00  0.00    +0.145 HD
ENDBRANCH  18  25
BRANCH  18  20
ATOM     20  C   UNL     1       0.728  12.579  33.441  0.00  0.00    +0.034 C 
BRANCH  20  22
ATOM     22  C   UNL     1       1.045  13.622  32.349  0.00  0.00    -0.015 C 
ATOM     26  C   UNL     1       1.473  12.973  31.031  0.00  0.00    +0.007 C 
ATOM     27  C   UNL     1      -0.177  14.511  32.112  0.00  0.00    +0.007 C 
ENDBRANCH  20  22
ENDBRANCH  18  20
ENDBRANCH   7  18
ENDBRANCH  14  16
BRANCH  11   6
ATOM      4  O   UNL     1      -0.761   7.396  37.168  0.00  0.00    -0.274 OA
ATOM      6  N   UNL     1      -2.458   8.504  38.295  0.00  0.00    -0.305 N 
ATOM     19  C   UNL     1      -1.327   7.705  38.216  0.00  0.00    +0.231 C 
ATOM     28  H   UNL     1      -2.881   8.673  39.203  0.00  0.00    +0.149 HD
BRANCH  19  17
ATOM     17  C   UNL     1      -0.849   7.230  39.587  0.00  0.00    +0.140 C 
BRANCH  17   8
ATOM      8  N   UNL     1       0.490   7.788  39.789  0.00  0.00    -0.320 NA
ATOM     32  H   UNL     1       1.190   7.063  39.635  0.00  0.00    +0.119 HD
ATOM     33  H   UNL     1       0.669   8.507  39.089  0.00  0.00    +0.119 HD
ENDBRANCH  17   8
BRANCH  17  21
ATOM     21  C   UNL     1      -0.848   5.690  39.731  0.00  0.00    +0.009 C 
ATOM     23  C   UNL     1       0.499   5.167  40.244  0.00  0.00    +0.009 C 
ATOM     24  C   UNL     1      -1.981   5.145  40.607  0.00  0.00    +0.009 C 
ENDBRANCH  17  21
ENDBRANCH  19  17
ENDBRANCH  11   6
BRANCH  10   1
ATOM      1  O   UNL     1      -4.774   9.980  38.635  0.00  0.00    -0.387 OA
ATOM     30  H   UNL     1      -5.349  10.749  38.485  0.00  0.00    +0.210 HD
ENDBRANCH  10   1
BRANCH  12   2
ATOM      2  O   UNL     1      -5.223   9.487  35.039  0.00  0.00    -0.389 OA
ATOM     31  H   UNL     1      -6.030   9.744  34.560  0.00  0.00    +0.210 HD
ENDBRANCH  12   2
TORSDOF 11
ENDMDL
