MODEL 1
REMARK VINA RESULT:      -7.3      0.000      0.000
REMARK  Name = 45784302
REMARK  6 active torsions:
REMARK  status: ('A' for Active; 'I' for Inactive)
REMARK    1  A    between atoms: O_4  and  C_21
REMARK    2  A    between atoms: O_4  and  C_27
REMARK    3  A    between atoms: N_5  and  C_13
REMARK    4  A    between atoms: C_8  and  C_12
REMARK    5  A    between atoms: C_13  and  C_14
REMARK    6  A    between atoms: C_25  and  C_26
REMARK                            x       y       z     vdW  Elec       q    Type
REMARK                         _______ _______ _______ _____ _____    ______ ____
ROOT
ATOM      5  N   UNL     1     -14.980   5.932  21.984  0.00  0.00    -0.297 NA
ATOM      8  C   UNL     1     -15.688   3.948  23.015  0.00  0.00    +0.070 C 
ATOM      9  C   UNL     1     -16.893   4.648  22.363  0.00  0.00    +0.028 C 
ATOM     10  C   UNL     1     -14.595   5.025  23.067  0.00  0.00    +0.096 C 
ATOM     11  C   UNL     1     -16.430   6.077  22.111  0.00  0.00    +0.085 C 
ENDROOT
BRANCH   8  12
ATOM      6  N   UNL     1     -15.737   4.014  25.523  0.00  0.00    -0.341 N 
ATOM      7  N   UNL     1     -16.434   2.120  24.592  0.00  0.00    -0.232 NA
ATOM     12  C   UNL     1     -15.966   3.327  24.364  0.00  0.00    +0.113 A 
ATOM     15  C   UNL     1     -16.081   3.197  26.569  0.00  0.00    +0.070 A 
ATOM     16  C   UNL     1     -16.512   2.021  25.962  0.00  0.00    +0.089 A 
ATOM     19  C   UNL     1     -16.052   3.380  27.952  0.00  0.00    +0.073 A 
ATOM     20  C   UNL     1     -16.944   0.953  26.767  0.00  0.00    +0.033 A 
ATOM     21  C   UNL     1     -16.485   2.307  28.738  0.00  0.00    +0.122 A 
ATOM     24  C   UNL     1     -16.924   1.115  28.159  0.00  0.00    +0.048 A 
ATOM     28  H   UNL     1     -15.379   4.958  25.600  0.00  0.00    +0.167 HD
BRANCH  21   4
ATOM      4  O   UNL     1     -16.478   2.429  30.097  0.00  0.00    -0.495 OA
ATOM     27  C   UNL     1     -15.341   1.913  30.785  0.00  0.00    +0.277 C 
ENDBRANCH  21   4
ENDBRANCH   8  12
BRANCH   5  13
ATOM     13  C   UNL     1     -14.287   7.210  22.056  0.00  0.00    +0.119 C 
BRANCH  13  14
ATOM     14  C   UNL     1     -13.403   7.438  20.859  0.00  0.00    -0.033 A 
ATOM     17  C   UNL     1     -12.027   7.229  20.960  0.00  0.00    +0.005 A 
ATOM     18  C   UNL     1     -13.959   7.857  19.651  0.00  0.00    +0.005 A 
ATOM     22  C   UNL     1     -11.208   7.439  19.851  0.00  0.00    +0.012 A 
ATOM     23  C   UNL     1     -13.139   8.068  18.542  0.00  0.00    +0.012 A 
ATOM     25  C   UNL     1     -11.764   7.859  18.641  0.00  0.00    +0.055 A 
BRANCH  25  26
ATOM      1  F   UNL     1     -10.168   6.978  17.093  0.00  0.00    -0.166 F 
ATOM      2  F   UNL     1      -9.966   9.067  17.659  0.00  0.00    -0.166 F 
ATOM      3  F   UNL     1     -11.572   8.445  16.330  0.00  0.00    -0.166 F 
ATOM     26  C   UNL     1     -10.888   8.080  17.456  0.00  0.00    +0.417 C 
ENDBRANCH  25  26
ENDBRANCH  13  14
ENDBRANCH   5  13
TORSDOF 5
ENDMDL
MODEL 2
REMARK VINA RESULT:      -7.0      1.406      1.991
REMARK  Name = 45784302
REMARK  6 active torsions:
REMARK  status: ('A' for Active; 'I' for Inactive)
REMARK    1  A    between atoms: O_4  and  C_21
REMARK    2  A    between atoms: O_4  and  C_27
REMARK    3  A    between atoms: N_5  and  C_13
REMARK    4  A    between atoms: C_8  and  C_12
REMARK    5  A    between atoms: C_13  and  C_14
REMARK    6  A    between atoms: C_25  and  C_26
REMARK                            x       y       z     vdW  Elec       q    Type
REMARK                         _______ _______ _______ _____ _____    ______ ____
ROOT
ATOM      5  N   UNL     1     -13.498   6.390  21.429  0.00  0.00    -0.297 NA
ATOM      8  C   UNL     1     -15.293   5.106  22.225  0.00  0.00    +0.070 C 
ATOM      9  C   UNL     1     -15.597   6.600  22.433  0.00  0.00    +0.028 C 
ATOM     10  C   UNL     1     -13.783   5.051  21.950  0.00  0.00    +0.096 C 
ATOM     11  C   UNL     1     -14.250   7.298  22.294  0.00  0.00    +0.085 C 
ENDROOT
BRANCH   8  12
ATOM      6  N   UNL     1     -15.559   4.588  24.665  0.00  0.00    -0.341 N 
ATOM      7  N   UNL     1     -16.257   3.013  23.261  0.00  0.00    -0.232 NA
ATOM     12  C   UNL     1     -15.717   4.207  23.363  0.00  0.00    +0.113 A 
ATOM     15  C   UNL     1     -16.030   3.573  25.459  0.00  0.00    +0.070 A 
ATOM     16  C   UNL     1     -16.460   2.602  24.559  0.00  0.00    +0.089 A 
ATOM     19  C   UNL     1     -16.114   3.426  26.844  0.00  0.00    +0.073 A 
ATOM     20  C   UNL     1     -17.009   1.406  25.052  0.00  0.00    +0.033 A 
ATOM     21  C   UNL     1     -16.663   2.230  27.317  0.00  0.00    +0.122 A 
ATOM     24  C   UNL     1     -17.104   1.237  26.440  0.00  0.00    +0.048 A 
ATOM     28  H   UNL     1     -15.166   5.462  24.991  0.00  0.00    +0.167 HD
BRANCH  21   4
ATOM      4  O   UNL     1     -16.770   2.030  28.662  0.00  0.00    -0.495 OA
ATOM     27  C   UNL     1     -16.023   0.949  29.216  0.00  0.00    +0.277 C 
ENDBRANCH  21   4
ENDBRANCH   8  12
BRANCH   5  13
ATOM     13  C   UNL     1     -12.074   6.689  21.415  0.00  0.00    +0.119 C 
BRANCH  13  14
ATOM     14  C   UNL     1     -11.696   7.570  20.254  0.00  0.00    -0.033 A 
ATOM     17  C   UNL     1     -11.539   8.943  20.444  0.00  0.00    +0.005 A 
ATOM     18  C   UNL     1     -11.503   7.013  18.990  0.00  0.00    +0.005 A 
ATOM     22  C   UNL     1     -11.188   9.759  19.369  0.00  0.00    +0.012 A 
ATOM     23  C   UNL     1     -11.152   7.830  17.915  0.00  0.00    +0.012 A 
ATOM     25  C   UNL     1     -10.994   9.202  18.104  0.00  0.00    +0.055 A 
BRANCH  25  26
ATOM      1  F   UNL     1      -9.687  11.025  17.273  0.00  0.00    -0.166 F 
ATOM      2  F   UNL     1     -11.679  10.759  16.442  0.00  0.00    -0.166 F 
ATOM      3  F   UNL     1     -10.078   9.390  15.902  0.00  0.00    -0.166 F 
ATOM     26  C   UNL     1     -10.615  10.075  16.956  0.00  0.00    +0.417 C 
ENDBRANCH  25  26
ENDBRANCH  13  14
ENDBRANCH   5  13
TORSDOF 5
ENDMDL
MODEL 3
REMARK VINA RESULT:      -6.9     19.789     20.810
REMARK  Name = 45784302
REMARK  6 active torsions:
REMARK  status: ('A' for Active; 'I' for Inactive)
REMARK    1  A    between atoms: O_4  and  C_21
REMARK    2  A    between atoms: O_4  and  C_27
REMARK    3  A    between atoms: N_5  and  C_13
REMARK    4  A    between atoms: C_8  and  C_12
REMARK    5  A    between atoms: C_13  and  C_14
REMARK    6  A    between atoms: C_25  and  C_26
REMARK                            x       y       z     vdW  Elec       q    Type
REMARK                         _______ _______ _______ _____ _____    ______ ____
ROOT
ATOM      5  N   UNL     1      -1.942 -10.981  13.757  0.00  0.00    -0.297 NA
ATOM      8  C   UNL     1      -3.016 -10.208  15.694  0.00  0.00    +0.070 C 
ATOM      9  C   UNL     1      -1.658 -10.825  16.070  0.00  0.00    +0.028 C 
ATOM     10  C   UNL     1      -3.287 -10.706  14.267  0.00  0.00    +0.096 C 
ATOM     11  C   UNL     1      -1.252 -11.653  14.858  0.00  0.00    +0.085 C 
ENDROOT
BRANCH   8  12
ATOM      6  N   UNL     1      -5.381  -9.963  16.495  0.00  0.00    -0.341 N 
ATOM      7  N   UNL     1      -4.089 -11.317  17.694  0.00  0.00    -0.232 NA
ATOM     12  C   UNL     1      -4.143 -10.520  16.650  0.00  0.00    +0.113 A 
ATOM     15  C   UNL     1      -6.181 -10.431  17.506  0.00  0.00    +0.070 A 
ATOM     16  C   UNL     1      -5.352 -11.273  18.241  0.00  0.00    +0.089 A 
ATOM     19  C   UNL     1      -7.518 -10.197  17.831  0.00  0.00    +0.073 A 
ATOM     20  C   UNL     1      -5.870 -11.931  19.370  0.00  0.00    +0.033 A 
ATOM     21  C   UNL     1      -8.017 -10.858  18.957  0.00  0.00    +0.122 A 
ATOM     24  C   UNL     1      -7.210 -11.710  19.715  0.00  0.00    +0.048 A 
ATOM     28  H   UNL     1      -5.662  -9.319  15.766  0.00  0.00    +0.167 HD
BRANCH  21   4
ATOM      4  O   UNL     1      -9.317 -10.667  19.323  0.00  0.00    -0.495 OA
ATOM     27  C   UNL     1      -9.976 -11.761  19.957  0.00  0.00    +0.277 C 
ENDBRANCH  21   4
ENDBRANCH   8  12
BRANCH   5  13
ATOM     13  C   UNL     1      -1.961 -11.783  12.544  0.00  0.00    +0.119 C 
BRANCH  13  14
ATOM     14  C   UNL     1      -2.877 -11.200  11.500  0.00  0.00    -0.033 A 
ATOM     17  C   UNL     1      -2.667  -9.902  11.035  0.00  0.00    +0.005 A 
ATOM     18  C   UNL     1      -3.935 -11.959  10.999  0.00  0.00    +0.005 A 
ATOM     22  C   UNL     1      -3.514  -9.363  10.068  0.00  0.00    +0.012 A 
ATOM     23  C   UNL     1      -4.783 -11.418  10.031  0.00  0.00    +0.012 A 
ATOM     25  C   UNL     1      -4.572 -10.121   9.565  0.00  0.00    +0.055 A 
BRANCH  25  26
ATOM      1  F   UNL     1      -6.658 -10.215   8.399  0.00  0.00    -0.166 F 
ATOM      2  F   UNL     1      -4.916  -9.548   7.283  0.00  0.00    -0.166 F 
ATOM      3  F   UNL     1      -5.826  -8.246   8.768  0.00  0.00    -0.166 F 
ATOM     26  C   UNL     1      -5.476  -9.545   8.529  0.00  0.00    +0.417 C 
ENDBRANCH  25  26
ENDBRANCH  13  14
ENDBRANCH   5  13
TORSDOF 5
ENDMDL
MODEL 4
REMARK VINA RESULT:      -6.9     30.195     34.845
REMARK  Name = 45784302
REMARK  6 active torsions:
REMARK  status: ('A' for Active; 'I' for Inactive)
REMARK    1  A    between atoms: O_4  and  C_21
REMARK    2  A    between atoms: O_4  and  C_27
REMARK    3  A    between atoms: N_5  and  C_13
REMARK    4  A    between atoms: C_8  and  C_12
REMARK    5  A    between atoms: C_13  and  C_14
REMARK    6  A    between atoms: C_25  and  C_26
REMARK                            x       y       z     vdW  Elec       q    Type
REMARK                         _______ _______ _______ _____ _____    ______ ____
ROOT
ATOM      5  N   UNL     1      16.187   8.537   5.125  0.00  0.00    -0.297 NA
ATOM      8  C   UNL     1      14.074   7.528   4.981  0.00  0.00    +0.070 C 
ATOM      9  C   UNL     1      14.118   8.763   4.065  0.00  0.00    +0.028 C 
ATOM     10  C   UNL     1      15.286   7.689   5.909  0.00  0.00    +0.096 C 
ATOM     11  C   UNL     1      15.324   9.563   4.540  0.00  0.00    +0.085 C 
ENDROOT
BRANCH   8  12
ATOM      6  N   UNL     1      12.675   6.442   6.758  0.00  0.00    -0.341 N 
ATOM      7  N   UNL     1      11.645   7.971   5.517  0.00  0.00    -0.232 NA
ATOM     12  C   UNL     1      12.777   7.340   5.733  0.00  0.00    +0.113 A 
ATOM     15  C   UNL     1      11.391   6.497   7.237  0.00  0.00    +0.070 A 
ATOM     16  C   UNL     1      10.768   7.458   6.446  0.00  0.00    +0.089 A 
ATOM     19  C   UNL     1      10.741   5.809   8.262  0.00  0.00    +0.073 A 
ATOM     20  C   UNL     1       9.417   7.766   6.678  0.00  0.00    +0.033 A 
ATOM     21  C   UNL     1       9.396   6.127   8.479  0.00  0.00    +0.122 A 
ATOM     24  C   UNL     1       8.744   7.087   7.703  0.00  0.00    +0.048 A 
ATOM     28  H   UNL     1      13.412   5.841   7.105  0.00  0.00    +0.167 HD
BRANCH  21   4
ATOM      4  O   UNL     1       8.709   5.486   9.468  0.00  0.00    -0.495 OA
ATOM     27  C   UNL     1       9.289   4.291   9.986  0.00  0.00    +0.277 C 
ENDBRANCH  21   4
ENDBRANCH   8  12
BRANCH   5  13
ATOM     13  C   UNL     1      17.256   9.106   5.930  0.00  0.00    +0.119 C 
BRANCH  13  14
ATOM     14  C   UNL     1      18.610   8.607   5.498  0.00  0.00    -0.033 A 
ATOM     17  C   UNL     1      19.642   8.498   6.431  0.00  0.00    +0.005 A 
ATOM     18  C   UNL     1      18.832   8.254   4.167  0.00  0.00    +0.005 A 
ATOM     22  C   UNL     1      20.896   8.036   6.031  0.00  0.00    +0.012 A 
ATOM     23  C   UNL     1      20.086   7.791   3.768  0.00  0.00    +0.012 A 
ATOM     25  C   UNL     1      21.118   7.682   4.700  0.00  0.00    +0.055 A 
BRANCH  25  26
ATOM      1  F   UNL     1      22.840   7.627   3.042  0.00  0.00    -0.166 F 
ATOM      2  F   UNL     1      22.515   5.821   4.207  0.00  0.00    -0.166 F 
ATOM      3  F   UNL     1      23.470   7.550   5.116  0.00  0.00    -0.166 F 
ATOM     26  C   UNL     1      22.457   7.184   4.275  0.00  0.00    +0.417 C 
ENDBRANCH  25  26
ENDBRANCH  13  14
ENDBRANCH   5  13
TORSDOF 5
ENDMDL
MODEL 5
REMARK VINA RESULT:      -6.8     29.844     34.849
REMARK  Name = 45784302
REMARK  6 active torsions:
REMARK  status: ('A' for Active; 'I' for Inactive)
REMARK    1  A    between atoms: O_4  and  C_21
REMARK    2  A    between atoms: O_4  and  C_27
REMARK    3  A    between atoms: N_5  and  C_13
REMARK    4  A    between atoms: C_8  and  C_12
REMARK    5  A    between atoms: C_13  and  C_14
REMARK    6  A    between atoms: C_25  and  C_26
REMARK                            x       y       z     vdW  Elec       q    Type
REMARK                         _______ _______ _______ _____ _____    ______ ____
ROOT
ATOM      5  N   UNL     1      12.222   5.035   2.443  0.00  0.00    -0.297 NA
ATOM      8  C   UNL     1      12.347   3.547   0.635  0.00  0.00    +0.070 C 
ATOM      9  C   UNL     1      13.764   4.005   1.023  0.00  0.00    +0.028 C 
ATOM     10  C   UNL     1      11.412   4.550   1.324  0.00  0.00    +0.096 C 
ATOM     11  C   UNL     1      13.555   5.248   1.879  0.00  0.00    +0.085 C 
ENDROOT
BRANCH   8  12
ATOM      6  N   UNL     1      10.838   3.276  -1.352  0.00  0.00    -0.341 N 
ATOM      7  N   UNL     1      13.005   3.479  -1.804  0.00  0.00    -0.232 NA
ATOM     12  C   UNL     1      12.100   3.438  -0.852  0.00  0.00    +0.113 A 
ATOM     15  C   UNL     1      10.934   3.208  -2.718  0.00  0.00    +0.070 A 
ATOM     16  C   UNL     1      12.296   3.337  -2.976  0.00  0.00    +0.089 A 
ATOM     19  C   UNL     1       9.976   3.050  -3.720  0.00  0.00    +0.073 A 
ATOM     20  C   UNL     1      12.747   3.309  -4.307  0.00  0.00    +0.033 A 
ATOM     21  C   UNL     1      10.443   3.024  -5.038  0.00  0.00    +0.122 A 
ATOM     24  C   UNL     1      11.803   3.151  -5.329  0.00  0.00    +0.048 A 
ATOM     28  H   UNL     1       9.983   3.216  -0.814  0.00  0.00    +0.167 HD
BRANCH  21   4
ATOM      4  O   UNL     1       9.551   2.872  -6.060  0.00  0.00    -0.495 OA
ATOM     27  C   UNL     1       9.294   4.018  -6.868  0.00  0.00    +0.277 C 
ENDBRANCH  21   4
ENDBRANCH   8  12
BRANCH   5  13
ATOM     13  C   UNL     1      11.676   6.243   3.043  0.00  0.00    +0.119 C 
BRANCH  13  14
ATOM     14  C   UNL     1      11.180   5.999   4.444  0.00  0.00    -0.033 A 
ATOM     17  C   UNL     1      11.694   6.746   5.504  0.00  0.00    +0.005 A 
ATOM     18  C   UNL     1      10.206   5.029   4.680  0.00  0.00    +0.005 A 
ATOM     22  C   UNL     1      11.234   6.522   6.802  0.00  0.00    +0.012 A 
ATOM     23  C   UNL     1       9.747   4.805   5.979  0.00  0.00    +0.012 A 
ATOM     25  C   UNL     1      10.260   5.551   7.039  0.00  0.00    +0.055 A 
BRANCH  25  26
ATOM      1  F   UNL     1       9.356   4.032   8.649  0.00  0.00    -0.166 F 
ATOM      2  F   UNL     1       8.696   6.101   8.744  0.00  0.00    -0.166 F 
ATOM      3  F   UNL     1      10.702   5.563   9.390  0.00  0.00    -0.166 F 
ATOM     26  C   UNL     1       9.766   5.314   8.426  0.00  0.00    +0.417 C 
ENDBRANCH  25  26
ENDBRANCH  13  14
ENDBRANCH   5  13
TORSDOF 5
ENDMDL
MODEL 6
REMARK VINA RESULT:      -6.8     18.435     19.485
REMARK  Name = 45784302
REMARK  6 active torsions:
REMARK  status: ('A' for Active; 'I' for Inactive)
REMARK    1  A    between atoms: O_4  and  C_21
REMARK    2  A    between atoms: O_4  and  C_27
REMARK    3  A    between atoms: N_5  and  C_13
REMARK    4  A    between atoms: C_8  and  C_12
REMARK    5  A    between atoms: C_13  and  C_14
REMARK    6  A    between atoms: C_25  and  C_26
REMARK                            x       y       z     vdW  Elec       q    Type
REMARK                         _______ _______ _______ _____ _____    ______ ____
ROOT
ATOM      5  N   UNL     1      -4.266 -11.878  16.368  0.00  0.00    -0.297 NA
ATOM      8  C   UNL     1      -5.748 -10.408  17.437  0.00  0.00    +0.070 C 
ATOM      9  C   UNL     1      -5.468 -11.612  18.352  0.00  0.00    +0.028 C 
ATOM     10  C   UNL     1      -5.262 -10.853  16.050  0.00  0.00    +0.096 C 
ATOM     11  C   UNL     1      -4.871 -12.673  17.437  0.00  0.00    +0.085 C 
ENDROOT
BRANCH   8  12
ATOM      6  N   UNL     1      -7.571  -8.853  16.692  0.00  0.00    -0.341 N 
ATOM      7  N   UNL     1      -8.186 -10.458  18.101  0.00  0.00    -0.232 NA
ATOM     12  C   UNL     1      -7.183  -9.933  17.433  0.00  0.00    +0.113 A 
ATOM     15  C   UNL     1      -8.915  -8.668  16.893  0.00  0.00    +0.070 A 
ATOM     16  C   UNL     1      -9.275  -9.681  17.776  0.00  0.00    +0.089 A 
ATOM     19  C   UNL     1      -9.819  -7.729  16.394  0.00  0.00    +0.073 A 
ATOM     20  C   UNL     1     -10.612  -9.781  18.197  0.00  0.00    +0.033 A 
ATOM     21  C   UNL     1     -11.145  -7.842  16.823  0.00  0.00    +0.122 A 
ATOM     24  C   UNL     1     -11.537  -8.849  17.708  0.00  0.00    +0.048 A 
ATOM     28  H   UNL     1      -6.976  -8.287  16.099  0.00  0.00    +0.167 HD
BRANCH  21   4
ATOM      4  O   UNL     1     -12.073  -6.952  16.368  0.00  0.00    -0.495 OA
ATOM     27  C   UNL     1     -11.615  -5.949  15.463  0.00  0.00    +0.277 C 
ENDBRANCH  21   4
ENDBRANCH   8  12
BRANCH   5  13
ATOM     13  C   UNL     1      -3.911 -12.685  15.210  0.00  0.00    +0.119 C 
BRANCH  13  14
ATOM     14  C   UNL     1      -3.729 -11.844  13.974  0.00  0.00    -0.033 A 
ATOM     17  C   UNL     1      -4.708 -11.846  12.980  0.00  0.00    +0.005 A 
ATOM     18  C   UNL     1      -2.582 -11.064  13.824  0.00  0.00    +0.005 A 
ATOM     22  C   UNL     1      -4.539 -11.067  11.835  0.00  0.00    +0.012 A 
ATOM     23  C   UNL     1      -2.415 -10.285  12.678  0.00  0.00    +0.012 A 
ATOM     25  C   UNL     1      -3.393 -10.286  11.685  0.00  0.00    +0.055 A 
BRANCH  25  26
ATOM      1  F   UNL     1      -3.501 -10.110   9.302  0.00  0.00    -0.166 F 
ATOM      2  F   UNL     1      -1.937  -8.994  10.319  0.00  0.00    -0.166 F 
ATOM      3  F   UNL     1      -4.006  -8.336  10.443  0.00  0.00    -0.166 F 
ATOM     26  C   UNL     1      -3.216  -9.451  10.463  0.00  0.00    +0.417 C 
ENDBRANCH  25  26
ENDBRANCH  13  14
ENDBRANCH   5  13
TORSDOF 5
ENDMDL
MODEL 7
REMARK VINA RESULT:      -6.6     17.110     18.409
REMARK  Name = 45784302
REMARK  6 active torsions:
REMARK  status: ('A' for Active; 'I' for Inactive)
REMARK    1  A    between atoms: O_4  and  C_21
REMARK    2  A    between atoms: O_4  and  C_27
REMARK    3  A    between atoms: N_5  and  C_13
REMARK    4  A    between atoms: C_8  and  C_12
REMARK    5  A    between atoms: C_13  and  C_14
REMARK    6  A    between atoms: C_25  and  C_26
REMARK                            x       y       z     vdW  Elec       q    Type
REMARK                         _______ _______ _______ _____ _____    ______ ____
ROOT
ATOM      5  N   UNL     1      -7.699 -10.673  17.223  0.00  0.00    -0.297 NA
ATOM      8  C   UNL     1      -9.109  -8.810  17.431  0.00  0.00    +0.070 C 
ATOM      9  C   UNL     1      -9.548  -9.901  18.423  0.00  0.00    +0.028 C 
ATOM     10  C   UNL     1      -8.185  -9.534  16.441  0.00  0.00    +0.096 C 
ATOM     11  C   UNL     1      -8.877 -11.176  17.929  0.00  0.00    +0.085 C 
ENDROOT
BRANCH   8  12
ATOM      6  N   UNL     1     -10.002  -7.097  15.830  0.00  0.00    -0.341 N 
ATOM      7  N   UNL     1     -11.528  -8.270  16.939  0.00  0.00    -0.232 NA
ATOM     12  C   UNL     1     -10.242  -8.078  16.750  0.00  0.00    +0.113 A 
ATOM     15  C   UNL     1     -11.214  -6.624  15.394  0.00  0.00    +0.070 A 
ATOM     16  C   UNL     1     -12.150  -7.372  16.102  0.00  0.00    +0.089 A 
ATOM     19  C   UNL     1     -11.560  -5.637  14.472  0.00  0.00    +0.073 A 
ATOM     20  C   UNL     1     -13.519  -7.135  15.888  0.00  0.00    +0.033 A 
ATOM     21  C   UNL     1     -12.926  -5.413  14.272  0.00  0.00    +0.122 A 
ATOM     24  C   UNL     1     -13.890  -6.148  14.966  0.00  0.00    +0.048 A 
ATOM     28  H   UNL     1      -9.094  -6.773  15.521  0.00  0.00    +0.167 HD
BRANCH  21   4
ATOM      4  O   UNL     1     -13.324  -4.460  13.381  0.00  0.00    -0.495 OA
ATOM     27  C   UNL     1     -12.311  -3.880  12.562  0.00  0.00    +0.277 C 
ENDBRANCH  21   4
ENDBRANCH   8  12
BRANCH   5  13
ATOM     13  C   UNL     1      -7.073 -11.690  16.393  0.00  0.00    +0.119 C 
BRANCH  13  14
ATOM     14  C   UNL     1      -5.644 -11.347  16.065  0.00  0.00    -0.033 A 
ATOM     17  C   UNL     1      -4.684 -11.324  17.077  0.00  0.00    +0.005 A 
ATOM     18  C   UNL     1      -5.281 -11.054  14.751  0.00  0.00    +0.005 A 
ATOM     22  C   UNL     1      -3.360 -11.007  16.773  0.00  0.00    +0.012 A 
ATOM     23  C   UNL     1      -3.956 -10.737  14.448  0.00  0.00    +0.012 A 
ATOM     25  C   UNL     1      -2.996 -10.714  15.458  0.00  0.00    +0.055 A 
BRANCH  25  26
ATOM      1  F   UNL     1      -1.387 -10.017  13.832  0.00  0.00    -0.166 F 
ATOM      2  F   UNL     1      -0.729 -11.425  15.353  0.00  0.00    -0.166 F 
ATOM      3  F   UNL     1      -1.080  -9.343  15.871  0.00  0.00    -0.166 F 
ATOM     26  C   UNL     1      -1.580 -10.380  15.134  0.00  0.00    +0.417 C 
ENDBRANCH  25  26
ENDBRANCH  13  14
ENDBRANCH   5  13
TORSDOF 5
ENDMDL
MODEL 8
REMARK VINA RESULT:      -6.6     18.221     19.190
REMARK  Name = 45784302
REMARK  6 active torsions:
REMARK  status: ('A' for Active; 'I' for Inactive)
REMARK    1  A    between atoms: O_4  and  C_21
REMARK    2  A    between atoms: O_4  and  C_27
REMARK    3  A    between atoms: N_5  and  C_13
REMARK    4  A    between atoms: C_8  and  C_12
REMARK    5  A    between atoms: C_13  and  C_14
REMARK    6  A    between atoms: C_25  and  C_26
REMARK                            x       y       z     vdW  Elec       q    Type
REMARK                         _______ _______ _______ _____ _____    ______ ____
ROOT
ATOM      5  N   UNL     1      -4.445 -11.427  16.517  0.00  0.00    -0.297 NA
ATOM      8  C   UNL     1      -6.004 -10.180  17.748  0.00  0.00    +0.070 C 
ATOM      9  C   UNL     1      -5.206 -11.089  18.699  0.00  0.00    +0.028 C 
ATOM     10  C   UNL     1      -5.731 -10.748  16.348  0.00  0.00    +0.096 C 
ATOM     11  C   UNL     1      -4.554 -12.128  17.796  0.00  0.00    +0.085 C 
ENDROOT
BRANCH   8  12
ATOM      6  N   UNL     1      -8.015 -10.669  19.167  0.00  0.00    -0.341 N 
ATOM      7  N   UNL     1      -8.386  -9.431  17.359  0.00  0.00    -0.232 NA
ATOM     12  C   UNL     1      -7.478 -10.071  18.062  0.00  0.00    +0.113 A 
ATOM     15  C   UNL     1      -9.359 -10.395  19.180  0.00  0.00    +0.070 A 
ATOM     16  C   UNL     1      -9.566  -9.623  18.041  0.00  0.00    +0.089 A 
ATOM     19  C   UNL     1     -10.380 -10.748  20.063  0.00  0.00    +0.073 A 
ATOM     20  C   UNL     1     -10.862  -9.164  17.750  0.00  0.00    +0.033 A 
ATOM     21  C   UNL     1     -11.664 -10.284  19.758  0.00  0.00    +0.122 A 
ATOM     24  C   UNL     1     -11.903  -9.506  18.623  0.00  0.00    +0.048 A 
ATOM     28  H   UNL     1      -7.514 -11.215  19.856  0.00  0.00    +0.167 HD
BRANCH  21   4
ATOM      4  O   UNL     1     -12.702 -10.598  20.586  0.00  0.00    -0.495 OA
ATOM     27  C   UNL     1     -13.824  -9.717  20.575  0.00  0.00    +0.277 C 
ENDBRANCH  21   4
ENDBRANCH   8  12
BRANCH   5  13
ATOM     13  C   UNL     1      -4.143 -12.327  15.415  0.00  0.00    +0.119 C 
BRANCH  13  14
ATOM     14  C   UNL     1      -3.896 -11.581  14.131  0.00  0.00    -0.033 A 
ATOM     17  C   UNL     1      -4.907 -11.487  13.174  0.00  0.00    +0.005 A 
ATOM     18  C   UNL     1      -2.657 -10.983  13.899  0.00  0.00    +0.005 A 
ATOM     22  C   UNL     1      -4.679 -10.795  11.985  0.00  0.00    +0.012 A 
ATOM     23  C   UNL     1      -2.430 -10.291  12.709  0.00  0.00    +0.012 A 
ATOM     25  C   UNL     1      -3.440 -10.196  11.753  0.00  0.00    +0.055 A 
BRANCH  25  26
ATOM      1  F   UNL     1      -1.910  -9.025  10.336  0.00  0.00    -0.166 F 
ATOM      2  F   UNL     1      -3.970  -8.332  10.374  0.00  0.00    -0.166 F 
ATOM      3  F   UNL     1      -3.460 -10.187   9.360  0.00  0.00    -0.166 F 
ATOM     26  C   UNL     1      -3.198  -9.453  10.483  0.00  0.00    +0.417 C 
ENDBRANCH  25  26
ENDBRANCH  13  14
ENDBRANCH   5  13
TORSDOF 5
ENDMDL
MODEL 9
REMARK VINA RESULT:      -6.4     28.506     33.081
REMARK  Name = 45784302
REMARK  6 active torsions:
REMARK  status: ('A' for Active; 'I' for Inactive)
REMARK    1  A    between atoms: O_4  and  C_21
REMARK    2  A    between atoms: O_4  and  C_27
REMARK    3  A    between atoms: N_5  and  C_13
REMARK    4  A    between atoms: C_8  and  C_12
REMARK    5  A    between atoms: C_13  and  C_14
REMARK    6  A    between atoms: C_25  and  C_26
REMARK                            x       y       z     vdW  Elec       q    Type
REMARK                         _______ _______ _______ _____ _____    ______ ____
ROOT
ATOM      5  N   UNL     1      11.189   5.178   0.731  0.00  0.00    -0.297 NA
ATOM      8  C   UNL     1      10.053   6.266   2.471  0.00  0.00    +0.070 C 
ATOM      9  C   UNL     1      11.209   7.152   1.979  0.00  0.00    +0.028 C 
ATOM     10  C   UNL     1      10.358   4.874   1.899  0.00  0.00    +0.096 C 
ATOM     11  C   UNL     1      12.113   6.217   1.186  0.00  0.00    +0.085 C 
ENDROOT
BRANCH   8  12
ATOM      6  N   UNL     1      10.327   5.232   4.741  0.00  0.00    -0.341 N 
ATOM      7  N   UNL     1       9.235   7.167   4.686  0.00  0.00    -0.232 NA
ATOM     12  C   UNL     1       9.853   6.255   3.969  0.00  0.00    +0.113 A 
ATOM     15  C   UNL     1       9.994   5.501   6.044  0.00  0.00    +0.070 A 
ATOM     16  C   UNL     1       9.313   6.713   5.983  0.00  0.00    +0.089 A 
ATOM     19  C   UNL     1      10.223   4.809   7.234  0.00  0.00    +0.073 A 
ATOM     20  C   UNL     1       8.824   7.285   7.170  0.00  0.00    +0.033 A 
ATOM     21  C   UNL     1       9.729   5.392   8.406  0.00  0.00    +0.122 A 
ATOM     24  C   UNL     1       9.042   6.608   8.377  0.00  0.00    +0.048 A 
ATOM     28  H   UNL     1      10.834   4.419   4.414  0.00  0.00    +0.167 HD
BRANCH  21   4
ATOM      4  O   UNL     1       9.923   4.761   9.599  0.00  0.00    -0.495 OA
ATOM     27  C   UNL     1       8.778   4.587  10.431  0.00  0.00    +0.277 C 
ENDBRANCH  21   4
ENDBRANCH   8  12
BRANCH   5  13
ATOM     13  C   UNL     1      11.882   4.004   0.222  0.00  0.00    +0.119 C 
BRANCH  13  14
ATOM     14  C   UNL     1      11.594   3.771  -1.238  0.00  0.00    -0.033 A 
ATOM     17  C   UNL     1      10.553   4.461  -1.861  0.00  0.00    +0.005 A 
ATOM     18  C   UNL     1      12.368   2.868  -1.965  0.00  0.00    +0.005 A 
ATOM     22  C   UNL     1      10.287   4.246  -3.213  0.00  0.00    +0.012 A 
ATOM     23  C   UNL     1      12.101   2.654  -3.318  0.00  0.00    +0.012 A 
ATOM     25  C   UNL     1      11.061   3.343  -3.942  0.00  0.00    +0.055 A 
BRANCH  25  26
ATOM      1  F   UNL     1      10.444   4.254  -6.065  0.00  0.00    -0.166 F 
ATOM      2  F   UNL     1       9.742   2.251  -5.592  0.00  0.00    -0.166 F 
ATOM      3  F   UNL     1      11.835   2.589  -6.077  0.00  0.00    -0.166 F 
ATOM     26  C   UNL     1      10.779   3.117  -5.388  0.00  0.00    +0.417 C 
ENDBRANCH  25  26
ENDBRANCH  13  14
ENDBRANCH   5  13
TORSDOF 5
ENDMDL
MODEL 10
REMARK VINA RESULT:      -6.4     21.755     24.043
REMARK  Name = 45784302
REMARK  6 active torsions:
REMARK  status: ('A' for Active; 'I' for Inactive)
REMARK    1  A    between atoms: O_4  and  C_21
REMARK    2  A    between atoms: O_4  and  C_27
REMARK    3  A    between atoms: N_5  and  C_13
REMARK    4  A    between atoms: C_8  and  C_12
REMARK    5  A    between atoms: C_13  and  C_14
REMARK    6  A    between atoms: C_25  and  C_26
REMARK                            x       y       z     vdW  Elec       q    Type
REMARK                         _______ _______ _______ _____ _____    ______ ____
ROOT
ATOM      5  N   UNL     1      -3.334 -10.456  12.192  0.00  0.00    -0.297 NA
ATOM      8  C   UNL     1      -4.133  -9.521  10.195  0.00  0.00    +0.070 C 
ATOM      9  C   UNL     1      -5.194  -9.364  11.298  0.00  0.00    +0.028 C 
ATOM     10  C   UNL     1      -3.155 -10.571  10.743  0.00  0.00    +0.096 C 
ATOM     11  C   UNL     1      -4.779 -10.345  12.387  0.00  0.00    +0.085 C 
ENDROOT
BRANCH   8  12
ATOM      6  N   UNL     1      -5.531  -9.045   8.166  0.00  0.00    -0.341 N 
ATOM      7  N   UNL     1      -4.429 -10.976   8.150  0.00  0.00    -0.232 NA
ATOM     12  C   UNL     1      -4.679  -9.881   8.833  0.00  0.00    +0.113 A 
ATOM     15  C   UNL     1      -5.851  -9.639   6.972  0.00  0.00    +0.070 A 
ATOM     16  C   UNL     1      -5.152 -10.843   6.986  0.00  0.00    +0.089 A 
ATOM     19  C   UNL     1      -6.668  -9.240   5.914  0.00  0.00    +0.073 A 
ATOM     20  C   UNL     1      -5.262 -11.712   5.887  0.00  0.00    +0.033 A 
ATOM     21  C   UNL     1      -6.767 -10.117   4.829  0.00  0.00    +0.122 A 
ATOM     24  C   UNL     1      -6.077 -11.331   4.814  0.00  0.00    +0.048 A 
ATOM     28  H   UNL     1      -5.867  -8.148   8.492  0.00  0.00    +0.167 HD
BRANCH  21   4
ATOM      4  O   UNL     1      -7.551  -9.778   3.766  0.00  0.00    -0.495 OA
ATOM     27  C   UNL     1      -8.492 -10.754   3.322  0.00  0.00    +0.277 C 
ENDBRANCH  21   4
ENDBRANCH   8  12
BRANCH   5  13
ATOM     13  C   UNL     1      -2.763 -11.583  12.913  0.00  0.00    +0.119 C 
BRANCH  13  14
ATOM     14  C   UNL     1      -3.181 -11.595  14.360  0.00  0.00    -0.033 A 
ATOM     17  C   UNL     1      -2.694 -10.622  15.233  0.00  0.00    +0.005 A 
ATOM     18  C   UNL     1      -4.054 -12.578  14.825  0.00  0.00    +0.005 A 
ATOM     22  C   UNL     1      -3.082 -10.632  16.573  0.00  0.00    +0.012 A 
ATOM     23  C   UNL     1      -4.442 -12.587  16.166  0.00  0.00    +0.012 A 
ATOM     25  C   UNL     1      -3.956 -11.615  17.039  0.00  0.00    +0.055 A 
BRANCH  25  26
ATOM      1  F   UNL     1      -5.230 -12.637  18.786  0.00  0.00    -0.166 F 
ATOM      2  F   UNL     1      -5.016 -10.474  18.837  0.00  0.00    -0.166 F 
ATOM      3  F   UNL     1      -3.331 -11.751  19.344  0.00  0.00    -0.166 F 
ATOM     26  C   UNL     1      -4.374 -11.622  18.471  0.00  0.00    +0.417 C 
ENDBRANCH  25  26
ENDBRANCH  13  14
ENDBRANCH   5  13
TORSDOF 5
ENDMDL
