REMARK  Name = 45360653
REMARK  8 active torsions:
REMARK  status: ('A' for Active; 'I' for Inactive)
REMARK    1  A    between atoms: N_7  and  C_10
REMARK    2  A    between atoms: N_7  and  C_18
REMARK    3  A    between atoms: N_8  and  C_23
REMARK    4  A    between atoms: C_11  and  C_16
REMARK    5  A    between atoms: C_16  and  C_17
REMARK    6  A    between atoms: C_17  and  C_19
REMARK    7  A    between atoms: C_18  and  C_20
REMARK    8  A    between atoms: C_23  and  C_27
REMARK                            x       y       z     vdW  Elec       q    Type
REMARK                         _______ _______ _______ _____ _____    ______ ____
ROOT
ATOM      3  O   UNL     1      -0.454  -2.173   2.733  0.00  0.00    -0.274 OA
ATOM      5  N   UNL     1      -0.630   0.871   0.726  0.00  0.00    -0.286 NA
ATOM      6  N   UNL     1      -1.207  -0.102   3.294  0.00  0.00    -0.313 N 
ATOM      9  C   UNL     1      -0.553  -0.580   0.940  0.00  0.00    +0.145 C 
ATOM     10  C   UNL     1       1.465   0.342  -0.046  0.00  0.00    +0.070 C 
ATOM     11  C   UNL     1      -1.646   1.543   1.528  0.00  0.00    +0.075 C 
ATOM     12  C   UNL     1       0.831  -0.975   0.403  0.00  0.00    +0.048 C 
ATOM     13  C   UNL     1       0.735   1.388   0.783  0.00  0.00    +0.104 C 
ATOM     14  C   UNL     1      -1.413   1.300   3.011  0.00  0.00    +0.123 C 
ATOM     15  C   UNL     1      -0.710  -1.013   2.395  0.00  0.00    +0.230 C 
ATOM     33  H   UNL     1      -1.327  -0.408   4.255  0.00  0.00    +0.149 HD
ENDROOT
BRANCH  10   7
ATOM      7  N   UNL     1       2.909   0.368   0.127  0.00  0.00    -0.308 NA
ATOM     34  H   UNL     1       3.227   1.337   0.127  0.00  0.00    +0.123 HD
BRANCH   7  18
ATOM     18  C   UNL     1       3.579  -0.347  -0.952  0.00  0.00    +0.116 C 
BRANCH  18  20
ATOM      1  F   UNL     1       9.175  -0.338  -0.330  0.00  0.00    -0.205 F 
ATOM     20  C   UNL     1       5.071  -0.345  -0.786  0.00  0.00    -0.033 A 
ATOM     21  C   UNL     1       5.833   0.681  -1.345  0.00  0.00    +0.008 A 
ATOM     22  C   UNL     1       5.695  -1.369  -0.073  0.00  0.00    +0.008 A 
ATOM     24  C   UNL     1       7.219   0.683  -1.192  0.00  0.00    +0.038 A 
ATOM     25  C   UNL     1       7.081  -1.366   0.081  0.00  0.00    +0.038 A 
ATOM     26  C   UNL     1       7.843  -0.341  -0.479  0.00  0.00    +0.123 A 
ENDBRANCH  18  20
ENDBRANCH   7  18
ENDBRANCH  10   7
BRANCH  11  16
ATOM     16  C   UNL     1      -1.746   3.039   1.226  0.00  0.00    +0.029 C 
BRANCH  16  17
ATOM     17  C   UNL     1      -1.937   3.289  -0.263  0.00  0.00    +0.097 C 
BRANCH  17  19
ATOM      4  O   UNL     1      -4.330   2.942  -0.373  0.00  0.00    -0.276 OA
ATOM      8  N   UNL     1      -2.947   1.728  -1.788  0.00  0.00    -0.311 N 
ATOM     19  C   UNL     1      -3.212   2.656  -0.791  0.00  0.00    +0.213 C 
ATOM     35  H   UNL     1      -1.988   1.529  -2.055  0.00  0.00    +0.149 HD
BRANCH   8  23
ATOM     23  C   UNL     1      -3.995   0.988  -2.450  0.00  0.00    +0.139 C 
BRANCH  23  27
ATOM      2  F   UNL     1      -5.142  -3.853   0.186  0.00  0.00    -0.205 F 
ATOM     27  C   UNL     1      -4.301  -0.303  -1.747  0.00  0.00    -0.030 A 
ATOM     28  C   UNL     1      -3.617  -1.467  -2.097  0.00  0.00    +0.008 A 
ATOM     29  C   UNL     1      -5.269  -0.339  -0.743  0.00  0.00    +0.008 A 
ATOM     30  C   UNL     1      -3.901  -2.667  -1.445  0.00  0.00    +0.038 A 
ATOM     31  C   UNL     1      -5.554  -1.538  -0.091  0.00  0.00    +0.038 A 
ATOM     32  C   UNL     1      -4.870  -2.702  -0.441  0.00  0.00    +0.123 A 
ENDBRANCH  23  27
ENDBRANCH   8  23
ENDBRANCH  17  19
ENDBRANCH  16  17
ENDBRANCH  11  16
TORSDOF 8
