REMARK  Name = 44716833
REMARK  14 active torsions:
REMARK  status: ('A' for Active; 'I' for Inactive)
REMARK    1  A    between atoms: S_1  and  N_11
REMARK    2  A    between atoms: S_1  and  C_25
REMARK    3  A    between atoms: O_6  and  C_24
REMARK    4  A    between atoms: O_6  and  C_31
REMARK    5  A    between atoms: O_8  and  C_37
REMARK    6  A    between atoms: N_11  and  C_16
REMARK    7  A    between atoms: N_12  and  C_23
REMARK    8  A    between atoms: N_14  and  C_34
REMARK    9  A    between atoms: C_18  and  C_21
REMARK   10  A    between atoms: C_22  and  C_24
REMARK   11  A    between atoms: C_23  and  C_26
REMARK   12  A    between atoms: C_23  and  C_27
REMARK   13  A    between atoms: C_26  and  C_29
REMARK   14  A    between atoms: C_31  and  C_37
REMARK                            x       y       z     vdW  Elec       q    Type
REMARK                         _______ _______ _______ _____ _____    ______ ____
ROOT
ATOM      3  O   UNL     1      -3.688   2.815   0.788  0.00  0.00    -0.273 OA
ATOM     10  N   UNL     1      -1.545   2.072   0.263  0.00  0.00    -0.288 N 
ATOM     16  C   UNL     1       1.285   2.689  -0.056  0.00  0.00    +0.080 C 
ATOM     17  C   UNL     1       0.615   1.630  -0.931  0.00  0.00    +0.052 C 
ATOM     18  C   UNL     1      -0.653   1.046  -0.303  0.00  0.00    +0.163 C 
ATOM     19  C   UNL     1       0.276   3.754   0.364  0.00  0.00    +0.039 C 
ATOM     20  C   UNL     1      -0.911   3.118   1.076  0.00  0.00    +0.110 C 
ATOM     22  C   UNL     1      -2.942   2.027   0.200  0.00  0.00    +0.242 C 
ENDROOT
BRANCH  18  21
ATOM      2  O   UNL     1       0.246   0.431   1.823  0.00  0.00    -0.274 OA
ATOM     12  N   UNL     1      -0.772  -1.204   0.515  0.00  0.00    -0.302 N 
ATOM     21  C   UNL     1      -0.342   0.081   0.804  0.00  0.00    +0.234 C 
ATOM     40  H   UNL     1      -1.320  -1.369  -0.324  0.00  0.00    +0.150 HD
BRANCH  12  23
ATOM     23  C   UNL     1      -0.574  -2.323   1.407  0.00  0.00    +0.163 C 
BRANCH  23  27
ATOM      7  O   UNL     1      -2.891  -2.010   2.070  0.00  0.00    -0.274 OA
ATOM     15  N   UNL     1      -1.400  -2.802   3.628  0.00  0.00    -0.328 N 
ATOM     27  C   UNL     1      -1.746  -2.336   2.377  0.00  0.00    +0.231 C 
ATOM     41  H   UNL     1      -0.454  -3.089   3.861  0.00  0.00    +0.145 HD
ATOM     42  H   UNL     1      -2.092  -2.875   4.366  0.00  0.00    +0.145 HD
ENDBRANCH  23  27
BRANCH  23  26
ATOM     26  C   UNL     1      -0.488  -3.656   0.655  0.00  0.00    +0.067 C 
BRANCH  26  29
ATOM     29  C   UNL     1       0.643  -3.691  -0.344  0.00  0.00    -0.045 A 
ATOM     32  C   UNL     1       0.426  -3.274  -1.657  0.00  0.00    +0.004 A 
ATOM     33  C   UNL     1       1.905  -4.140   0.045  0.00  0.00    +0.004 A 
ATOM     35  C   UNL     1       1.470  -3.306  -2.581  0.00  0.00    +0.000 A 
ATOM     36  C   UNL     1       2.949  -4.172  -0.878  0.00  0.00    +0.000 A 
ATOM     38  C   UNL     1       2.732  -3.755  -2.192  0.00  0.00    +0.000 A 
ENDBRANCH  26  29
ENDBRANCH  23  26
ENDBRANCH  12  23
ENDBRANCH  18  21
BRANCH  16  11
ATOM     11  N   UNL     1       2.387   3.327  -0.817  0.00  0.00    -0.185 NA
ATOM     39  H   UNL     1       2.233   3.428  -1.828  0.00  0.00    +0.148 HD
BRANCH  11   1
ATOM      1  S   UNL     1       3.981   3.230  -0.239  0.00  0.00    +0.077 S 
ATOM      4  O   UNL     1       4.030   3.717   1.126  0.00  0.00    -0.152 OA
ATOM      5  O   UNL     1       4.875   3.776  -1.241  0.00  0.00    -0.152 OA
BRANCH   1  25
ATOM     13  N   UNL     1       4.367   0.738  -1.351  0.00  0.00    -0.216 NA
ATOM     14  N   UNL     1       4.565  -0.570   0.432  0.00  0.00    -0.338 N 
ATOM     25  C   UNL     1       4.250   1.483  -0.204  0.00  0.00    +0.211 A 
ATOM     28  C   UNL     1       4.369   0.693   0.915  0.00  0.00    +0.135 A 
ATOM     30  C   UNL     1       4.556  -0.493  -0.932  0.00  0.00    +0.201 A 
ATOM     34  C   UNL     1       4.748  -1.766   1.218  0.00  0.00    +0.150 C 
ENDBRANCH   1  25
ENDBRANCH  11   1
ENDBRANCH  16  11
BRANCH  22  24
ATOM     24  C   UNL     1      -3.549   0.943  -0.656  0.00  0.00    +0.256 C 
BRANCH  24   6
ATOM      6  O   UNL     1      -4.945   1.071  -0.537  0.00  0.00    -0.359 OA
BRANCH   6  31
ATOM     31  C   UNL     1      -5.641   0.093  -1.308  0.00  0.00    +0.280 C 
BRANCH  31  37
ATOM      9  O   UNL     1      -7.668   1.116  -0.440  0.00  0.00    -0.248 OA
ATOM     37  C   UNL     1      -7.125   0.277  -1.144  0.00  0.00    +0.331 C 
BRANCH  37   8
ATOM      8  O   UNL     1      -7.795  -0.630  -1.897  0.00  0.00    -0.479 OA
ATOM     43  H   UNL     1      -8.767  -0.532  -1.809  0.00  0.00    +0.295 HD
ENDBRANCH  37   8
ENDBRANCH  31  37
ENDBRANCH   6  31
ENDBRANCH  24   6
ENDBRANCH  22  24
TORSDOF 13
