MODEL 1
REMARK VINA RESULT:      -6.7      0.000      0.000
REMARK  Name = 45783464
REMARK  12 active torsions:
REMARK  status: ('A' for Active; 'I' for Inactive)
REMARK    1  A    between atoms: O_2  and  C_17
REMARK    2  A    between atoms: O_3  and  C_22
REMARK    3  A    between atoms: O_3  and  C_28
REMARK    4  A    between atoms: O_4  and  C_25
REMARK    5  A    between atoms: O_4  and  C_29
REMARK    6  A    between atoms: O_5  and  C_30
REMARK    7  A    between atoms: O_5  and  C_31
REMARK    8  A    between atoms: N_6  and  C_14
REMARK    9  A    between atoms: C_10  and  C_15
REMARK   10  A    between atoms: C_14  and  C_16
REMARK   11  A    between atoms: C_19  and  C_23
REMARK   12  A    between atoms: C_29  and  C_30
REMARK                            x       y       z     vdW  Elec       q    Type
REMARK                         _______ _______ _______ _____ _____    ______ ____
ROOT
ATOM      6  N   UNL     1      -3.181 -10.570  14.428  0.00  0.00    -0.287 NA
ATOM     10  C   UNL     1      -3.080 -11.274  15.721  0.00  0.00    +0.146 C 
ATOM     11  C   UNL     1      -1.763 -10.768  16.339  0.00  0.00    +0.030 C 
ATOM     12  C   UNL     1      -1.166  -9.835  15.296  0.00  0.00    +0.017 C 
ATOM     13  C   UNL     1      -1.810 -10.289  14.002  0.00  0.00    +0.085 C 
ENDROOT
BRANCH  10  15
ATOM      1  O   UNL     1      -4.119 -11.311  17.933  0.00  0.00    -0.336 OA
ATOM      7  N   UNL     1      -5.465 -10.570  16.304  0.00  0.00    -0.189 NA
ATOM      8  N   UNL     1      -5.340 -11.005  18.546  0.00  0.00    -0.054 NA
ATOM     15  C   UNL     1      -4.278 -11.024  16.615  0.00  0.00    +0.245 A 
ATOM     19  C   UNL     1      -6.082 -10.576  17.521  0.00  0.00    +0.221 A 
BRANCH  19  23
ATOM      9  N   UNL     1      -8.165 -10.816  18.601  0.00  0.00    -0.252 NA
ATOM     23  C   UNL     1      -7.441 -10.143  17.679  0.00  0.00    +0.115 A 
ATOM     24  C   UNL     1      -7.936  -9.101  16.914  0.00  0.00    +0.077 A 
ATOM     25  C   UNL     1      -9.260  -8.722  17.106  0.00  0.00    +0.124 A 
ATOM     26  C   UNL     1      -9.448 -10.421  18.762  0.00  0.00    +0.115 A 
ATOM     27  C   UNL     1     -10.038  -9.390  18.046  0.00  0.00    +0.065 A 
BRANCH  25   4
ATOM      4  O   UNL     1      -9.792  -7.703  16.380  0.00  0.00    -0.490 OA
BRANCH   4  29
ATOM     29  C   UNL     1     -11.190  -7.458  16.532  0.00  0.00    +0.257 C 
BRANCH  29  30
ATOM     30  C   UNL     1     -11.464  -5.987  16.283  0.00  0.00    +0.200 C 
BRANCH  30   5
ATOM      5  O   UNL     1     -12.564  -5.865  15.390  0.00  0.00    -0.380 OA
ATOM     31  C   UNL     1     -12.141  -5.448  14.098  0.00  0.00    +0.194 C 
ENDBRANCH  30   5
ENDBRANCH  29  30
ENDBRANCH   4  29
ENDBRANCH  25   4
ENDBRANCH  19  23
ENDBRANCH  10  15
BRANCH   6  14
ATOM     14  C   UNL     1      -3.925 -11.319  13.423  0.00  0.00    +0.124 C 
BRANCH  14  16
ATOM     16  C   UNL     1      -4.453 -10.424  12.333  0.00  0.00    +0.008 A 
ATOM     17  C   UNL     1      -5.544  -9.586  12.565  0.00  0.00    +0.125 A 
ATOM     18  C   UNL     1      -3.839 -10.439  11.080  0.00  0.00    +0.012 A 
ATOM     20  C   UNL     1      -6.021  -8.764  11.543  0.00  0.00    +0.091 A 
ATOM     21  C   UNL     1      -4.316  -9.617  10.060  0.00  0.00    +0.046 A 
ATOM     22  C   UNL     1      -5.407  -8.779  10.292  0.00  0.00    +0.124 A 
BRANCH  17   2
ATOM      2  O   UNL     1      -6.155  -9.560  13.782  0.00  0.00    -0.506 OA
ATOM     32  H   UNL     1      -6.416  -8.647  13.990  0.00  0.00    +0.292 HD
ENDBRANCH  17   2
BRANCH  22   3
ATOM      3  O   UNL     1      -5.872  -7.976   9.296  0.00  0.00    -0.495 OA
ATOM     28  C   UNL     1      -7.244  -8.119   8.935  0.00  0.00    +0.277 C 
ENDBRANCH  22   3
ENDBRANCH  14  16
ENDBRANCH   6  14
TORSDOF 10
ENDMDL
MODEL 2
REMARK VINA RESULT:      -6.5     26.117     29.748
REMARK  Name = 45783464
REMARK  12 active torsions:
REMARK  status: ('A' for Active; 'I' for Inactive)
REMARK    1  A    between atoms: O_2  and  C_17
REMARK    2  A    between atoms: O_3  and  C_22
REMARK    3  A    between atoms: O_3  and  C_28
REMARK    4  A    between atoms: O_4  and  C_25
REMARK    5  A    between atoms: O_4  and  C_29
REMARK    6  A    between atoms: O_5  and  C_30
REMARK    7  A    between atoms: O_5  and  C_31
REMARK    8  A    between atoms: N_6  and  C_14
REMARK    9  A    between atoms: C_10  and  C_15
REMARK   10  A    between atoms: C_14  and  C_16
REMARK   11  A    between atoms: C_19  and  C_23
REMARK   12  A    between atoms: C_29  and  C_30
REMARK                            x       y       z     vdW  Elec       q    Type
REMARK                         _______ _______ _______ _____ _____    ______ ____
ROOT
ATOM      6  N   UNL     1      12.599   8.661  18.661  0.00  0.00    -0.287 NA
ATOM     10  C   UNL     1      13.423   7.471  18.376  0.00  0.00    +0.146 C 
ATOM     11  C   UNL     1      13.943   7.690  16.943  0.00  0.00    +0.030 C 
ATOM     12  C   UNL     1      13.310   8.995  16.484  0.00  0.00    +0.017 C 
ATOM     13  C   UNL     1      12.089   9.129  17.372  0.00  0.00    +0.085 C 
ENDROOT
BRANCH  10  15
ATOM      1  O   UNL     1      14.243   6.555  20.488  0.00  0.00    -0.336 OA
ATOM      7  N   UNL     1      15.772   7.726  19.345  0.00  0.00    -0.189 NA
ATOM      8  N   UNL     1      15.414   6.521  21.256  0.00  0.00    -0.054 NA
ATOM     15  C   UNL     1      14.542   7.283  19.380  0.00  0.00    +0.245 A 
ATOM     19  C   UNL     1      16.269   7.233  20.517  0.00  0.00    +0.221 A 
BRANCH  19  23
ATOM      9  N   UNL     1      17.821   8.541  21.718  0.00  0.00    -0.252 NA
ATOM     23  C   UNL     1      17.626   7.470  20.918  0.00  0.00    +0.115 A 
ATOM     24  C   UNL     1      18.639   6.629  20.487  0.00  0.00    +0.077 A 
ATOM     25  C   UNL     1      19.936   6.904  20.905  0.00  0.00    +0.124 A 
ATOM     26  C   UNL     1      19.094   8.778  22.106  0.00  0.00    +0.115 A 
ATOM     27  C   UNL     1      20.177   7.998  21.730  0.00  0.00    +0.065 A 
BRANCH  25   4
ATOM      4  O   UNL     1      20.965   6.108  20.510  0.00  0.00    -0.490 OA
BRANCH   4  29
ATOM     29  C   UNL     1      20.752   4.698  20.560  0.00  0.00    +0.257 C 
BRANCH  29  30
ATOM     30  C   UNL     1      21.674   4.094  21.602  0.00  0.00    +0.200 C 
BRANCH  30   5
ATOM      5  O   UNL     1      22.425   3.045  21.004  0.00  0.00    -0.380 OA
ATOM     31  C   UNL     1      23.445   2.573  21.875  0.00  0.00    +0.194 C 
ENDBRANCH  30   5
ENDBRANCH  29  30
ENDBRANCH   4  29
ENDBRANCH  25   4
ENDBRANCH  19  23
ENDBRANCH  10  15
BRANCH   6  14
ATOM     14  C   UNL     1      11.526   8.403  19.613  0.00  0.00    +0.124 C 
BRANCH  14  16
ATOM     16  C   UNL     1      11.560   9.365  20.771  0.00  0.00    +0.008 A 
ATOM     17  C   UNL     1      10.813   9.120  21.923  0.00  0.00    +0.125 A 
ATOM     18  C   UNL     1      12.350  10.512  20.683  0.00  0.00    +0.012 A 
ATOM     20  C   UNL     1      10.855  10.022  22.987  0.00  0.00    +0.091 A 
ATOM     21  C   UNL     1      12.392  11.413  21.746  0.00  0.00    +0.046 A 
ATOM     22  C   UNL     1      11.645  11.167  22.898  0.00  0.00    +0.124 A 
BRANCH  17   2
ATOM      2  O   UNL     1      10.036   8.005  22.025  0.00  0.00    -0.506 OA
ATOM     32  H   UNL     1      10.316   7.490  22.800  0.00  0.00    +0.292 HD
ENDBRANCH  17   2
BRANCH  22   3
ATOM      3  O   UNL     1      11.687  12.047  23.936  0.00  0.00    -0.495 OA
ATOM     28  C   UNL     1      10.475  12.724  24.262  0.00  0.00    +0.277 C 
ENDBRANCH  22   3
ENDBRANCH  14  16
ENDBRANCH   6  14
TORSDOF 10
ENDMDL
MODEL 3
REMARK VINA RESULT:      -6.2     27.174     30.734
REMARK  Name = 45783464
REMARK  12 active torsions:
REMARK  status: ('A' for Active; 'I' for Inactive)
REMARK    1  A    between atoms: O_2  and  C_17
REMARK    2  A    between atoms: O_3  and  C_22
REMARK    3  A    between atoms: O_3  and  C_28
REMARK    4  A    between atoms: O_4  and  C_25
REMARK    5  A    between atoms: O_4  and  C_29
REMARK    6  A    between atoms: O_5  and  C_30
REMARK    7  A    between atoms: O_5  and  C_31
REMARK    8  A    between atoms: N_6  and  C_14
REMARK    9  A    between atoms: C_10  and  C_15
REMARK   10  A    between atoms: C_14  and  C_16
REMARK   11  A    between atoms: C_19  and  C_23
REMARK   12  A    between atoms: C_29  and  C_30
REMARK                            x       y       z     vdW  Elec       q    Type
REMARK                         _______ _______ _______ _____ _____    ______ ____
ROOT
ATOM      6  N   UNL     1      13.659   7.875  18.675  0.00  0.00    -0.287 NA
ATOM     10  C   UNL     1      12.966   8.317  17.449  0.00  0.00    +0.146 C 
ATOM     11  C   UNL     1      11.535   8.654  17.910  0.00  0.00    +0.030 C 
ATOM     12  C   UNL     1      11.503   8.311  19.392  0.00  0.00    +0.017 C 
ATOM     13  C   UNL     1      12.632   7.313  19.551  0.00  0.00    +0.085 C 
ENDROOT
BRANCH  10  15
ATOM      1  O   UNL     1      13.464  10.708  17.350  0.00  0.00    -0.336 OA
ATOM      7  N   UNL     1      14.417   9.507  15.718  0.00  0.00    -0.189 NA
ATOM      8  N   UNL     1      14.186  11.618  16.568  0.00  0.00    -0.054 NA
ATOM     15  C   UNL     1      13.655   9.489  16.781  0.00  0.00    +0.245 A 
ATOM     19  C   UNL     1      14.719  10.835  15.626  0.00  0.00    +0.221 A 
BRANCH  19  23
ATOM      9  N   UNL     1      14.967  11.493  13.375  0.00  0.00    -0.252 NA
ATOM     23  C   UNL     1      15.559  11.346  14.581  0.00  0.00    +0.115 A 
ATOM     24  C   UNL     1      16.885  11.655  14.837  0.00  0.00    +0.077 A 
ATOM     25  C   UNL     1      17.654  12.146  13.788  0.00  0.00    +0.124 A 
ATOM     26  C   UNL     1      15.745  11.973  12.379  0.00  0.00    +0.115 A 
ATOM     27  C   UNL     1      17.081  12.311  12.532  0.00  0.00    +0.065 A 
BRANCH  25   4
ATOM      4  O   UNL     1      18.961  12.464  13.990  0.00  0.00    -0.490 OA
BRANCH   4  29
ATOM     29  C   UNL     1      19.764  11.506  14.678  0.00  0.00    +0.257 C 
BRANCH  29  30
ATOM     30  C   UNL     1      20.482  10.639  13.660  0.00  0.00    +0.200 C 
BRANCH  30   5
ATOM      5  O   UNL     1      21.704  10.180  14.223  0.00  0.00    -0.380 OA
ATOM     31  C   UNL     1      22.159  11.044  15.255  0.00  0.00    +0.194 C 
ENDBRANCH  30   5
ENDBRANCH  29  30
ENDBRANCH   4  29
ENDBRANCH  25   4
ENDBRANCH  19  23
ENDBRANCH  10  15
BRANCH   6  14
ATOM     14  C   UNL     1      14.736   6.928  18.416  0.00  0.00    +0.124 C 
BRANCH  14  16
ATOM     16  C   UNL     1      15.898   7.130  19.352  0.00  0.00    +0.008 A 
ATOM     17  C   UNL     1      16.981   6.251  19.344  0.00  0.00    +0.125 A 
ATOM     18  C   UNL     1      15.883   8.210  20.236  0.00  0.00    +0.012 A 
ATOM     20  C   UNL     1      18.050   6.452  20.219  0.00  0.00    +0.091 A 
ATOM     21  C   UNL     1      16.951   8.410  21.110  0.00  0.00    +0.046 A 
ATOM     22  C   UNL     1      18.034   7.532  21.101  0.00  0.00    +0.124 A 
BRANCH  17   2
ATOM      2  O   UNL     1      17.011   5.191  18.489  0.00  0.00    -0.506 OA
ATOM     32  H   UNL     1      17.729   4.589  18.749  0.00  0.00    +0.292 HD
ENDBRANCH  17   2
BRANCH  22   3
ATOM      3  O   UNL     1      19.077   7.728  21.954  0.00  0.00    -0.495 OA
ATOM     28  C   UNL     1      20.087   8.648  21.543  0.00  0.00    +0.277 C 
ENDBRANCH  22   3
ENDBRANCH  14  16
ENDBRANCH   6  14
TORSDOF 10
ENDMDL
MODEL 4
REMARK VINA RESULT:      -6.1      2.024      3.148
REMARK  Name = 45783464
REMARK  12 active torsions:
REMARK  status: ('A' for Active; 'I' for Inactive)
REMARK    1  A    between atoms: O_2  and  C_17
REMARK    2  A    between atoms: O_3  and  C_22
REMARK    3  A    between atoms: O_3  and  C_28
REMARK    4  A    between atoms: O_4  and  C_25
REMARK    5  A    between atoms: O_4  and  C_29
REMARK    6  A    between atoms: O_5  and  C_30
REMARK    7  A    between atoms: O_5  and  C_31
REMARK    8  A    between atoms: N_6  and  C_14
REMARK    9  A    between atoms: C_10  and  C_15
REMARK   10  A    between atoms: C_14  and  C_16
REMARK   11  A    between atoms: C_19  and  C_23
REMARK   12  A    between atoms: C_29  and  C_30
REMARK                            x       y       z     vdW  Elec       q    Type
REMARK                         _______ _______ _______ _____ _____    ______ ____
ROOT
ATOM      6  N   UNL     1      -3.137 -10.548  14.393  0.00  0.00    -0.287 NA
ATOM     10  C   UNL     1      -3.023 -11.251  15.686  0.00  0.00    +0.146 C 
ATOM     11  C   UNL     1      -1.698 -10.750  16.288  0.00  0.00    +0.030 C 
ATOM     12  C   UNL     1      -1.110  -9.819  15.239  0.00  0.00    +0.017 C 
ATOM     13  C   UNL     1      -1.770 -10.271  13.952  0.00  0.00    +0.085 C 
ENDROOT
BRANCH  10  15
ATOM      1  O   UNL     1      -4.019 -11.229  17.918  0.00  0.00    -0.336 OA
ATOM      7  N   UNL     1      -5.414 -10.585  16.289  0.00  0.00    -0.189 NA
ATOM      8  N   UNL     1      -5.237 -10.931  18.543  0.00  0.00    -0.054 NA
ATOM     15  C   UNL     1      -4.210 -10.998  16.593  0.00  0.00    +0.245 A 
ATOM     19  C   UNL     1      -6.008 -10.560  17.517  0.00  0.00    +0.221 A 
BRANCH  19  23
ATOM      9  N   UNL     1      -7.816  -9.217  16.817  0.00  0.00    -0.252 NA
ATOM     23  C   UNL     1      -7.374 -10.154  17.685  0.00  0.00    +0.115 A 
ATOM     24  C   UNL     1      -8.152 -10.714  18.685  0.00  0.00    +0.077 A 
ATOM     25  C   UNL     1      -9.469 -10.284  18.803  0.00  0.00    +0.124 A 
ATOM     26  C   UNL     1      -9.102  -8.824  16.961  0.00  0.00    +0.115 A 
ATOM     27  C   UNL     1      -9.961  -9.321  17.929  0.00  0.00    +0.065 A 
BRANCH  25   4
ATOM      4  O   UNL     1     -10.273 -10.804  19.769  0.00  0.00    -0.490 OA
BRANCH   4  29
ATOM     29  C   UNL     1     -10.056 -12.167  20.131  0.00  0.00    +0.257 C 
BRANCH  29  30
ATOM     30  C   UNL     1     -11.390 -12.890  20.161  0.00  0.00    +0.200 C 
BRANCH  30   5
ATOM      5  O   UNL     1     -12.311 -12.130  20.932  0.00  0.00    -0.380 OA
ATOM     31  C   UNL     1     -13.656 -12.452  20.600  0.00  0.00    +0.194 C 
ENDBRANCH  30   5
ENDBRANCH  29  30
ENDBRANCH   4  29
ENDBRANCH  25   4
ENDBRANCH  19  23
ENDBRANCH  10  15
BRANCH   6  14
ATOM     14  C   UNL     1      -3.894 -11.294  13.397  0.00  0.00    +0.124 C 
BRANCH  14  16
ATOM     16  C   UNL     1      -4.443 -10.396  12.321  0.00  0.00    +0.008 A 
ATOM     17  C   UNL     1      -5.550  -9.583  12.567  0.00  0.00    +0.125 A 
ATOM     18  C   UNL     1      -3.834 -10.383  11.065  0.00  0.00    +0.012 A 
ATOM     20  C   UNL     1      -6.047  -8.756  11.558  0.00  0.00    +0.091 A 
ATOM     21  C   UNL     1      -4.330  -9.557  10.058  0.00  0.00    +0.046 A 
ATOM     22  C   UNL     1      -5.436  -8.743  10.304  0.00  0.00    +0.124 A 
BRANCH  17   2
ATOM      2  O   UNL     1      -6.157  -9.584  13.786  0.00  0.00    -0.506 OA
ATOM     32  H   UNL     1      -6.969 -10.117  13.739  0.00  0.00    +0.292 HD
ENDBRANCH  17   2
BRANCH  22   3
ATOM      3  O   UNL     1      -5.920  -7.937   9.320  0.00  0.00    -0.495 OA
ATOM     28  C   UNL     1      -7.282  -8.125   8.938  0.00  0.00    +0.277 C 
ENDBRANCH  22   3
ENDBRANCH  14  16
ENDBRANCH   6  14
TORSDOF 10
ENDMDL
MODEL 5
REMARK VINA RESULT:      -6.0     27.412     30.728
REMARK  Name = 45783464
REMARK  12 active torsions:
REMARK  status: ('A' for Active; 'I' for Inactive)
REMARK    1  A    between atoms: O_2  and  C_17
REMARK    2  A    between atoms: O_3  and  C_22
REMARK    3  A    between atoms: O_3  and  C_28
REMARK    4  A    between atoms: O_4  and  C_25
REMARK    5  A    between atoms: O_4  and  C_29
REMARK    6  A    between atoms: O_5  and  C_30
REMARK    7  A    between atoms: O_5  and  C_31
REMARK    8  A    between atoms: N_6  and  C_14
REMARK    9  A    between atoms: C_10  and  C_15
REMARK   10  A    between atoms: C_14  and  C_16
REMARK   11  A    between atoms: C_19  and  C_23
REMARK   12  A    between atoms: C_29  and  C_30
REMARK                            x       y       z     vdW  Elec       q    Type
REMARK                         _______ _______ _______ _____ _____    ______ ____
ROOT
ATOM      6  N   UNL     1      13.864   8.473  19.739  0.00  0.00    -0.287 NA
ATOM     10  C   UNL     1      14.318   7.314  18.946  0.00  0.00    +0.146 C 
ATOM     11  C   UNL     1      14.181   7.766  17.480  0.00  0.00    +0.030 C 
ATOM     12  C   UNL     1      13.585   9.164  17.548  0.00  0.00    +0.017 C 
ATOM     13  C   UNL     1      12.906   9.197  18.902  0.00  0.00    +0.085 C 
ENDROOT
BRANCH  10  15
ATOM      1  O   UNL     1      16.252   5.870  18.561  0.00  0.00    -0.336 OA
ATOM      7  N   UNL     1      16.533   7.352  20.216  0.00  0.00    -0.189 NA
ATOM      8  N   UNL     1      17.542   5.655  19.062  0.00  0.00    -0.054 NA
ATOM     15  C   UNL     1      15.728   6.886  19.296  0.00  0.00    +0.245 A 
ATOM     19  C   UNL     1      17.633   6.566  20.035  0.00  0.00    +0.221 A 
BRANCH  19  23
ATOM      9  N   UNL     1      18.707   7.598  21.863  0.00  0.00    -0.252 NA
ATOM     23  C   UNL     1      18.810   6.719  20.842  0.00  0.00    +0.115 A 
ATOM     24  C   UNL     1      19.954   5.994  20.555  0.00  0.00    +0.077 A 
ATOM     25  C   UNL     1      21.066   6.181  21.369  0.00  0.00    +0.124 A 
ATOM     26  C   UNL     1      19.807   7.755  22.634  0.00  0.00    +0.115 A 
ATOM     27  C   UNL     1      20.999   7.078  22.430  0.00  0.00    +0.065 A 
BRANCH  25   4
ATOM      4  O   UNL     1      22.213   5.492  21.129  0.00  0.00    -0.490 OA
BRANCH   4  29
ATOM     29  C   UNL     1      22.903   4.965  22.261  0.00  0.00    +0.257 C 
BRANCH  29  30
ATOM     30  C   UNL     1      22.340   3.595  22.591  0.00  0.00    +0.200 C 
BRANCH  30   5
ATOM      5  O   UNL     1      22.257   3.456  24.003  0.00  0.00    -0.380 OA
ATOM     31  C   UNL     1      23.000   4.468  24.670  0.00  0.00    +0.194 C 
ENDBRANCH  30   5
ENDBRANCH  29  30
ENDBRANCH   4  29
ENDBRANCH  25   4
ENDBRANCH  19  23
ENDBRANCH  10  15
BRANCH   6  14
ATOM     14  C   UNL     1      13.293   8.100  21.027  0.00  0.00    +0.124 C 
BRANCH  14  16
ATOM     16  C   UNL     1      13.139   9.289  21.938  0.00  0.00    +0.008 A 
ATOM     17  C   UNL     1      14.259   9.957  22.435  0.00  0.00    +0.125 A 
ATOM     18  C   UNL     1      11.859   9.722  22.286  0.00  0.00    +0.012 A 
ATOM     20  C   UNL     1      14.099  11.057  23.278  0.00  0.00    +0.091 A 
ATOM     21  C   UNL     1      11.699  10.821  23.128  0.00  0.00    +0.046 A 
ATOM     22  C   UNL     1      12.819  11.489  23.624  0.00  0.00    +0.124 A 
BRANCH  17   2
ATOM      2  O   UNL     1      15.516   9.547  22.106  0.00  0.00    -0.506 OA
ATOM     32  H   UNL     1      16.093  10.324  22.015  0.00  0.00    +0.292 HD
ENDBRANCH  17   2
BRANCH  22   3
ATOM      3  O   UNL     1      12.663  12.562  24.446  0.00  0.00    -0.495 OA
ATOM     28  C   UNL     1      12.213  13.777  23.849  0.00  0.00    +0.277 C 
ENDBRANCH  22   3
ENDBRANCH  14  16
ENDBRANCH   6  14
TORSDOF 10
ENDMDL
MODEL 6
REMARK VINA RESULT:      -6.0     26.719     29.999
REMARK  Name = 45783464
REMARK  12 active torsions:
REMARK  status: ('A' for Active; 'I' for Inactive)
REMARK    1  A    between atoms: O_2  and  C_17
REMARK    2  A    between atoms: O_3  and  C_22
REMARK    3  A    between atoms: O_3  and  C_28
REMARK    4  A    between atoms: O_4  and  C_25
REMARK    5  A    between atoms: O_4  and  C_29
REMARK    6  A    between atoms: O_5  and  C_30
REMARK    7  A    between atoms: O_5  and  C_31
REMARK    8  A    between atoms: N_6  and  C_14
REMARK    9  A    between atoms: C_10  and  C_15
REMARK   10  A    between atoms: C_14  and  C_16
REMARK   11  A    between atoms: C_19  and  C_23
REMARK   12  A    between atoms: C_29  and  C_30
REMARK                            x       y       z     vdW  Elec       q    Type
REMARK                         _______ _______ _______ _____ _____    ______ ____
ROOT
ATOM      6  N   UNL     1      13.348   8.137  19.260  0.00  0.00    -0.287 NA
ATOM     10  C   UNL     1      14.149   7.140  18.525  0.00  0.00    +0.146 C 
ATOM     11  C   UNL     1      14.199   7.668  17.079  0.00  0.00    +0.030 C 
ATOM     12  C   UNL     1      13.348   8.929  17.086  0.00  0.00    +0.017 C 
ATOM     13  C   UNL     1      12.440   8.739  18.284  0.00  0.00    +0.085 C 
ENDROOT
BRANCH  10  15
ATOM      1  O   UNL     1      16.267   5.923  18.618  0.00  0.00    -0.336 OA
ATOM      7  N   UNL     1      16.124   7.621  20.070  0.00  0.00    -0.189 NA
ATOM      8  N   UNL     1      17.480   5.940  19.317  0.00  0.00    -0.054 NA
ATOM     15  C   UNL     1      15.527   6.945  19.123  0.00  0.00    +0.245 A 
ATOM     19  C   UNL     1      17.319   6.968  20.155  0.00  0.00    +0.221 A 
BRANCH  19  23
ATOM      9  N   UNL     1      19.213   6.409  21.445  0.00  0.00    -0.252 NA
ATOM     23  C   UNL     1      18.333   7.371  21.087  0.00  0.00    +0.115 A 
ATOM     24  C   UNL     1      18.369   8.671  21.564  0.00  0.00    +0.077 A 
ATOM     25  C   UNL     1      19.373   9.007  22.465  0.00  0.00    +0.124 A 
ATOM     26  C   UNL     1      20.175   6.772  22.323  0.00  0.00    +0.115 A 
ATOM     27  C   UNL     1      20.297   8.045  22.858  0.00  0.00    +0.065 A 
BRANCH  25   4
ATOM      4  O   UNL     1      19.450  10.271  22.961  0.00  0.00    -0.490 OA
BRANCH   4  29
ATOM     29  C   UNL     1      19.122  11.338  22.073  0.00  0.00    +0.257 C 
BRANCH  29  30
ATOM     30  C   UNL     1      18.115  12.251  22.747  0.00  0.00    +0.200 C 
BRANCH  30   5
ATOM      5  O   UNL     1      16.873  11.568  22.859  0.00  0.00    -0.380 OA
ATOM     31  C   UNL     1      15.923  12.332  23.591  0.00  0.00    +0.194 C 
ENDBRANCH  30   5
ENDBRANCH  29  30
ENDBRANCH   4  29
ENDBRANCH  25   4
ENDBRANCH  19  23
ENDBRANCH  10  15
BRANCH   6  14
ATOM     14  C   UNL     1      12.633   7.574  20.399  0.00  0.00    +0.124 C 
BRANCH  14  16
ATOM     16  C   UNL     1      12.214   8.636  21.380  0.00  0.00    +0.008 A 
ATOM     17  C   UNL     1      13.142   9.548  21.882  0.00  0.00    +0.125 A 
ATOM     18  C   UNL     1      10.881   8.702  21.787  0.00  0.00    +0.012 A 
ATOM     20  C   UNL     1      12.737  10.527  22.791  0.00  0.00    +0.091 A 
ATOM     21  C   UNL     1      10.477   9.679  22.695  0.00  0.00    +0.046 A 
ATOM     22  C   UNL     1      11.405  10.592  23.197  0.00  0.00    +0.124 A 
BRANCH  17   2
ATOM      2  O   UNL     1      14.447   9.498  21.496  0.00  0.00    -0.506 OA
ATOM     32  H   UNL     1      14.891  10.323  21.756  0.00  0.00    +0.292 HD
ENDBRANCH  17   2
BRANCH  22   3
ATOM      3  O   UNL     1      11.010  11.547  24.083  0.00  0.00    -0.495 OA
ATOM     28  C   UNL     1      11.818  12.718  24.178  0.00  0.00    +0.277 C 
ENDBRANCH  22   3
ENDBRANCH  14  16
ENDBRANCH   6  14
TORSDOF 10
ENDMDL
MODEL 7
REMARK VINA RESULT:      -6.0     26.925     30.086
REMARK  Name = 45783464
REMARK  12 active torsions:
REMARK  status: ('A' for Active; 'I' for Inactive)
REMARK    1  A    between atoms: O_2  and  C_17
REMARK    2  A    between atoms: O_3  and  C_22
REMARK    3  A    between atoms: O_3  and  C_28
REMARK    4  A    between atoms: O_4  and  C_25
REMARK    5  A    between atoms: O_4  and  C_29
REMARK    6  A    between atoms: O_5  and  C_30
REMARK    7  A    between atoms: O_5  and  C_31
REMARK    8  A    between atoms: N_6  and  C_14
REMARK    9  A    between atoms: C_10  and  C_15
REMARK   10  A    between atoms: C_14  and  C_16
REMARK   11  A    between atoms: C_19  and  C_23
REMARK   12  A    between atoms: C_29  and  C_30
REMARK                            x       y       z     vdW  Elec       q    Type
REMARK                         _______ _______ _______ _____ _____    ______ ____
ROOT
ATOM      6  N   UNL     1      19.765   7.803  21.618  0.00  0.00    -0.287 NA
ATOM     10  C   UNL     1      18.520   8.584  21.759  0.00  0.00    +0.146 C 
ATOM     11  C   UNL     1      18.931  10.034  21.444  0.00  0.00    +0.030 C 
ATOM     12  C   UNL     1      20.431   9.979  21.200  0.00  0.00    +0.017 C 
ATOM     13  C   UNL     1      20.864   8.719  21.922  0.00  0.00    +0.085 C 
ENDROOT
BRANCH  10  15
ATOM      1  O   UNL     1      17.651   6.916  20.197  0.00  0.00    -0.336 OA
ATOM      7  N   UNL     1      16.242   8.608  20.606  0.00  0.00    -0.189 NA
ATOM      8  N   UNL     1      16.504   6.660  19.436  0.00  0.00    -0.054 NA
ATOM     15  C   UNL     1      17.413   8.081  20.856  0.00  0.00    +0.245 A 
ATOM     19  C   UNL     1      15.720   7.701  19.730  0.00  0.00    +0.221 A 
BRANCH  19  23
ATOM      9  N   UNL     1      14.363   7.999  17.824  0.00  0.00    -0.252 NA
ATOM     23  C   UNL     1      14.409   7.865  19.168  0.00  0.00    +0.115 A 
ATOM     24  C   UNL     1      13.294   7.878  19.988  0.00  0.00    +0.077 A 
ATOM     25  C   UNL     1      12.048   8.040  19.392  0.00  0.00    +0.124 A 
ATOM     26  C   UNL     1      13.135   8.154  17.278  0.00  0.00    +0.115 A 
ATOM     27  C   UNL     1      11.959   8.182  18.011  0.00  0.00    +0.065 A 
BRANCH  25   4
ATOM      4  O   UNL     1      10.923   8.060  20.154  0.00  0.00    -0.490 OA
BRANCH   4  29
ATOM     29  C   UNL     1      10.911   7.233  21.317  0.00  0.00    +0.257 C 
BRANCH  29  30
ATOM     30  C   UNL     1      10.743   8.107  22.546  0.00  0.00    +0.200 C 
BRANCH  30   5
ATOM      5  O   UNL     1      10.362   9.414  22.135  0.00  0.00    -0.380 OA
ATOM     31  C   UNL     1      10.973  10.411  22.944  0.00  0.00    +0.194 C 
ENDBRANCH  30   5
ENDBRANCH  29  30
ENDBRANCH   4  29
ENDBRANCH  25   4
ENDBRANCH  19  23
ENDBRANCH  10  15
BRANCH   6  14
ATOM     14  C   UNL     1      19.796   6.613  22.458  0.00  0.00    +0.124 C 
BRANCH  14  16
ATOM     16  C   UNL     1      20.963   5.721  22.125  0.00  0.00    +0.008 A 
ATOM     17  C   UNL     1      21.851   5.309  23.119  0.00  0.00    +0.125 A 
ATOM     18  C   UNL     1      21.152   5.307  20.806  0.00  0.00    +0.012 A 
ATOM     20  C   UNL     1      22.927   4.483  22.794  0.00  0.00    +0.091 A 
ATOM     21  C   UNL     1      22.227   4.482  20.482  0.00  0.00    +0.046 A 
ATOM     22  C   UNL     1      23.115   4.069  21.476  0.00  0.00    +0.124 A 
BRANCH  17   2
ATOM      2  O   UNL     1      21.681   5.705  24.411  0.00  0.00    -0.506 OA
ATOM     32  H   UNL     1      22.383   5.316  24.960  0.00  0.00    +0.292 HD
ENDBRANCH  17   2
BRANCH  22   3
ATOM      3  O   UNL     1      24.165   3.263  21.159  0.00  0.00    -0.495 OA
ATOM     28  C   UNL     1      23.881   1.882  20.946  0.00  0.00    +0.277 C 
ENDBRANCH  22   3
ENDBRANCH  14  16
ENDBRANCH   6  14
TORSDOF 10
ENDMDL
MODEL 8
REMARK VINA RESULT:      -5.9     26.968     30.430
REMARK  Name = 45783464
REMARK  12 active torsions:
REMARK  status: ('A' for Active; 'I' for Inactive)
REMARK    1  A    between atoms: O_2  and  C_17
REMARK    2  A    between atoms: O_3  and  C_22
REMARK    3  A    between atoms: O_3  and  C_28
REMARK    4  A    between atoms: O_4  and  C_25
REMARK    5  A    between atoms: O_4  and  C_29
REMARK    6  A    between atoms: O_5  and  C_30
REMARK    7  A    between atoms: O_5  and  C_31
REMARK    8  A    between atoms: N_6  and  C_14
REMARK    9  A    between atoms: C_10  and  C_15
REMARK   10  A    between atoms: C_14  and  C_16
REMARK   11  A    between atoms: C_19  and  C_23
REMARK   12  A    between atoms: C_29  and  C_30
REMARK                            x       y       z     vdW  Elec       q    Type
REMARK                         _______ _______ _______ _____ _____    ______ ____
ROOT
ATOM      6  N   UNL     1      14.377   8.426  20.188  0.00  0.00    -0.287 NA
ATOM     10  C   UNL     1      14.538   7.265  19.290  0.00  0.00    +0.146 C 
ATOM     11  C   UNL     1      14.190   7.804  17.890  0.00  0.00    +0.030 C 
ATOM     12  C   UNL     1      13.788   9.255  18.110  0.00  0.00    +0.017 C 
ATOM     13  C   UNL     1      13.376   9.293  19.568  0.00  0.00    +0.085 C 
ENDROOT
BRANCH  10  15
ATOM      1  O   UNL     1      16.300   5.885  18.309  0.00  0.00    -0.336 OA
ATOM      7  N   UNL     1      16.839   6.785  20.288  0.00  0.00    -0.189 NA
ATOM      8  N   UNL     1      17.601   5.451  18.593  0.00  0.00    -0.054 NA
ATOM     15  C   UNL     1      15.927   6.666  19.357  0.00  0.00    +0.245 A 
ATOM     19  C   UNL     1      17.848   6.022  19.775  0.00  0.00    +0.221 A 
BRANCH  19  23
ATOM      9  N   UNL     1      19.444   6.868  21.291  0.00  0.00    -0.252 NA
ATOM     23  C   UNL     1      19.092   5.854  20.470  0.00  0.00    +0.115 A 
ATOM     24  C   UNL     1      19.851   4.711  20.280  0.00  0.00    +0.077 A 
ATOM     25  C   UNL     1      21.048   4.600  20.977  0.00  0.00    +0.124 A 
ATOM     26  C   UNL     1      20.614   6.726  21.954  0.00  0.00    +0.115 A 
ATOM     27  C   UNL     1      21.445   5.622  21.832  0.00  0.00    +0.065 A 
BRANCH  25   4
ATOM      4  O   UNL     1      21.828   3.496  20.825  0.00  0.00    -0.490 OA
BRANCH   4  29
ATOM     29  C   UNL     1      23.140   3.545  21.384  0.00  0.00    +0.257 C 
BRANCH  29  30
ATOM     30  C   UNL     1      23.858   2.245  21.078  0.00  0.00    +0.200 C 
BRANCH  30   5
ATOM      5  O   UNL     1      25.162   2.539  20.594  0.00  0.00    -0.380 OA
ATOM     31  C   UNL     1      25.114   3.205  19.339  0.00  0.00    +0.194 C 
ENDBRANCH  30   5
ENDBRANCH  29  30
ENDBRANCH   4  29
ENDBRANCH  25   4
ENDBRANCH  19  23
ENDBRANCH  10  15
BRANCH   6  14
ATOM     14  C   UNL     1      14.012   8.053  21.549  0.00  0.00    +0.124 C 
BRANCH  14  16
ATOM     16  C   UNL     1      13.086   9.061  22.177  0.00  0.00    +0.008 A 
ATOM     17  C   UNL     1      11.729   8.780  22.338  0.00  0.00    +0.125 A 
ATOM     18  C   UNL     1      13.598  10.289  22.599  0.00  0.00    +0.012 A 
ATOM     20  C   UNL     1      10.885   9.725  22.922  0.00  0.00    +0.091 A 
ATOM     21  C   UNL     1      12.755  11.233  23.182  0.00  0.00    +0.046 A 
ATOM     22  C   UNL     1      11.398  10.951  23.344  0.00  0.00    +0.124 A 
BRANCH  17   2
ATOM      2  O   UNL     1      11.213   7.587  21.931  0.00  0.00    -0.506 OA
ATOM     32  H   UNL     1      11.931   7.026  21.592  0.00  0.00    +0.292 HD
ENDBRANCH  17   2
BRANCH  22   3
ATOM      3  O   UNL     1      10.575  11.873  23.914  0.00  0.00    -0.495 OA
ATOM     28  C   UNL     1      10.924  12.337  25.217  0.00  0.00    +0.277 C 
ENDBRANCH  22   3
ENDBRANCH  14  16
ENDBRANCH   6  14
TORSDOF 10
ENDMDL
MODEL 9
REMARK VINA RESULT:      -5.9      1.591      6.791
REMARK  Name = 45783464
REMARK  12 active torsions:
REMARK  status: ('A' for Active; 'I' for Inactive)
REMARK    1  A    between atoms: O_2  and  C_17
REMARK    2  A    between atoms: O_3  and  C_22
REMARK    3  A    between atoms: O_3  and  C_28
REMARK    4  A    between atoms: O_4  and  C_25
REMARK    5  A    between atoms: O_4  and  C_29
REMARK    6  A    between atoms: O_5  and  C_30
REMARK    7  A    between atoms: O_5  and  C_31
REMARK    8  A    between atoms: N_6  and  C_14
REMARK    9  A    between atoms: C_10  and  C_15
REMARK   10  A    between atoms: C_14  and  C_16
REMARK   11  A    between atoms: C_19  and  C_23
REMARK   12  A    between atoms: C_29  and  C_30
REMARK                            x       y       z     vdW  Elec       q    Type
REMARK                         _______ _______ _______ _____ _____    ______ ____
ROOT
ATOM      6  N   UNL     1      -7.192 -10.708  17.476  0.00  0.00    -0.287 NA
ATOM     10  C   UNL     1      -5.801 -11.015  17.862  0.00  0.00    +0.146 C 
ATOM     11  C   UNL     1      -5.864 -12.436  18.453  0.00  0.00    +0.030 C 
ATOM     12  C   UNL     1      -7.336 -12.818  18.414  0.00  0.00    +0.017 C 
ATOM     13  C   UNL     1      -8.050 -11.483  18.372  0.00  0.00    +0.085 C 
ENDROOT
BRANCH  10  15
ATOM      1  O   UNL     1      -3.519 -11.067  16.988  0.00  0.00    -0.336 OA
ATOM      7  N   UNL     1      -5.084 -10.682  15.433  0.00  0.00    -0.189 NA
ATOM      8  N   UNL     1      -2.835 -10.927  15.773  0.00  0.00    -0.054 NA
ATOM     15  C   UNL     1      -4.837 -10.909  16.698  0.00  0.00    +0.245 A 
ATOM     19  C   UNL     1      -3.826 -10.702  14.905  0.00  0.00    +0.221 A 
BRANCH  19  23
ATOM      9  N   UNL     1      -2.297 -10.423  13.132  0.00  0.00    -0.252 NA
ATOM     23  C   UNL     1      -3.594 -10.496  13.504  0.00  0.00    +0.115 A 
ATOM     24  C   UNL     1      -4.660 -10.383  12.628  0.00  0.00    +0.077 A 
ATOM     25  C   UNL     1      -4.378 -10.183  11.281  0.00  0.00    +0.124 A 
ATOM     26  C   UNL     1      -2.060 -10.229  11.815  0.00  0.00    +0.115 A 
ATOM     27  C   UNL     1      -3.056 -10.103  10.858  0.00  0.00    +0.065 A 
BRANCH  25   4
ATOM      4  O   UNL     1      -5.391 -10.068  10.381  0.00  0.00    -0.490 OA
BRANCH   4  29
ATOM     29  C   UNL     1      -6.289  -8.972  10.550  0.00  0.00    +0.257 C 
BRANCH  29  30
ATOM     30  C   UNL     1      -6.434  -8.241   9.229  0.00  0.00    +0.200 C 
BRANCH  30   5
ATOM      5  O   UNL     1      -7.808  -7.955   9.005  0.00  0.00    -0.380 OA
ATOM     31  C   UNL     1      -7.975  -6.787   8.213  0.00  0.00    +0.194 C 
ENDBRANCH  30   5
ENDBRANCH  29  30
ENDBRANCH   4  29
ENDBRANCH  25   4
ENDBRANCH  19  23
ENDBRANCH  10  15
BRANCH   6  14
ATOM     14  C   UNL     1      -7.499  -9.284  17.518  0.00  0.00    +0.124 C 
BRANCH  14  16
ATOM     16  C   UNL     1      -8.768  -8.962  16.774  0.00  0.00    +0.008 A 
ATOM     17  C   UNL     1      -8.857  -9.160  15.397  0.00  0.00    +0.125 A 
ATOM     18  C   UNL     1      -9.863  -8.458  17.479  0.00  0.00    +0.012 A 
ATOM     20  C   UNL     1     -10.041  -8.856  14.723  0.00  0.00    +0.091 A 
ATOM     21  C   UNL     1     -11.045  -8.154  16.805  0.00  0.00    +0.046 A 
ATOM     22  C   UNL     1     -11.134  -8.353  15.428  0.00  0.00    +0.124 A 
BRANCH  17   2
ATOM      2  O   UNL     1      -7.798  -9.650  14.694  0.00  0.00    -0.506 OA
ATOM     32  H   UNL     1      -7.342 -10.321  15.229  0.00  0.00    +0.292 HD
ENDBRANCH  17   2
BRANCH  22   3
ATOM      3  O   UNL     1     -12.289  -8.057  14.771  0.00  0.00    -0.495 OA
ATOM     28  C   UNL     1     -13.252  -7.273  15.472  0.00  0.00    +0.277 C 
ENDBRANCH  22   3
ENDBRANCH  14  16
ENDBRANCH   6  14
TORSDOF 10
ENDMDL
MODEL 10
REMARK VINA RESULT:      -5.9      1.710      7.348
REMARK  Name = 45783464
REMARK  12 active torsions:
REMARK  status: ('A' for Active; 'I' for Inactive)
REMARK    1  A    between atoms: O_2  and  C_17
REMARK    2  A    between atoms: O_3  and  C_22
REMARK    3  A    between atoms: O_3  and  C_28
REMARK    4  A    between atoms: O_4  and  C_25
REMARK    5  A    between atoms: O_4  and  C_29
REMARK    6  A    between atoms: O_5  and  C_30
REMARK    7  A    between atoms: O_5  and  C_31
REMARK    8  A    between atoms: N_6  and  C_14
REMARK    9  A    between atoms: C_10  and  C_15
REMARK   10  A    between atoms: C_14  and  C_16
REMARK   11  A    between atoms: C_19  and  C_23
REMARK   12  A    between atoms: C_29  and  C_30
REMARK                            x       y       z     vdW  Elec       q    Type
REMARK                         _______ _______ _______ _____ _____    ______ ____
ROOT
ATOM      6  N   UNL     1      -9.049 -11.514  17.920  0.00  0.00    -0.287 NA
ATOM     10  C   UNL     1      -7.974 -12.229  18.636  0.00  0.00    +0.146 C 
ATOM     11  C   UNL     1      -8.253 -13.720  18.374  0.00  0.00    +0.030 C 
ATOM     12  C   UNL     1      -9.536 -13.747  17.557  0.00  0.00    +0.017 C 
ATOM     13  C   UNL     1     -10.195 -12.423  17.884  0.00  0.00    +0.085 C 
ENDROOT
BRANCH  10  15
ATOM      1  O   UNL     1      -5.694 -11.521  19.162  0.00  0.00    -0.336 OA
ATOM      7  N   UNL     1      -6.123 -11.665  16.968  0.00  0.00    -0.189 NA
ATOM      8  N   UNL     1      -4.509 -11.159  18.509  0.00  0.00    -0.054 NA
ATOM     15  C   UNL     1      -6.592 -11.805  18.182  0.00  0.00    +0.245 A 
ATOM     19  C   UNL     1      -4.842 -11.267  17.219  0.00  0.00    +0.221 A 
BRANCH  19  23
ATOM      9  N   UNL     1      -2.634 -10.802  16.534  0.00  0.00    -0.252 NA
ATOM     23  C   UNL     1      -3.918 -10.988  16.157  0.00  0.00    +0.115 A 
ATOM     24  C   UNL     1      -4.359 -10.923  14.846  0.00  0.00    +0.077 A 
ATOM     25  C   UNL     1      -3.422 -10.649  13.856  0.00  0.00    +0.124 A 
ATOM     26  C   UNL     1      -1.750 -10.538  15.545  0.00  0.00    +0.115 A 
ATOM     27  C   UNL     1      -2.090 -10.451  14.204  0.00  0.00    +0.065 A 
BRANCH  25   4
ATOM      4  O   UNL     1      -3.805 -10.576  12.553  0.00  0.00    -0.490 OA
BRANCH   4  29
ATOM     29  C   UNL     1      -2.803 -10.228  11.600  0.00  0.00    +0.257 C 
BRANCH  29  30
ATOM     30  C   UNL     1      -3.420 -10.214  10.214  0.00  0.00    +0.200 C 
BRANCH  30   5
ATOM      5  O   UNL     1      -3.557  -8.867   9.781  0.00  0.00    -0.380 OA
ATOM     31  C   UNL     1      -4.891  -8.402   9.942  0.00  0.00    +0.194 C 
ENDBRANCH  30   5
ENDBRANCH  29  30
ENDBRANCH   4  29
ENDBRANCH  25   4
ENDBRANCH  19  23
ENDBRANCH  10  15
BRANCH   6  14
ATOM     14  C   UNL     1      -9.386 -10.230  18.521  0.00  0.00    +0.124 C 
BRANCH  14  16
ATOM     16  C   UNL     1      -9.970  -9.275  17.514  0.00  0.00    +0.008 A 
ATOM     17  C   UNL     1      -9.169  -8.705  16.525  0.00  0.00    +0.125 A 
ATOM     18  C   UNL     1     -11.328  -8.961  17.579  0.00  0.00    +0.012 A 
ATOM     20  C   UNL     1      -9.726  -7.821  15.600  0.00  0.00    +0.091 A 
ATOM     21  C   UNL     1     -11.884  -8.078  16.655  0.00  0.00    +0.046 A 
ATOM     22  C   UNL     1     -11.083  -7.508  15.665  0.00  0.00    +0.124 A 
BRANCH  17   2
ATOM      2  O   UNL     1      -7.841  -9.000  16.448  0.00  0.00    -0.506 OA
ATOM     32  H   UNL     1      -7.417  -8.406  15.806  0.00  0.00    +0.292 HD
ENDBRANCH  17   2
BRANCH  22   3
ATOM      3  O   UNL     1     -11.627  -6.647  14.762  0.00  0.00    -0.495 OA
ATOM     28  C   UNL     1     -12.842  -5.999  15.134  0.00  0.00    +0.277 C 
ENDBRANCH  22   3
ENDBRANCH  14  16
ENDBRANCH   6  14
TORSDOF 10
ENDMDL
