MODEL 1
REMARK VINA RESULT:      -6.6      0.000      0.000
REMARK  Name = 51137073
REMARK  4 active torsions:
REMARK  status: ('A' for Active; 'I' for Inactive)
REMARK    1  A    between atoms: N_2  and  C_9
REMARK    2  A    between atoms: C_5  and  C_10
REMARK    3  A    between atoms: C_9  and  C_11
REMARK    4  A    between atoms: C_18  and  C_23
REMARK                            x       y       z     vdW  Elec       q    Type
REMARK                         _______ _______ _______ _____ _____    ______ ____
ROOT
ATOM      2  N   UNL     1      11.205   9.872  22.478  0.00  0.00    -0.297 NA
ATOM      5  C   UNL     1      12.640   8.982  20.851  0.00  0.00    +0.060 C 
ATOM      6  C   UNL     1      11.445   8.036  21.056  0.00  0.00    +0.027 C 
ATOM      7  C   UNL     1      12.610   9.914  22.070  0.00  0.00    +0.095 C 
ATOM      8  C   UNL     1      10.826   8.463  22.381  0.00  0.00    +0.085 C 
ENDROOT
BRANCH   5  10
ATOM      1  S   UNL     1      15.183   8.491  21.860  0.00  0.00    -0.072 S 
ATOM      3  N   UNL     1      14.280   7.536  19.641  0.00  0.00    -0.244 NA
ATOM     10  C   UNL     1      13.972   8.293  20.669  0.00  0.00    +0.084 A 
ATOM     12  C   UNL     1      16.237   7.479  20.944  0.00  0.00    +0.039 A 
ATOM     13  C   UNL     1      15.576   7.062  19.785  0.00  0.00    +0.078 A 
ATOM     16  C   UNL     1      17.553   7.083  21.231  0.00  0.00    +0.017 A 
ATOM     17  C   UNL     1      16.259   6.218  18.882  0.00  0.00    +0.029 A 
ATOM     21  C   UNL     1      18.206   6.248  20.321  0.00  0.00    +0.001 A 
ATOM     22  C   UNL     1      17.569   5.820  19.162  0.00  0.00    +0.002 A 
ENDBRANCH   5  10
BRANCH   2   9
ATOM      9  C   UNL     1      10.999  10.411  23.815  0.00  0.00    +0.119 C 
BRANCH   9  11
ATOM     11  C   UNL     1      10.784  11.900  23.793  0.00  0.00    -0.032 A 
ATOM     14  C   UNL     1      10.628  12.567  22.578  0.00  0.00    +0.023 A 
ATOM     15  C   UNL     1      10.740  12.614  24.991  0.00  0.00    +0.005 A 
ATOM     18  C   UNL     1      10.428  13.947  22.560  0.00  0.00    +0.052 A 
ATOM     19  C   UNL     1      10.540  13.994  24.973  0.00  0.00    +0.002 A 
ATOM     20  C   UNL     1      10.384  14.661  23.757  0.00  0.00    +0.019 A 
BRANCH  18  23
ATOM      4  N   UNL     1      10.137  15.186  20.304  0.00  0.00    -0.191 NA
ATOM     23  C   UNL     1      10.268  14.630  21.315  0.00  0.00    +0.099 C 
ENDBRANCH  18  23
ENDBRANCH   9  11
ENDBRANCH   2   9
TORSDOF 4
ENDMDL
MODEL 2
REMARK VINA RESULT:      -6.6     17.567     21.198
REMARK  Name = 51137073
REMARK  4 active torsions:
REMARK  status: ('A' for Active; 'I' for Inactive)
REMARK    1  A    between atoms: N_2  and  C_9
REMARK    2  A    between atoms: C_5  and  C_10
REMARK    3  A    between atoms: C_9  and  C_11
REMARK    4  A    between atoms: C_18  and  C_23
REMARK                            x       y       z     vdW  Elec       q    Type
REMARK                         _______ _______ _______ _____ _____    ______ ____
ROOT
ATOM      2  N   UNL     1      12.010   4.092   1.651  0.00  0.00    -0.297 NA
ATOM      5  C   UNL     1      10.389   5.044   3.054  0.00  0.00    +0.060 C 
ATOM      6  C   UNL     1      11.186   6.159   2.357  0.00  0.00    +0.027 C 
ATOM      7  C   UNL     1      11.236   3.779   2.854  0.00  0.00    +0.095 C 
ATOM      8  C   UNL     1      12.442   5.478   1.831  0.00  0.00    +0.085 C 
ENDROOT
BRANCH   5  10
ATOM      1  S   UNL     1       9.472   6.849   4.957  0.00  0.00    -0.072 S 
ATOM      3  N   UNL     1      10.195   4.426   5.468  0.00  0.00    -0.244 NA
ATOM     10  C   UNL     1      10.060   5.308   4.504  0.00  0.00    +0.084 A 
ATOM     12  C   UNL     1       9.377   6.320   6.597  0.00  0.00    +0.039 A 
ATOM     13  C   UNL     1       9.808   4.992   6.674  0.00  0.00    +0.078 A 
ATOM     16  C   UNL     1       8.953   7.030   7.732  0.00  0.00    +0.017 A 
ATOM     17  C   UNL     1       9.812   4.354   7.932  0.00  0.00    +0.029 A 
ATOM     21  C   UNL     1       8.968   6.375   8.965  0.00  0.00    +0.001 A 
ATOM     22  C   UNL     1       9.391   5.054   9.067  0.00  0.00    +0.002 A 
ENDBRANCH   5  10
BRANCH   2   9
ATOM      9  C   UNL     1      13.130   3.183   1.458  0.00  0.00    +0.119 C 
BRANCH   9  11
ATOM     11  C   UNL     1      14.043   3.642   0.354  0.00  0.00    -0.032 A 
ATOM     14  C   UNL     1      13.549   3.798  -0.941  0.00  0.00    +0.023 A 
ATOM     15  C   UNL     1      15.384   3.912   0.626  0.00  0.00    +0.005 A 
ATOM     18  C   UNL     1      14.397   4.225  -1.964  0.00  0.00    +0.052 A 
ATOM     19  C   UNL     1      16.231   4.339  -0.396  0.00  0.00    +0.002 A 
ATOM     20  C   UNL     1      15.738   4.496  -1.692  0.00  0.00    +0.019 A 
BRANCH  18  23
ATOM      4  N   UNL     1      13.480   4.517  -4.369  0.00  0.00    -0.191 NA
ATOM     23  C   UNL     1      13.892   4.387  -3.291  0.00  0.00    +0.099 C 
ENDBRANCH  18  23
ENDBRANCH   9  11
ENDBRANCH   2   9
TORSDOF 4
ENDMDL
MODEL 3
REMARK VINA RESULT:      -6.4      4.121      6.088
REMARK  Name = 51137073
REMARK  4 active torsions:
REMARK  status: ('A' for Active; 'I' for Inactive)
REMARK    1  A    between atoms: N_2  and  C_9
REMARK    2  A    between atoms: C_5  and  C_10
REMARK    3  A    between atoms: C_9  and  C_11
REMARK    4  A    between atoms: C_18  and  C_23
REMARK                            x       y       z     vdW  Elec       q    Type
REMARK                         _______ _______ _______ _____ _____    ______ ____
ROOT
ATOM      2  N   UNL     1      15.913   7.744  20.402  0.00  0.00    -0.297 NA
ATOM      5  C   UNL     1      18.078   6.921  20.031  0.00  0.00    +0.060 C 
ATOM      6  C   UNL     1      17.051   5.981  19.378  0.00  0.00    +0.027 C 
ATOM      7  C   UNL     1      17.253   7.790  20.990  0.00  0.00    +0.095 C 
ATOM      8  C   UNL     1      15.718   6.346  20.018  0.00  0.00    +0.085 C 
ENDROOT
BRANCH   5  10
ATOM      1  S   UNL     1      19.928   6.934  22.104  0.00  0.00    -0.072 S 
ATOM      3  N   UNL     1      19.760   5.094  20.306  0.00  0.00    -0.244 NA
ATOM     10  C   UNL     1      19.233   6.226  20.712  0.00  0.00    +0.084 A 
ATOM     12  C   UNL     1      21.046   5.624  22.202  0.00  0.00    +0.039 A 
ATOM     13  C   UNL     1      20.800   4.736  21.150  0.00  0.00    +0.078 A 
ATOM     16  C   UNL     1      22.065   5.399  23.140  0.00  0.00    +0.017 A 
ATOM     17  C   UNL     1      21.605   3.582  21.037  0.00  0.00    +0.029 A 
ATOM     21  C   UNL     1      22.848   4.250  23.005  0.00  0.00    +0.001 A 
ATOM     22  C   UNL     1      22.622   3.351  21.969  0.00  0.00    +0.002 A 
ENDBRANCH   5  10
BRANCH   2   9
ATOM      9  C   UNL     1      14.887   8.216  21.319  0.00  0.00    +0.119 C 
BRANCH   9  11
ATOM     11  C   UNL     1      13.548   8.349  20.644  0.00  0.00    -0.032 A 
ATOM     14  C   UNL     1      13.476   8.533  19.264  0.00  0.00    +0.023 A 
ATOM     15  C   UNL     1      12.378   8.288  21.401  0.00  0.00    +0.005 A 
ATOM     18  C   UNL     1      12.235   8.654  18.640  0.00  0.00    +0.052 A 
ATOM     19  C   UNL     1      11.137   8.410  20.778  0.00  0.00    +0.002 A 
ATOM     20  C   UNL     1      11.064   8.593  19.397  0.00  0.00    +0.019 A 
BRANCH  18  23
ATOM      4  N   UNL     1      12.100   8.992  16.075  0.00  0.00    -0.191 NA
ATOM     23  C   UNL     1      12.160   8.841  17.225  0.00  0.00    +0.099 C 
ENDBRANCH  18  23
ENDBRANCH   9  11
ENDBRANCH   2   9
TORSDOF 4
ENDMDL
MODEL 4
REMARK VINA RESULT:      -6.4     27.441     29.482
REMARK  Name = 51137073
REMARK  4 active torsions:
REMARK  status: ('A' for Active; 'I' for Inactive)
REMARK    1  A    between atoms: N_2  and  C_9
REMARK    2  A    between atoms: C_5  and  C_10
REMARK    3  A    between atoms: C_9  and  C_11
REMARK    4  A    between atoms: C_18  and  C_23
REMARK                            x       y       z     vdW  Elec       q    Type
REMARK                         _______ _______ _______ _____ _____    ______ ____
ROOT
ATOM      2  N   UNL     1      -4.179 -10.706  14.881  0.00  0.00    -0.297 NA
ATOM      5  C   UNL     1      -5.539  -9.746  16.534  0.00  0.00    +0.060 C 
ATOM      6  C   UNL     1      -4.419 -10.564  17.199  0.00  0.00    +0.027 C 
ATOM      7  C   UNL     1      -5.546 -10.215  15.072  0.00  0.00    +0.095 C 
ATOM      8  C   UNL     1      -3.877 -11.463  16.095  0.00  0.00    +0.085 C 
ENDROOT
BRANCH   5  10
ATOM      1  S   UNL     1      -7.072 -10.903  18.543  0.00  0.00    -0.072 S 
ATOM      3  N   UNL     1      -7.966  -9.217  16.807  0.00  0.00    -0.244 NA
ATOM     10  C   UNL     1      -6.891  -9.864  17.196  0.00  0.00    +0.084 A 
ATOM     12  C   UNL     1      -8.738 -10.468  18.642  0.00  0.00    +0.039 A 
ATOM     13  C   UNL     1      -9.033  -9.553  17.627  0.00  0.00    +0.078 A 
ATOM     16  C   UNL     1      -9.713 -10.906  19.553  0.00  0.00    +0.017 A 
ATOM     17  C   UNL     1     -10.351  -9.060  17.522  0.00  0.00    +0.029 A 
ATOM     21  C   UNL     1     -11.010 -10.403  19.427  0.00  0.00    +0.001 A 
ATOM     22  C   UNL     1     -11.327  -9.491  18.426  0.00  0.00    +0.002 A 
ENDBRANCH   5  10
BRANCH   2   9
ATOM      9  C   UNL     1      -4.042 -11.511  13.676  0.00  0.00    +0.119 C 
BRANCH   9  11
ATOM     11  C   UNL     1      -3.714 -10.670  12.472  0.00  0.00    -0.032 A 
ATOM     14  C   UNL     1      -4.740 -10.143  11.688  0.00  0.00    +0.023 A 
ATOM     15  C   UNL     1      -2.383 -10.419  12.141  0.00  0.00    +0.005 A 
ATOM     18  C   UNL     1      -4.435  -9.363  10.573  0.00  0.00    +0.052 A 
ATOM     19  C   UNL     1      -2.078  -9.638  11.025  0.00  0.00    +0.002 A 
ATOM     20  C   UNL     1      -3.104  -9.110  10.241  0.00  0.00    +0.019 A 
BRANCH  18  23
ATOM      4  N   UNL     1      -6.340  -8.382   9.117  0.00  0.00    -0.191 NA
ATOM     23  C   UNL     1      -5.486  -8.821   9.770  0.00  0.00    +0.099 C 
ENDBRANCH  18  23
ENDBRANCH   9  11
ENDBRANCH   2   9
TORSDOF 4
ENDMDL
MODEL 5
REMARK VINA RESULT:      -6.4     17.790     20.167
REMARK  Name = 51137073
REMARK  4 active torsions:
REMARK  status: ('A' for Active; 'I' for Inactive)
REMARK    1  A    between atoms: N_2  and  C_9
REMARK    2  A    between atoms: C_5  and  C_10
REMARK    3  A    between atoms: C_9  and  C_11
REMARK    4  A    between atoms: C_18  and  C_23
REMARK                            x       y       z     vdW  Elec       q    Type
REMARK                         _______ _______ _______ _____ _____    ______ ____
ROOT
ATOM      2  N   UNL     1      10.621   5.037   4.000  0.00  0.00    -0.297 NA
ATOM      5  C   UNL     1      11.945   4.846   2.074  0.00  0.00    +0.060 C 
ATOM      6  C   UNL     1      11.588   6.323   2.309  0.00  0.00    +0.027 C 
ATOM      7  C   UNL     1      10.967   4.065   2.962  0.00  0.00    +0.095 C 
ATOM      8  C   UNL     1      10.419   6.297   3.285  0.00  0.00    +0.085 C 
ENDROOT
BRANCH   5  10
ATOM      1  S   UNL     1      13.254   3.569  -0.018  0.00  0.00    -0.072 S 
ATOM      3  N   UNL     1      10.906   4.623  -0.187  0.00  0.00    -0.244 NA
ATOM     10  C   UNL     1      11.911   4.405   0.630  0.00  0.00    +0.084 A 
ATOM     12  C   UNL     1      12.447   3.471  -1.539  0.00  0.00    +0.039 A 
ATOM     13  C   UNL     1      11.199   4.092  -1.435  0.00  0.00    +0.078 A 
ATOM     16  C   UNL     1      12.887   2.886  -2.738  0.00  0.00    +0.017 A 
ATOM     17  C   UNL     1      10.363   4.128  -2.572  0.00  0.00    +0.029 A 
ATOM     21  C   UNL     1      12.040   2.936  -3.848  0.00  0.00    +0.001 A 
ATOM     22  C   UNL     1      10.795   3.547  -3.768  0.00  0.00    +0.002 A 
ENDBRANCH   5  10
BRANCH   2   9
ATOM      9  C   UNL     1       9.447   4.640   4.765  0.00  0.00    +0.119 C 
BRANCH   9  11
ATOM     11  C   UNL     1       9.303   5.442   6.030  0.00  0.00    -0.032 A 
ATOM     14  C   UNL     1       9.693   4.896   7.252  0.00  0.00    +0.023 A 
ATOM     15  C   UNL     1       8.779   6.734   5.978  0.00  0.00    +0.005 A 
ATOM     18  C   UNL     1       9.559   5.642   8.424  0.00  0.00    +0.052 A 
ATOM     19  C   UNL     1       8.646   7.480   7.149  0.00  0.00    +0.002 A 
ATOM     20  C   UNL     1       9.035   6.934   8.373  0.00  0.00    +0.019 A 
BRANCH  18  23
ATOM      4  N   UNL     1      10.284   4.629  10.694  0.00  0.00    -0.191 NA
ATOM     23  C   UNL     1       9.960   5.083   9.677  0.00  0.00    +0.099 C 
ENDBRANCH  18  23
ENDBRANCH   9  11
ENDBRANCH   2   9
TORSDOF 4
ENDMDL
MODEL 6
REMARK VINA RESULT:      -6.3     17.824     21.327
REMARK  Name = 51137073
REMARK  4 active torsions:
REMARK  status: ('A' for Active; 'I' for Inactive)
REMARK    1  A    between atoms: N_2  and  C_9
REMARK    2  A    between atoms: C_5  and  C_10
REMARK    3  A    between atoms: C_9  and  C_11
REMARK    4  A    between atoms: C_18  and  C_23
REMARK                            x       y       z     vdW  Elec       q    Type
REMARK                         _______ _______ _______ _____ _____    ______ ____
ROOT
ATOM      2  N   UNL     1      11.731   4.698   1.735  0.00  0.00    -0.297 NA
ATOM      5  C   UNL     1      10.343   5.629   3.381  0.00  0.00    +0.060 C 
ATOM      6  C   UNL     1      11.414   6.654   2.971  0.00  0.00    +0.027 C 
ATOM      7  C   UNL     1      10.861   4.290   2.839  0.00  0.00    +0.095 C 
ATOM      8  C   UNL     1      12.484   5.842   2.252  0.00  0.00    +0.085 C 
ENDROOT
BRANCH   5  10
ATOM      1  S   UNL     1       9.506   7.014   5.640  0.00  0.00    -0.072 S 
ATOM      3  N   UNL     1      10.149   4.516   5.609  0.00  0.00    -0.244 NA
ATOM     10  C   UNL     1      10.036   5.588   4.859  0.00  0.00    +0.084 A 
ATOM     12  C   UNL     1       9.408   6.150   7.130  0.00  0.00    +0.039 A 
ATOM     13  C   UNL     1       9.792   4.823   6.914  0.00  0.00    +0.078 A 
ATOM     16  C   UNL     1       9.018   6.613   8.397  0.00  0.00    +0.017 A 
ATOM     17  C   UNL     1       9.785   3.930   8.007  0.00  0.00    +0.029 A 
ATOM     21  C   UNL     1       9.021   5.709   9.462  0.00  0.00    +0.001 A 
ATOM     22  C   UNL     1       9.398   4.385   9.272  0.00  0.00    +0.002 A 
ENDBRANCH   5  10
BRANCH   2   9
ATOM      9  C   UNL     1      12.600   3.621   1.284  0.00  0.00    +0.119 C 
BRANCH   9  11
ATOM     11  C   UNL     1      12.766   3.622  -0.212  0.00  0.00    -0.032 A 
ATOM     14  C   UNL     1      11.708   3.234  -1.033  0.00  0.00    +0.023 A 
ATOM     15  C   UNL     1      13.980   4.012  -0.776  0.00  0.00    +0.005 A 
ATOM     18  C   UNL     1      11.863   3.237  -2.419  0.00  0.00    +0.052 A 
ATOM     19  C   UNL     1      14.136   4.015  -2.162  0.00  0.00    +0.002 A 
ATOM     20  C   UNL     1      13.078   3.627  -2.984  0.00  0.00    +0.019 A 
BRANCH  18  23
ATOM      4  N   UNL     1       9.898   2.520  -3.945  0.00  0.00    -0.191 NA
ATOM     23  C   UNL     1      10.779   2.841  -3.261  0.00  0.00    +0.099 C 
ENDBRANCH  18  23
ENDBRANCH   9  11
ENDBRANCH   2   9
TORSDOF 4
ENDMDL
MODEL 7
REMARK VINA RESULT:      -6.3     27.888     30.734
REMARK  Name = 51137073
REMARK  4 active torsions:
REMARK  status: ('A' for Active; 'I' for Inactive)
REMARK    1  A    between atoms: N_2  and  C_9
REMARK    2  A    between atoms: C_5  and  C_10
REMARK    3  A    between atoms: C_9  and  C_11
REMARK    4  A    between atoms: C_18  and  C_23
REMARK                            x       y       z     vdW  Elec       q    Type
REMARK                         _______ _______ _______ _____ _____    ______ ____
ROOT
ATOM      2  N   UNL     1      -9.686  -9.001  16.571  0.00  0.00    -0.297 NA
ATOM      5  C   UNL     1     -11.236  -7.247  16.426  0.00  0.00    +0.060 C 
ATOM      6  C   UNL     1     -11.923  -8.494  17.009  0.00  0.00    +0.027 C 
ATOM      7  C   UNL     1      -9.933  -7.774  15.811  0.00  0.00    +0.095 C 
ATOM      8  C   UNL     1     -10.993  -9.652  16.670  0.00  0.00    +0.085 C 
ENDROOT
BRANCH   5  10
ATOM      1  S   UNL     1     -13.758  -6.748  15.369  0.00  0.00    -0.072 S 
ATOM      3  N   UNL     1     -11.597  -5.552  14.626  0.00  0.00    -0.244 NA
ATOM     10  C   UNL     1     -12.074  -6.460  15.446  0.00  0.00    +0.084 A 
ATOM     12  C   UNL     1     -13.895  -5.557  14.129  0.00  0.00    +0.039 A 
ATOM     13  C   UNL     1     -12.630  -5.025  13.864  0.00  0.00    +0.078 A 
ATOM     16  C   UNL     1     -15.041  -5.125  13.440  0.00  0.00    +0.017 A 
ATOM     17  C   UNL     1     -12.509  -4.025  12.876  0.00  0.00    +0.029 A 
ATOM     21  C   UNL     1     -14.893  -4.135  12.467  0.00  0.00    +0.001 A 
ATOM     22  C   UNL     1     -13.645  -3.590  12.186  0.00  0.00    +0.002 A 
ENDBRANCH   5  10
BRANCH   2   9
ATOM      9  C   UNL     1      -8.689  -9.854  15.941  0.00  0.00    +0.119 C 
BRANCH   9  11
ATOM     11  C   UNL     1      -7.516 -10.111  16.848  0.00  0.00    -0.032 A 
ATOM     14  C   UNL     1      -6.231 -10.214  16.316  0.00  0.00    +0.023 A 
ATOM     15  C   UNL     1      -7.715 -10.245  18.222  0.00  0.00    +0.005 A 
ATOM     18  C   UNL     1      -5.144 -10.451  17.159  0.00  0.00    +0.052 A 
ATOM     19  C   UNL     1      -6.629 -10.482  19.064  0.00  0.00    +0.002 A 
ATOM     20  C   UNL     1      -5.343 -10.585  18.533  0.00  0.00    +0.019 A 
BRANCH  18  23
ATOM      4  N   UNL     1      -2.757 -10.639  16.173  0.00  0.00    -0.191 NA
ATOM     23  C   UNL     1      -3.827 -10.555  16.614  0.00  0.00    +0.099 C 
ENDBRANCH  18  23
ENDBRANCH   9  11
ENDBRANCH   2   9
TORSDOF 4
ENDMDL
MODEL 8
REMARK VINA RESULT:      -6.3      1.479      2.200
REMARK  Name = 51137073
REMARK  4 active torsions:
REMARK  status: ('A' for Active; 'I' for Inactive)
REMARK    1  A    between atoms: N_2  and  C_9
REMARK    2  A    between atoms: C_5  and  C_10
REMARK    3  A    between atoms: C_9  and  C_11
REMARK    4  A    between atoms: C_18  and  C_23
REMARK                            x       y       z     vdW  Elec       q    Type
REMARK                         _______ _______ _______ _____ _____    ______ ____
ROOT
ATOM      2  N   UNL     1      12.453   9.286  21.145  0.00  0.00    -0.297 NA
ATOM      5  C   UNL     1      14.475   8.830  20.048  0.00  0.00    +0.060 C 
ATOM      6  C   UNL     1      13.337   8.042  19.378  0.00  0.00    +0.027 C 
ATOM      7  C   UNL     1      13.895   9.278  21.397  0.00  0.00    +0.095 C 
ATOM      8  C   UNL     1      12.196   8.061  20.387  0.00  0.00    +0.085 C 
ENDROOT
BRANCH   5  10
ATOM      1  S   UNL     1      15.995   6.625  19.308  0.00  0.00    -0.072 S 
ATOM      3  N   UNL     1      16.774   8.453  20.953  0.00  0.00    -0.244 NA
ATOM     10  C   UNL     1      15.775   8.074  20.188  0.00  0.00    +0.084 A 
ATOM     12  C   UNL     1      17.570   6.459  19.993  0.00  0.00    +0.039 A 
ATOM     13  C   UNL     1      17.810   7.536  20.852  0.00  0.00    +0.078 A 
ATOM     16  C   UNL     1      18.523   5.449  19.785  0.00  0.00    +0.017 A 
ATOM     17  C   UNL     1      19.049   7.603  21.524  0.00  0.00    +0.029 A 
ATOM     21  C   UNL     1      19.741   5.539  20.464  0.00  0.00    +0.001 A 
ATOM     22  C   UNL     1      20.003   6.601  21.322  0.00  0.00    +0.002 A 
ENDBRANCH   5  10
BRANCH   2   9
ATOM      9  C   UNL     1      11.675   9.350  22.373  0.00  0.00    +0.119 C 
BRANCH   9  11
ATOM     11  C   UNL     1      11.285  10.763  22.718  0.00  0.00    -0.032 A 
ATOM     14  C   UNL     1      11.292  11.750  21.733  0.00  0.00    +0.023 A 
ATOM     15  C   UNL     1      10.918  11.083  24.025  0.00  0.00    +0.005 A 
ATOM     18  C   UNL     1      10.930  13.058  22.055  0.00  0.00    +0.052 A 
ATOM     19  C   UNL     1      10.556  12.391  24.346  0.00  0.00    +0.002 A 
ATOM     20  C   UNL     1      10.562  13.380  23.361  0.00  0.00    +0.019 A 
BRANCH  18  23
ATOM      4  N   UNL     1      10.940  14.891  20.225  0.00  0.00    -0.191 NA
ATOM     23  C   UNL     1      10.936  14.070  21.045  0.00  0.00    +0.099 C 
ENDBRANCH  18  23
ENDBRANCH   9  11
ENDBRANCH   2   9
TORSDOF 4
ENDMDL
MODEL 9
REMARK VINA RESULT:      -6.2     14.772     17.373
REMARK  Name = 51137073
REMARK  4 active torsions:
REMARK  status: ('A' for Active; 'I' for Inactive)
REMARK    1  A    between atoms: N_2  and  C_9
REMARK    2  A    between atoms: C_5  and  C_10
REMARK    3  A    between atoms: C_9  and  C_11
REMARK    4  A    between atoms: C_18  and  C_23
REMARK                            x       y       z     vdW  Elec       q    Type
REMARK                         _______ _______ _______ _____ _____    ______ ____
ROOT
ATOM      2  N   UNL     1      10.932   5.782   3.718  0.00  0.00    -0.297 NA
ATOM      5  C   UNL     1      12.705   7.255   3.288  0.00  0.00    +0.060 C 
ATOM      6  C   UNL     1      12.591   6.238   2.139  0.00  0.00    +0.027 C 
ATOM      7  C   UNL     1      11.875   6.648   4.427  0.00  0.00    +0.095 C 
ATOM      8  C   UNL     1      11.734   5.109   2.696  0.00  0.00    +0.085 C 
ENDROOT
BRANCH   5  10
ATOM      1  S   UNL     1      15.373   7.489   2.544  0.00  0.00    -0.072 S 
ATOM      3  N   UNL     1      14.468   7.957   4.914  0.00  0.00    -0.244 NA
ATOM     10  C   UNL     1      14.119   7.589   3.702  0.00  0.00    +0.084 A 
ATOM     12  C   UNL     1      16.509   7.980   3.745  0.00  0.00    +0.039 A 
ATOM     13  C   UNL     1      15.836   8.185   4.954  0.00  0.00    +0.078 A 
ATOM     16  C   UNL     1      17.895   8.171   3.627  0.00  0.00    +0.017 A 
ATOM     17  C   UNL     1      16.579   8.596   6.081  0.00  0.00    +0.029 A 
ATOM     21  C   UNL     1      18.606   8.577   4.758  0.00  0.00    +0.001 A 
ATOM     22  C   UNL     1      17.959   8.788   5.970  0.00  0.00    +0.002 A 
ENDBRANCH   5  10
BRANCH   2   9
ATOM      9  C   UNL     1      10.264   4.842   4.606  0.00  0.00    +0.119 C 
BRANCH   9  11
ATOM     11  C   UNL     1       9.743   5.515   5.847  0.00  0.00    -0.032 A 
ATOM     14  C   UNL     1      10.010   4.970   7.103  0.00  0.00    +0.023 A 
ATOM     15  C   UNL     1       8.992   6.685   5.740  0.00  0.00    +0.005 A 
ATOM     18  C   UNL     1       9.526   5.596   8.252  0.00  0.00    +0.052 A 
ATOM     19  C   UNL     1       8.508   7.311   6.889  0.00  0.00    +0.002 A 
ATOM     20  C   UNL     1       8.775   6.767   8.145  0.00  0.00    +0.019 A 
BRANCH  18  23
ATOM      4  N   UNL     1      10.023   4.587  10.585  0.00  0.00    -0.191 NA
ATOM     23  C   UNL     1       9.801   5.039   9.539  0.00  0.00    +0.099 C 
ENDBRANCH  18  23
ENDBRANCH   9  11
ENDBRANCH   2   9
TORSDOF 4
ENDMDL
MODEL 10
REMARK VINA RESULT:      -6.2      4.225      6.704
REMARK  Name = 51137073
REMARK  4 active torsions:
REMARK  status: ('A' for Active; 'I' for Inactive)
REMARK    1  A    between atoms: N_2  and  C_9
REMARK    2  A    between atoms: C_5  and  C_10
REMARK    3  A    between atoms: C_9  and  C_11
REMARK    4  A    between atoms: C_18  and  C_23
REMARK                            x       y       z     vdW  Elec       q    Type
REMARK                         _______ _______ _______ _____ _____    ______ ____
ROOT
ATOM      2  N   UNL     1      17.012   7.824  20.663  0.00  0.00    -0.297 NA
ATOM      5  C   UNL     1      19.050   6.724  20.288  0.00  0.00    +0.060 C 
ATOM      6  C   UNL     1      17.909   5.933  19.627  0.00  0.00    +0.027 C 
ATOM      7  C   UNL     1      18.345   7.688  21.253  0.00  0.00    +0.095 C 
ATOM      8  C   UNL     1      16.634   6.466  20.268  0.00  0.00    +0.085 C 
ENDROOT
BRANCH   5  10
ATOM      1  S   UNL     1      20.664   6.329  22.515  0.00  0.00    -0.072 S 
ATOM      3  N   UNL     1      20.632   4.796  20.442  0.00  0.00    -0.244 NA
ATOM     10  C   UNL     1      20.101   5.878  20.965  0.00  0.00    +0.084 A 
ATOM     12  C   UNL     1      21.722   4.967  22.518  0.00  0.00    +0.039 A 
ATOM     13  C   UNL     1      21.563   4.263  21.321  0.00  0.00    +0.078 A 
ATOM     16  C   UNL     1      22.626   4.551  23.509  0.00  0.00    +0.017 A 
ATOM     17  C   UNL     1      22.337   3.102  21.110  0.00  0.00    +0.029 A 
ATOM     21  C   UNL     1      23.380   3.399  23.275  0.00  0.00    +0.001 A 
ATOM     22  C   UNL     1      23.239   2.682  22.092  0.00  0.00    +0.002 A 
ENDBRANCH   5  10
BRANCH   2   9
ATOM      9  C   UNL     1      16.055   8.420  21.582  0.00  0.00    +0.119 C 
BRANCH   9  11
ATOM     11  C   UNL     1      14.702   8.601  20.947  0.00  0.00    -0.032 A 
ATOM     14  C   UNL     1      13.572   8.035  21.535  0.00  0.00    +0.023 A 
ATOM     15  C   UNL     1      14.581   9.336  19.768  0.00  0.00    +0.005 A 
ATOM     18  C   UNL     1      12.320   8.204  20.945  0.00  0.00    +0.052 A 
ATOM     19  C   UNL     1      13.328   9.506  19.178  0.00  0.00    +0.002 A 
ATOM     20  C   UNL     1      12.197   8.940  19.766  0.00  0.00    +0.019 A 
BRANCH  18  23
ATOM      4  N   UNL     1      10.220   7.154  22.039  0.00  0.00    -0.191 NA
ATOM     23  C   UNL     1      11.161   7.625  21.548  0.00  0.00    +0.099 C 
ENDBRANCH  18  23
ENDBRANCH   9  11
ENDBRANCH   2   9
TORSDOF 4
ENDMDL
