MODEL 1
REMARK VINA RESULT:      -7.1      0.000      0.000
REMARK  Name = 45783346
REMARK  9 active torsions:
REMARK  status: ('A' for Active; 'I' for Inactive)
REMARK    1  A    between atoms: O_3  and  C_25
REMARK    2  A    between atoms: O_3  and  C_27
REMARK    3  A    between atoms: O_4  and  C_28
REMARK    4  A    between atoms: O_4  and  C_29
REMARK    5  A    between atoms: N_5  and  C_13
REMARK    6  A    between atoms: C_9  and  C_14
REMARK    7  A    between atoms: C_13  and  C_15
REMARK    8  A    between atoms: C_18  and  C_21
REMARK    9  A    between atoms: C_27  and  C_28
REMARK                            x       y       z     vdW  Elec       q    Type
REMARK                         _______ _______ _______ _____ _____    ______ ____
ROOT
ATOM      2  O   UNL     1      16.552   5.853  18.563  0.00  0.00    -0.336 OA
ATOM      6  N   UNL     1      17.097   6.969  20.427  0.00  0.00    -0.190 NA
ATOM      7  N   UNL     1      17.847   5.438  18.901  0.00  0.00    -0.056 NA
ATOM     14  C   UNL     1      16.186   6.754  19.512  0.00  0.00    +0.245 A 
ATOM     18  C   UNL     1      18.098   6.140  20.010  0.00  0.00    +0.202 A 
ENDROOT
BRANCH  18  21
ATOM      8  N   UNL     1      21.752   5.838  22.117  0.00  0.00    -0.221 NA
ATOM     21  C   UNL     1      19.337   6.037  20.724  0.00  0.00    +0.029 A 
ATOM     23  C   UNL     1      20.264   5.060  20.379  0.00  0.00    +0.079 A 
ATOM     24  C   UNL     1      19.617   6.915  21.765  0.00  0.00    +0.031 A 
ATOM     25  C   UNL     1      21.446   5.002  21.100  0.00  0.00    +0.215 A 
ATOM     26  C   UNL     1      20.828   6.775  22.424  0.00  0.00    +0.115 A 
BRANCH  25   3
ATOM      3  O   UNL     1      22.375   4.047  20.778  0.00  0.00    -0.474 OA
BRANCH   3  27
ATOM     27  C   UNL     1      23.739   4.381  21.004  0.00  0.00    +0.258 C 
BRANCH  27  28
ATOM     28  C   UNL     1      24.540   4.056  19.758  0.00  0.00    +0.200 C 
BRANCH  28   4
ATOM      4  O   UNL     1      24.896   2.679  19.781  0.00  0.00    -0.380 OA
ATOM     29  C   UNL     1      25.369   2.284  21.061  0.00  0.00    +0.194 C 
ENDBRANCH  28   4
ENDBRANCH  27  28
ENDBRANCH   3  27
ENDBRANCH  25   3
ENDBRANCH  18  21
BRANCH  14   9
ATOM      5  N   UNL     1      14.684   8.664  20.052  0.00  0.00    -0.287 NA
ATOM      9  C   UNL     1      14.805   7.359  19.370  0.00  0.00    +0.146 C 
ATOM     10  C   UNL     1      14.430   7.648  17.904  0.00  0.00    +0.030 C 
ATOM     11  C   UNL     1      14.055   9.123  17.873  0.00  0.00    +0.017 C 
ATOM     12  C   UNL     1      13.681   9.427  19.309  0.00  0.00    +0.085 C 
BRANCH   5  13
ATOM     13  C   UNL     1      14.348   8.544  21.465  0.00  0.00    +0.123 C 
BRANCH  13  15
ATOM      1  F   UNL     1      12.387  10.359  22.406  0.00  0.00    -0.205 F 
ATOM     15  C   UNL     1      12.905   8.164  21.667  0.00  0.00    +0.002 A 
ATOM     16  C   UNL     1      11.990   9.108  22.134  0.00  0.00    +0.128 A 
ATOM     17  C   UNL     1      12.483   6.864  21.386  0.00  0.00    +0.008 A 
ATOM     19  C   UNL     1      10.655   8.753  22.320  0.00  0.00    +0.038 A 
ATOM     20  C   UNL     1      11.148   6.508  21.573  0.00  0.00    +0.000 A 
ATOM     22  C   UNL     1      10.234   7.453  22.039  0.00  0.00    +0.003 A 
ENDBRANCH  13  15
ENDBRANCH   5  13
ENDBRANCH  14   9
TORSDOF 8
ENDMDL
MODEL 2
REMARK VINA RESULT:      -7.1     26.548     30.305
REMARK  Name = 45783346
REMARK  9 active torsions:
REMARK  status: ('A' for Active; 'I' for Inactive)
REMARK    1  A    between atoms: O_3  and  C_25
REMARK    2  A    between atoms: O_3  and  C_27
REMARK    3  A    between atoms: O_4  and  C_28
REMARK    4  A    between atoms: O_4  and  C_29
REMARK    5  A    between atoms: N_5  and  C_13
REMARK    6  A    between atoms: C_9  and  C_14
REMARK    7  A    between atoms: C_13  and  C_15
REMARK    8  A    between atoms: C_18  and  C_21
REMARK    9  A    between atoms: C_27  and  C_28
REMARK                            x       y       z     vdW  Elec       q    Type
REMARK                         _______ _______ _______ _____ _____    ______ ____
ROOT
ATOM      2  O   UNL     1      -4.435 -12.371  17.110  0.00  0.00    -0.336 OA
ATOM      6  N   UNL     1      -5.288 -10.554  16.116  0.00  0.00    -0.190 NA
ATOM      7  N   UNL     1      -5.686 -12.154  17.702  0.00  0.00    -0.056 NA
ATOM     14  C   UNL     1      -4.279 -11.385  16.188  0.00  0.00    +0.245 A 
ATOM     18  C   UNL     1      -6.127 -11.066  17.063  0.00  0.00    +0.202 A 
ENDROOT
BRANCH  18  21
ATOM      8  N   UNL     1      -9.874  -9.296  17.904  0.00  0.00    -0.221 NA
ATOM     21  C   UNL     1      -7.397 -10.466  17.348  0.00  0.00    +0.029 A 
ATOM     23  C   UNL     1      -7.871  -9.426  16.557  0.00  0.00    +0.079 A 
ATOM     24  C   UNL     1      -8.160 -10.922  18.417  0.00  0.00    +0.031 A 
ATOM     25  C   UNL     1      -9.104  -8.879  16.874  0.00  0.00    +0.215 A 
ATOM     26  C   UNL     1      -9.381 -10.309  18.651  0.00  0.00    +0.115 A 
BRANCH  25   3
ATOM      3  O   UNL     1      -9.593  -7.852  16.109  0.00  0.00    -0.474 OA
BRANCH   3  27
ATOM     27  C   UNL     1     -10.989  -7.592  16.205  0.00  0.00    +0.258 C 
BRANCH  27  28
ATOM     28  C   UNL     1     -11.210  -6.093  16.254  0.00  0.00    +0.200 C 
BRANCH  28   4
ATOM      4  O   UNL     1     -11.177  -5.575  14.930  0.00  0.00    -0.380 OA
ATOM     29  C   UNL     1     -12.442  -5.687  14.294  0.00  0.00    +0.194 C 
ENDBRANCH  28   4
ENDBRANCH  27  28
ENDBRANCH   3  27
ENDBRANCH  25   3
ENDBRANCH  18  21
BRANCH  14   9
ATOM      5  N   UNL     1      -3.057 -10.565  14.180  0.00  0.00    -0.287 NA
ATOM      9  C   UNL     1      -2.987 -11.397  15.399  0.00  0.00    +0.146 C 
ATOM     10  C   UNL     1      -1.799 -10.825  16.194  0.00  0.00    +0.030 C 
ATOM     11  C   UNL     1      -1.229  -9.719  15.317  0.00  0.00    +0.017 C 
ATOM     12  C   UNL     1      -1.698 -10.089  13.925  0.00  0.00    +0.085 C 
BRANCH   5  13
ATOM     13  C   UNL     1      -3.616 -11.271  13.034  0.00  0.00    +0.123 C 
BRANCH  13  15
ATOM      1  F   UNL     1      -5.949  -9.667  13.110  0.00  0.00    -0.205 F 
ATOM     15  C   UNL     1      -4.000 -10.327  11.926  0.00  0.00    +0.002 A 
ATOM     16  C   UNL     1      -5.165  -9.565  12.029  0.00  0.00    +0.128 A 
ATOM     17  C   UNL     1      -3.190 -10.213  10.797  0.00  0.00    +0.008 A 
ATOM     19  C   UNL     1      -5.518  -8.690  11.001  0.00  0.00    +0.038 A 
ATOM     20  C   UNL     1      -3.544  -9.339   9.769  0.00  0.00    +0.000 A 
ATOM     22  C   UNL     1      -4.708  -8.578   9.872  0.00  0.00    +0.003 A 
ENDBRANCH  13  15
ENDBRANCH   5  13
ENDBRANCH  14   9
TORSDOF 8
ENDMDL
MODEL 3
REMARK VINA RESULT:      -7.1     30.251     33.555
REMARK  Name = 45783346
REMARK  9 active torsions:
REMARK  status: ('A' for Active; 'I' for Inactive)
REMARK    1  A    between atoms: O_3  and  C_25
REMARK    2  A    between atoms: O_3  and  C_27
REMARK    3  A    between atoms: O_4  and  C_28
REMARK    4  A    between atoms: O_4  and  C_29
REMARK    5  A    between atoms: N_5  and  C_13
REMARK    6  A    between atoms: C_9  and  C_14
REMARK    7  A    between atoms: C_13  and  C_15
REMARK    8  A    between atoms: C_18  and  C_21
REMARK    9  A    between atoms: C_27  and  C_28
REMARK                            x       y       z     vdW  Elec       q    Type
REMARK                         _______ _______ _______ _____ _____    ______ ____
ROOT
ATOM      2  O   UNL     1     -16.299   3.055  23.027  0.00  0.00    -0.336 OA
ATOM      6  N   UNL     1     -17.058   4.492  24.568  0.00  0.00    -0.190 NA
ATOM      7  N   UNL     1     -16.112   2.431  24.267  0.00  0.00    -0.056 NA
ATOM     14  C   UNL     1     -16.859   4.264  23.295  0.00  0.00    +0.245 A 
ATOM     18  C   UNL     1     -16.584   3.339  25.125  0.00  0.00    +0.202 A 
ENDROOT
BRANCH  18  21
ATOM      8  N   UNL     1     -16.616   2.718  29.308  0.00  0.00    -0.221 NA
ATOM     21  C   UNL     1     -16.595   3.129  26.544  0.00  0.00    +0.029 A 
ATOM     23  C   UNL     1     -16.536   1.838  27.058  0.00  0.00    +0.079 A 
ATOM     24  C   UNL     1     -16.664   4.214  27.410  0.00  0.00    +0.031 A 
ATOM     25  C   UNL     1     -16.550   1.688  28.436  0.00  0.00    +0.215 A 
ATOM     26  C   UNL     1     -16.671   3.957  28.771  0.00  0.00    +0.115 A 
BRANCH  25   3
ATOM      3  O   UNL     1     -16.493   0.426  28.968  0.00  0.00    -0.474 OA
BRANCH   3  27
ATOM     27  C   UNL     1     -15.723   0.266  30.154  0.00  0.00    +0.258 C 
BRANCH  27  28
ATOM     28  C   UNL     1     -14.297  -0.081  29.775  0.00  0.00    +0.200 C 
BRANCH  28   4
ATOM      4  O   UNL     1     -13.477   1.067  29.952  0.00  0.00    -0.380 OA
ATOM     29  C   UNL     1     -13.752   1.719  31.183  0.00  0.00    +0.194 C 
ENDBRANCH  28   4
ENDBRANCH  27  28
ENDBRANCH   3  27
ENDBRANCH  25   3
ENDBRANCH  18  21
BRANCH  14   9
ATOM      5  N   UNL     1     -15.949   5.551  21.369  0.00  0.00    -0.287 NA
ATOM      9  C   UNL     1     -17.165   5.145  22.102  0.00  0.00    +0.146 C 
ATOM     10  C   UNL     1     -18.038   4.438  21.048  0.00  0.00    +0.030 C 
ATOM     11  C   UNL     1     -17.258   4.551  19.745  0.00  0.00    +0.017 C 
ATOM     12  C   UNL     1     -16.350   5.741  19.975  0.00  0.00    +0.085 C 
BRANCH   5  13
ATOM     13  C   UNL     1     -15.314   6.741  21.924  0.00  0.00    +0.123 C 
BRANCH  13  15
ATOM      1  F   UNL     1     -13.066   5.058  22.296  0.00  0.00    -0.205 F 
ATOM     15  C   UNL     1     -13.974   7.008  21.292  0.00  0.00    +0.002 A 
ATOM     16  C   UNL     1     -12.907   6.137  21.518  0.00  0.00    +0.128 A 
ATOM     17  C   UNL     1     -13.800   8.128  20.480  0.00  0.00    +0.008 A 
ATOM     19  C   UNL     1     -11.667   6.387  20.930  0.00  0.00    +0.038 A 
ATOM     20  C   UNL     1     -12.560   8.379  19.893  0.00  0.00    +0.000 A 
ATOM     22  C   UNL     1     -11.494   7.508  20.118  0.00  0.00    +0.003 A 
ENDBRANCH  13  15
ENDBRANCH   5  13
ENDBRANCH  14   9
TORSDOF 8
ENDMDL
MODEL 4
REMARK VINA RESULT:      -6.9      1.562      2.089
REMARK  Name = 45783346
REMARK  9 active torsions:
REMARK  status: ('A' for Active; 'I' for Inactive)
REMARK    1  A    between atoms: O_3  and  C_25
REMARK    2  A    between atoms: O_3  and  C_27
REMARK    3  A    between atoms: O_4  and  C_28
REMARK    4  A    between atoms: O_4  and  C_29
REMARK    5  A    between atoms: N_5  and  C_13
REMARK    6  A    between atoms: C_9  and  C_14
REMARK    7  A    between atoms: C_13  and  C_15
REMARK    8  A    between atoms: C_18  and  C_21
REMARK    9  A    between atoms: C_27  and  C_28
REMARK                            x       y       z     vdW  Elec       q    Type
REMARK                         _______ _______ _______ _____ _____    ______ ____
ROOT
ATOM      2  O   UNL     1      15.887   8.689  20.117  0.00  0.00    -0.336 OA
ATOM      6  N   UNL     1      16.665   6.594  19.962  0.00  0.00    -0.190 NA
ATOM      7  N   UNL     1      17.127   8.685  20.769  0.00  0.00    -0.056 NA
ATOM     14  C   UNL     1      15.692   7.420  19.673  0.00  0.00    +0.245 A 
ATOM     18  C   UNL     1      17.523   7.416  20.635  0.00  0.00    +0.202 A 
ENDROOT
BRANCH  18  21
ATOM      8  N   UNL     1      21.193   6.002  22.190  0.00  0.00    -0.221 NA
ATOM     21  C   UNL     1      18.768   6.936  21.162  0.00  0.00    +0.029 A 
ATOM     23  C   UNL     1      19.460   5.924  20.506  0.00  0.00    +0.079 A 
ATOM     24  C   UNL     1      19.287   7.481  22.331  0.00  0.00    +0.031 A 
ATOM     25  C   UNL     1      20.658   5.496  21.056  0.00  0.00    +0.215 A 
ATOM     26  C   UNL     1      20.492   6.984  22.799  0.00  0.00    +0.115 A 
BRANCH  25   3
ATOM      3  O   UNL     1      21.359   4.499  20.429  0.00  0.00    -0.474 OA
BRANCH   3  27
ATOM     27  C   UNL     1      21.679   3.353  21.209  0.00  0.00    +0.258 C 
BRANCH  27  28
ATOM     28  C   UNL     1      23.182   3.158  21.208  0.00  0.00    +0.200 C 
BRANCH  28   4
ATOM      4  O   UNL     1      23.483   1.867  20.694  0.00  0.00    -0.380 OA
ATOM     29  C   UNL     1      24.473   1.212  21.475  0.00  0.00    +0.194 C 
ENDBRANCH  28   4
ENDBRANCH  27  28
ENDBRANCH   3  27
ENDBRANCH  25   3
ENDBRANCH  18  21
BRANCH  14   9
ATOM      5  N   UNL     1      13.310   8.060  19.340  0.00  0.00    -0.287 NA
ATOM      9  C   UNL     1      14.402   7.158  18.923  0.00  0.00    +0.146 C 
ATOM     10  C   UNL     1      14.540   7.387  17.406  0.00  0.00    +0.030 C 
ATOM     11  C   UNL     1      13.445   8.384  17.053  0.00  0.00    +0.017 C 
ATOM     12  C   UNL     1      12.440   8.223  18.175  0.00  0.00    +0.085 C 
BRANCH   5  13
ATOM     13  C   UNL     1      12.580   7.578  20.506  0.00  0.00    +0.123 C 
BRANCH  13  15
ATOM      1  F   UNL     1      10.209   7.463  22.052  0.00  0.00    -0.205 F 
ATOM     15  C   UNL     1      12.116   8.709  21.385  0.00  0.00    +0.002 A 
ATOM     16  C   UNL     1      10.937   8.586  22.120  0.00  0.00    +0.128 A 
ATOM     17  C   UNL     1      12.868   9.881  21.463  0.00  0.00    +0.008 A 
ATOM     19  C   UNL     1      10.510   9.636  22.934  0.00  0.00    +0.038 A 
ATOM     20  C   UNL     1      12.440  10.931  22.276  0.00  0.00    +0.000 A 
ATOM     22  C   UNL     1      11.262  10.808  23.011  0.00  0.00    +0.003 A 
ENDBRANCH  13  15
ENDBRANCH   5  13
ENDBRANCH  14   9
TORSDOF 8
ENDMDL
MODEL 5
REMARK VINA RESULT:      -6.8     26.437     30.480
REMARK  Name = 45783346
REMARK  9 active torsions:
REMARK  status: ('A' for Active; 'I' for Inactive)
REMARK    1  A    between atoms: O_3  and  C_25
REMARK    2  A    between atoms: O_3  and  C_27
REMARK    3  A    between atoms: O_4  and  C_28
REMARK    4  A    between atoms: O_4  and  C_29
REMARK    5  A    between atoms: N_5  and  C_13
REMARK    6  A    between atoms: C_9  and  C_14
REMARK    7  A    between atoms: C_13  and  C_15
REMARK    8  A    between atoms: C_18  and  C_21
REMARK    9  A    between atoms: C_27  and  C_28
REMARK                            x       y       z     vdW  Elec       q    Type
REMARK                         _______ _______ _______ _____ _____    ______ ____
ROOT
ATOM      2  O   UNL     1      -5.125  -9.790  15.792  0.00  0.00    -0.336 OA
ATOM      6  N   UNL     1      -5.109 -11.632  17.067  0.00  0.00    -0.190 NA
ATOM      7  N   UNL     1      -6.302  -9.749  16.551  0.00  0.00    -0.056 NA
ATOM     14  C   UNL     1      -4.482 -10.930  16.157  0.00  0.00    +0.245 A 
ATOM     18  C   UNL     1      -6.220 -10.867  17.277  0.00  0.00    +0.202 A 
ENDROOT
BRANCH  18  21
ATOM      8  N   UNL     1      -9.200 -11.999  20.056  0.00  0.00    -0.221 NA
ATOM     21  C   UNL     1      -7.231 -11.251  18.219  0.00  0.00    +0.029 A 
ATOM     23  C   UNL     1      -8.436 -10.561  18.270  0.00  0.00    +0.079 A 
ATOM     24  C   UNL     1      -7.008 -12.314  19.086  0.00  0.00    +0.031 A 
ATOM     25  C   UNL     1      -9.380 -10.970  19.198  0.00  0.00    +0.215 A 
ATOM     26  C   UNL     1      -8.016 -12.646  19.978  0.00  0.00    +0.115 A 
BRANCH  25   3
ATOM      3  O   UNL     1     -10.577 -10.305  19.268  0.00  0.00    -0.474 OA
BRANCH   3  27
ATOM     27  C   UNL     1     -10.754  -9.213  18.373  0.00  0.00    +0.258 C 
BRANCH  27  28
ATOM     28  C   UNL     1     -11.977  -9.471  17.515  0.00  0.00    +0.200 C 
BRANCH  28   4
ATOM      4  O   UNL     1     -11.813  -8.816  16.264  0.00  0.00    -0.380 OA
ATOM     29  C   UNL     1     -11.545  -7.431  16.430  0.00  0.00    +0.194 C 
ENDBRANCH  28   4
ENDBRANCH  27  28
ENDBRANCH   3  27
ENDBRANCH  25   3
ENDBRANCH  18  21
BRANCH  14   9
ATOM      5  N   UNL     1      -3.014 -10.470  14.200  0.00  0.00    -0.287 NA
ATOM      9  C   UNL     1      -3.162 -11.210  15.469  0.00  0.00    +0.146 C 
ATOM     10  C   UNL     1      -1.948 -10.781  16.315  0.00  0.00    +0.030 C 
ATOM     11  C   UNL     1      -1.147  -9.850  15.416  0.00  0.00    +0.017 C 
ATOM     12  C   UNL     1      -1.580 -10.242  14.019  0.00  0.00    +0.085 C 
BRANCH   5  13
ATOM     13  C   UNL     1      -3.608 -11.160  13.061  0.00  0.00    +0.123 C 
BRANCH  13  15
ATOM      1  F   UNL     1      -2.182 -10.186  10.815  0.00  0.00    -0.205 F 
ATOM     15  C   UNL     1      -4.199 -10.195  12.067  0.00  0.00    +0.002 A 
ATOM     16  C   UNL     1      -3.439  -9.755  10.982  0.00  0.00    +0.128 A 
ATOM     17  C   UNL     1      -5.507  -9.741  12.233  0.00  0.00    +0.008 A 
ATOM     19  C   UNL     1      -3.990  -8.861  10.063  0.00  0.00    +0.038 A 
ATOM     20  C   UNL     1      -6.057  -8.847  11.314  0.00  0.00    +0.000 A 
ATOM     22  C   UNL     1      -5.298  -8.408  10.230  0.00  0.00    +0.003 A 
ENDBRANCH  13  15
ENDBRANCH   5  13
ENDBRANCH  14   9
TORSDOF 8
ENDMDL
MODEL 6
REMARK VINA RESULT:      -6.7     26.698     30.782
REMARK  Name = 45783346
REMARK  9 active torsions:
REMARK  status: ('A' for Active; 'I' for Inactive)
REMARK    1  A    between atoms: O_3  and  C_25
REMARK    2  A    between atoms: O_3  and  C_27
REMARK    3  A    between atoms: O_4  and  C_28
REMARK    4  A    between atoms: O_4  and  C_29
REMARK    5  A    between atoms: N_5  and  C_13
REMARK    6  A    between atoms: C_9  and  C_14
REMARK    7  A    between atoms: C_13  and  C_15
REMARK    8  A    between atoms: C_18  and  C_21
REMARK    9  A    between atoms: C_27  and  C_28
REMARK                            x       y       z     vdW  Elec       q    Type
REMARK                         _______ _______ _______ _____ _____    ______ ____
ROOT
ATOM      2  O   UNL     1      -4.870  -9.866  16.284  0.00  0.00    -0.336 OA
ATOM      6  N   UNL     1      -5.095 -12.013  16.880  0.00  0.00    -0.190 NA
ATOM      7  N   UNL     1      -6.059  -9.943  17.021  0.00  0.00    -0.056 NA
ATOM     14  C   UNL     1      -4.367 -11.128  16.248  0.00  0.00    +0.245 A 
ATOM     18  C   UNL     1      -6.123 -11.240  17.337  0.00  0.00    +0.202 A 
ENDROOT
BRANCH  18  21
ATOM      8  N   UNL     1      -9.294 -12.875  19.606  0.00  0.00    -0.221 NA
ATOM     21  C   UNL     1      -7.198 -11.794  18.107  0.00  0.00    +0.029 A 
ATOM     23  C   UNL     1      -8.022 -10.962  18.857  0.00  0.00    +0.079 A 
ATOM     24  C   UNL     1      -7.422 -13.166  18.106  0.00  0.00    +0.031 A 
ATOM     25  C   UNL     1      -9.046 -11.547  19.583  0.00  0.00    +0.215 A 
ATOM     26  C   UNL     1      -8.474 -13.652  18.865  0.00  0.00    +0.115 A 
BRANCH  25   3
ATOM      3  O   UNL     1      -9.872 -10.748  20.331  0.00  0.00    -0.474 OA
BRANCH   3  27
ATOM     27  C   UNL     1     -10.853 -10.001  19.622  0.00  0.00    +0.258 C 
BRANCH  27  28
ATOM     28  C   UNL     1     -12.136 -10.806  19.558  0.00  0.00    +0.200 C 
BRANCH  28   4
ATOM      4  O   UNL     1     -12.402 -11.358  20.841  0.00  0.00    -0.380 OA
ATOM     29  C   UNL     1     -12.809 -12.717  20.750  0.00  0.00    +0.194 C 
ENDBRANCH  28   4
ENDBRANCH  27  28
ENDBRANCH   3  27
ENDBRANCH  25   3
ENDBRANCH  18  21
BRANCH  14   9
ATOM      5  N   UNL     1      -3.018 -10.545  14.239  0.00  0.00    -0.287 NA
ATOM      9  C   UNL     1      -3.064 -11.314  15.499  0.00  0.00    +0.146 C 
ATOM     10  C   UNL     1      -1.843 -10.826  16.300  0.00  0.00    +0.030 C 
ATOM     11  C   UNL     1      -1.140  -9.831  15.386  0.00  0.00    +0.017 C 
ATOM     12  C   UNL     1      -1.610 -10.225  14.001  0.00  0.00    +0.085 C 
BRANCH   5  13
ATOM     13  C   UNL     1      -3.618 -11.250  13.114  0.00  0.00    +0.123 C 
BRANCH  13  15
ATOM      1  F   UNL     1      -5.937  -9.623  13.168  0.00  0.00    -0.205 F 
ATOM     15  C   UNL     1      -3.990 -10.310  11.997  0.00  0.00    +0.002 A 
ATOM     16  C   UNL     1      -5.148  -9.537  12.089  0.00  0.00    +0.128 A 
ATOM     17  C   UNL     1      -3.174 -10.214  10.870  0.00  0.00    +0.008 A 
ATOM     19  C   UNL     1      -5.489  -8.667  11.054  0.00  0.00    +0.038 A 
ATOM     20  C   UNL     1      -3.516  -9.344   9.834  0.00  0.00    +0.000 A 
ATOM     22  C   UNL     1      -4.673  -8.571   9.926  0.00  0.00    +0.003 A 
ENDBRANCH  13  15
ENDBRANCH   5  13
ENDBRANCH  14   9
TORSDOF 8
ENDMDL
MODEL 7
REMARK VINA RESULT:      -6.7     26.788     30.707
REMARK  Name = 45783346
REMARK  9 active torsions:
REMARK  status: ('A' for Active; 'I' for Inactive)
REMARK    1  A    between atoms: O_3  and  C_25
REMARK    2  A    between atoms: O_3  and  C_27
REMARK    3  A    between atoms: O_4  and  C_28
REMARK    4  A    between atoms: O_4  and  C_29
REMARK    5  A    between atoms: N_5  and  C_13
REMARK    6  A    between atoms: C_9  and  C_14
REMARK    7  A    between atoms: C_13  and  C_15
REMARK    8  A    between atoms: C_18  and  C_21
REMARK    9  A    between atoms: C_27  and  C_28
REMARK                            x       y       z     vdW  Elec       q    Type
REMARK                         _______ _______ _______ _____ _____    ______ ____
ROOT
ATOM      2  O   UNL     1      -5.202  -9.661  15.918  0.00  0.00    -0.336 OA
ATOM      6  N   UNL     1      -5.393 -11.598  17.025  0.00  0.00    -0.190 NA
ATOM      7  N   UNL     1      -6.397  -9.578  16.644  0.00  0.00    -0.056 NA
ATOM     14  C   UNL     1      -4.675 -10.881  16.199  0.00  0.00    +0.245 A 
ATOM     18  C   UNL     1      -6.440 -10.758  17.271  0.00  0.00    +0.202 A 
ENDROOT
BRANCH  18  21
ATOM      8  N   UNL     1      -9.606 -11.848  19.853  0.00  0.00    -0.221 NA
ATOM     21  C   UNL     1      -7.514 -11.128  18.147  0.00  0.00    +0.029 A 
ATOM     23  C   UNL     1      -7.419 -12.279  18.919  0.00  0.00    +0.079 A 
ATOM     24  C   UNL     1      -8.653 -10.336  18.226  0.00  0.00    +0.031 A 
ATOM     25  C   UNL     1      -8.483 -12.593  19.749  0.00  0.00    +0.215 A 
ATOM     26  C   UNL     1      -9.662 -10.736  19.088  0.00  0.00    +0.115 A 
BRANCH  25   3
ATOM      3  O   UNL     1      -8.414 -13.724  20.521  0.00  0.00    -0.474 OA
BRANCH   3  27
ATOM     27  C   UNL     1      -9.647 -14.243  21.006  0.00  0.00    +0.258 C 
BRANCH  27  28
ATOM     28  C   UNL     1      -9.359 -15.355  21.996  0.00  0.00    +0.200 C 
BRANCH  28   4
ATOM      4  O   UNL     1      -9.599 -14.876  23.314  0.00  0.00    -0.380 OA
ATOM     29  C   UNL     1     -10.984 -14.890  23.630  0.00  0.00    +0.194 C 
ENDBRANCH  28   4
ENDBRANCH  27  28
ENDBRANCH   3  27
ENDBRANCH  25   3
ENDBRANCH  18  21
BRANCH  14   9
ATOM      5  N   UNL     1      -3.181 -10.513  14.242  0.00  0.00    -0.287 NA
ATOM      9  C   UNL     1      -3.360 -11.219  15.527  0.00  0.00    +0.146 C 
ATOM     10  C   UNL     1      -2.139 -10.810  16.372  0.00  0.00    +0.030 C 
ATOM     11  C   UNL     1      -1.302  -9.926  15.457  0.00  0.00    +0.017 C 
ATOM     12  C   UNL     1      -1.739 -10.335  14.066  0.00  0.00    +0.085 C 
BRANCH   5  13
ATOM     13  C   UNL     1      -3.789 -11.208  13.115  0.00  0.00    +0.123 C 
BRANCH  13  15
ATOM      1  F   UNL     1      -6.128  -9.613  13.010  0.00  0.00    -0.205 F 
ATOM     15  C   UNL     1      -4.094 -10.271  11.977  0.00  0.00    +0.002 A 
ATOM     16  C   UNL     1      -5.266  -9.514  11.988  0.00  0.00    +0.128 A 
ATOM     17  C   UNL     1      -3.203 -10.161  10.910  0.00  0.00    +0.008 A 
ATOM     19  C   UNL     1      -5.546  -8.646  10.933  0.00  0.00    +0.038 A 
ATOM     20  C   UNL     1      -3.483  -9.294   9.854  0.00  0.00    +0.000 A 
ATOM     22  C   UNL     1      -4.654  -8.537   9.866  0.00  0.00    +0.003 A 
ENDBRANCH  13  15
ENDBRANCH   5  13
ENDBRANCH  14   9
TORSDOF 8
ENDMDL
MODEL 8
REMARK VINA RESULT:      -6.6      2.660      3.690
REMARK  Name = 45783346
REMARK  9 active torsions:
REMARK  status: ('A' for Active; 'I' for Inactive)
REMARK    1  A    between atoms: O_3  and  C_25
REMARK    2  A    between atoms: O_3  and  C_27
REMARK    3  A    between atoms: O_4  and  C_28
REMARK    4  A    between atoms: O_4  and  C_29
REMARK    5  A    between atoms: N_5  and  C_13
REMARK    6  A    between atoms: C_9  and  C_14
REMARK    7  A    between atoms: C_13  and  C_15
REMARK    8  A    between atoms: C_18  and  C_21
REMARK    9  A    between atoms: C_27  and  C_28
REMARK                            x       y       z     vdW  Elec       q    Type
REMARK                         _______ _______ _______ _____ _____    ______ ____
ROOT
ATOM      2  O   UNL     1      15.242   8.719  19.929  0.00  0.00    -0.336 OA
ATOM      6  N   UNL     1      15.675   6.525  20.043  0.00  0.00    -0.190 NA
ATOM      7  N   UNL     1      16.607   8.607  20.225  0.00  0.00    -0.056 NA
ATOM     14  C   UNL     1      14.771   7.448  19.839  0.00  0.00    +0.245 A 
ATOM     18  C   UNL     1      16.786   7.284  20.276  0.00  0.00    +0.202 A 
ENDROOT
BRANCH  18  21
ATOM      8  N   UNL     1      20.541   5.526  21.109  0.00  0.00    -0.221 NA
ATOM     21  C   UNL     1      18.060   6.688  20.559  0.00  0.00    +0.029 A 
ATOM     23  C   UNL     1      18.870   7.214  21.558  0.00  0.00    +0.079 A 
ATOM     24  C   UNL     1      18.488   5.582  19.835  0.00  0.00    +0.031 A 
ATOM     25  C   UNL     1      20.091   6.602  21.792  0.00  0.00    +0.215 A 
ATOM     26  C   UNL     1      19.726   5.042  20.146  0.00  0.00    +0.115 A 
BRANCH  25   3
ATOM      3  O   UNL     1      20.909   7.102  22.772  0.00  0.00    -0.474 OA
BRANCH   3  27
ATOM     27  C   UNL     1      21.664   6.156  23.520  0.00  0.00    +0.258 C 
BRANCH  27  28
ATOM     28  C   UNL     1      21.793   6.644  24.949  0.00  0.00    +0.200 C 
BRANCH  28   4
ATOM      4  O   UNL     1      20.505   6.659  25.552  0.00  0.00    -0.380 OA
ATOM     29  C   UNL     1      20.573   6.339  26.935  0.00  0.00    +0.194 C 
ENDBRANCH  28   4
ENDBRANCH  27  28
ENDBRANCH   3  27
ENDBRANCH  25   3
ENDBRANCH  18  21
BRANCH  14   9
ATOM      5  N   UNL     1      12.483   8.404  20.058  0.00  0.00    -0.287 NA
ATOM      9  C   UNL     1      13.298   7.296  19.520  0.00  0.00    +0.146 C 
ATOM     10  C   UNL     1      13.014   7.300  18.007  0.00  0.00    +0.030 C 
ATOM     11  C   UNL     1      11.983   8.402  17.799  0.00  0.00    +0.017 C 
ATOM     12  C   UNL     1      11.336   8.546  19.161  0.00  0.00    +0.085 C 
BRANCH   5  13
ATOM     13  C   UNL     1      12.074   8.197  21.442  0.00  0.00    +0.123 C 
BRANCH  13  15
ATOM      1  F   UNL     1       9.772   9.365  22.608  0.00  0.00    -0.205 F 
ATOM     15  C   UNL     1      12.113   9.477  22.235  0.00  0.00    +0.002 A 
ATOM     16  C   UNL     1      10.940   9.997  22.782  0.00  0.00    +0.128 A 
ATOM     17  C   UNL     1      13.325  10.141  22.422  0.00  0.00    +0.008 A 
ATOM     19  C   UNL     1      10.979  11.182  23.517  0.00  0.00    +0.038 A 
ATOM     20  C   UNL     1      13.364  11.327  23.155  0.00  0.00    +0.000 A 
ATOM     22  C   UNL     1      12.191  11.847  23.703  0.00  0.00    +0.003 A 
ENDBRANCH  13  15
ENDBRANCH   5  13
ENDBRANCH  14   9
TORSDOF 8
ENDMDL
MODEL 9
REMARK VINA RESULT:      -6.5     30.112     32.500
REMARK  Name = 45783346
REMARK  9 active torsions:
REMARK  status: ('A' for Active; 'I' for Inactive)
REMARK    1  A    between atoms: O_3  and  C_25
REMARK    2  A    between atoms: O_3  and  C_27
REMARK    3  A    between atoms: O_4  and  C_28
REMARK    4  A    between atoms: O_4  and  C_29
REMARK    5  A    between atoms: N_5  and  C_13
REMARK    6  A    between atoms: C_9  and  C_14
REMARK    7  A    between atoms: C_13  and  C_15
REMARK    8  A    between atoms: C_18  and  C_21
REMARK    9  A    between atoms: C_27  and  C_28
REMARK                            x       y       z     vdW  Elec       q    Type
REMARK                         _______ _______ _______ _____ _____    ______ ____
ROOT
ATOM      2  O   UNL     1     -13.761   9.441  31.376  0.00  0.00    -0.336 OA
ATOM      6  N   UNL     1     -12.247   8.065  32.288  0.00  0.00    -0.190 NA
ATOM      7  N   UNL     1     -14.485   8.371  31.919  0.00  0.00    -0.056 NA
ATOM     14  C   UNL     1     -12.453   9.181  31.636  0.00  0.00    +0.245 A 
ATOM     18  C   UNL     1     -13.523   7.602  32.439  0.00  0.00    +0.202 A 
ENDROOT
BRANCH  18  21
ATOM      8  N   UNL     1     -14.345   3.962  34.427  0.00  0.00    -0.221 NA
ATOM     21  C   UNL     1     -13.802   6.368  33.113  0.00  0.00    +0.029 A 
ATOM     23  C   UNL     1     -13.718   5.162  32.425  0.00  0.00    +0.079 A 
ATOM     24  C   UNL     1     -14.156   6.372  34.457  0.00  0.00    +0.031 A 
ATOM     25  C   UNL     1     -13.998   3.997  33.121  0.00  0.00    +0.215 A 
ATOM     26  C   UNL     1     -14.415   5.153  35.062  0.00  0.00    +0.115 A 
BRANCH  25   3
ATOM      3  O   UNL     1     -13.923   2.796  32.465  0.00  0.00    -0.474 OA
BRANCH   3  27
ATOM     27  C   UNL     1     -13.968   2.840  31.043  0.00  0.00    +0.258 C 
BRANCH  27  28
ATOM     28  C   UNL     1     -14.096   1.427  30.509  0.00  0.00    +0.200 C 
BRANCH  28   4
ATOM      4  O   UNL     1     -15.473   1.076  30.450  0.00  0.00    -0.380 OA
ATOM     29  C   UNL     1     -15.964   1.113  29.117  0.00  0.00    +0.194 C 
ENDBRANCH  28   4
ENDBRANCH  27  28
ENDBRANCH   3  27
ENDBRANCH  25   3
ENDBRANCH  18  21
BRANCH  14   9
ATOM      5  N   UNL     1     -11.780  10.722  29.800  0.00  0.00    -0.287 NA
ATOM      9  C   UNL     1     -11.451  10.205  31.144  0.00  0.00    +0.146 C 
ATOM     10  C   UNL     1     -11.391  11.456  32.040  0.00  0.00    +0.030 C 
ATOM     11  C   UNL     1     -11.638  12.629  31.102  0.00  0.00    +0.017 C 
ATOM     12  C   UNL     1     -11.253  12.085  29.741  0.00  0.00    +0.085 C 
BRANCH   5  13
ATOM     13  C   UNL     1     -11.265   9.887  28.722  0.00  0.00    +0.123 C 
BRANCH  13  15
ATOM      1  F   UNL     1      -9.684  10.478  26.447  0.00  0.00    -0.205 F 
ATOM     15  C   UNL     1     -11.853  10.268  27.389  0.00  0.00    +0.002 A 
ATOM     16  C   UNL     1     -11.015  10.547  26.309  0.00  0.00    +0.128 A 
ATOM     17  C   UNL     1     -13.237  10.341  27.235  0.00  0.00    +0.008 A 
ATOM     19  C   UNL     1     -11.562  10.898  25.075  0.00  0.00    +0.038 A 
ATOM     20  C   UNL     1     -13.784  10.694  26.002  0.00  0.00    +0.000 A 
ATOM     22  C   UNL     1     -12.947  10.972  24.922  0.00  0.00    +0.003 A 
ENDBRANCH  13  15
ENDBRANCH   5  13
ENDBRANCH  14   9
TORSDOF 8
ENDMDL
MODEL 10
REMARK VINA RESULT:      -6.4     28.252     30.447
REMARK  Name = 45783346
REMARK  9 active torsions:
REMARK  status: ('A' for Active; 'I' for Inactive)
REMARK    1  A    between atoms: O_3  and  C_25
REMARK    2  A    between atoms: O_3  and  C_27
REMARK    3  A    between atoms: O_4  and  C_28
REMARK    4  A    between atoms: O_4  and  C_29
REMARK    5  A    between atoms: N_5  and  C_13
REMARK    6  A    between atoms: C_9  and  C_14
REMARK    7  A    between atoms: C_13  and  C_15
REMARK    8  A    between atoms: C_18  and  C_21
REMARK    9  A    between atoms: C_27  and  C_28
REMARK                            x       y       z     vdW  Elec       q    Type
REMARK                         _______ _______ _______ _____ _____    ______ ____
ROOT
ATOM      2  O   UNL     1      -7.250 -10.680  11.451  0.00  0.00    -0.336 OA
ATOM      6  N   UNL     1      -5.879  -9.206  12.434  0.00  0.00    -0.190 NA
ATOM      7  N   UNL     1      -7.110 -11.103  12.779  0.00  0.00    -0.056 NA
ATOM     14  C   UNL     1      -6.492  -9.558  11.332  0.00  0.00    +0.245 A 
ATOM     18  C   UNL     1      -6.288 -10.184  13.294  0.00  0.00    +0.202 A 
ENDROOT
BRANCH  18  21
ATOM      8  N   UNL     1      -5.013 -10.273  17.325  0.00  0.00    -0.221 NA
ATOM     21  C   UNL     1      -5.856 -10.214  14.661  0.00  0.00    +0.029 A 
ATOM     23  C   UNL     1      -6.750  -9.915  15.683  0.00  0.00    +0.079 A 
ATOM     24  C   UNL     1      -4.541 -10.542  14.969  0.00  0.00    +0.031 A 
ATOM     25  C   UNL     1      -6.283  -9.958  16.987  0.00  0.00    +0.215 A 
ATOM     26  C   UNL     1      -4.173 -10.558  16.305  0.00  0.00    +0.115 A 
BRANCH  25   3
ATOM      3  O   UNL     1      -7.145  -9.667  18.012  0.00  0.00    -0.474 OA
BRANCH   3  27
ATOM     27  C   UNL     1      -8.350 -10.422  18.068  0.00  0.00    +0.258 C 
BRANCH  27  28
ATOM     28  C   UNL     1      -8.332 -11.290  19.311  0.00  0.00    +0.200 C 
BRANCH  28   4
ATOM      4  O   UNL     1      -9.369 -10.868  20.188  0.00  0.00    -0.380 OA
ATOM     29  C   UNL     1     -10.500 -11.724  20.109  0.00  0.00    +0.194 C 
ENDBRANCH  28   4
ENDBRANCH  27  28
ENDBRANCH   3  27
ENDBRANCH  25   3
ENDBRANCH  18  21
BRANCH  14   9
ATOM      5  N   UNL     1      -5.950  -9.786   8.914  0.00  0.00    -0.287 NA
ATOM      9  C   UNL     1      -6.474  -8.897   9.970  0.00  0.00    +0.146 C 
ATOM     10  C   UNL     1      -7.881  -8.499   9.484  0.00  0.00    +0.030 C 
ATOM     11  C   UNL     1      -8.032  -9.162   8.121  0.00  0.00    +0.017 C 
ATOM     12  C   UNL     1      -6.603  -9.379   7.669  0.00  0.00    +0.085 C 
BRANCH   5  13
ATOM     13  C   UNL     1      -4.497  -9.755   8.807  0.00  0.00    +0.123 C 
BRANCH  13  15
ATOM      1  F   UNL     1      -2.504  -8.672  10.504  0.00  0.00    -0.205 F 
ATOM     15  C   UNL     1      -3.837 -10.544   9.907  0.00  0.00    +0.002 A 
ATOM     16  C   UNL     1      -2.861  -9.948  10.706  0.00  0.00    +0.128 A 
ATOM     17  C   UNL     1      -4.203 -11.871  10.125  0.00  0.00    +0.008 A 
ATOM     19  C   UNL     1      -2.252 -10.681  11.725  0.00  0.00    +0.038 A 
ATOM     20  C   UNL     1      -3.593 -12.605  11.143  0.00  0.00    +0.000 A 
ATOM     22  C   UNL     1      -2.618 -12.009  11.943  0.00  0.00    +0.003 A 
ENDBRANCH  13  15
ENDBRANCH   5  13
ENDBRANCH  14   9
TORSDOF 8
ENDMDL
