REMARK  Name = 26742669
REMARK  7 active torsions:
REMARK  status: ('A' for Active; 'I' for Inactive)
REMARK    1  A    between atoms: O_4  and  C_30
REMARK    2  A    between atoms: O_4  and  C_31
REMARK    3  A    between atoms: N_6  and  C_17
REMARK    4  A    between atoms: N_7  and  C_19
REMARK    5  A    between atoms: C_17  and  C_19
REMARK    6  A    between atoms: C_18  and  C_20
REMARK    7  A    between atoms: C_20  and  C_23
REMARK                            x       y       z     vdW  Elec       q    Type
REMARK                         _______ _______ _______ _____ _____    ______ ____
ROOT
ATOM      1  O   UNL     1       3.655  -2.365  -1.535  0.00  0.00    -0.276 OA
ATOM      2  O   UNL     1      -3.203  -0.960  -1.438  0.00  0.00    -0.275 OA
ATOM      5  N   UNL     1      -1.849  -2.323  -0.131  0.00  0.00    -0.301 N 
ATOM      6  N   UNL     1       2.864  -1.139   0.269  0.00  0.00    -0.300 N 
ATOM      8  C   UNL     1       0.190  -2.709   1.243  0.00  0.00    +0.011 C 
ATOM      9  C   UNL     1       0.795  -3.487   0.050  0.00  0.00    +0.004 C 
ATOM     10  C   UNL     1       0.213  -3.008  -1.293  0.00  0.00    +0.023 C 
ATOM     11  C   UNL     1      -1.350  -2.774   1.174  0.00  0.00    +0.111 C 
ATOM     12  C   UNL     1       0.648  -1.244   1.371  0.00  0.00    +0.024 C 
ATOM     13  C   UNL     1       2.328  -3.542   0.052  0.00  0.00    +0.100 C 
ATOM     14  C   UNL     1      -1.313  -3.056  -1.278  0.00  0.00    +0.108 C 
ATOM     15  C   UNL     1       2.156  -1.094   1.546  0.00  0.00    +0.108 C 
ATOM     16  C   UNL     1       3.015  -2.299  -0.482  0.00  0.00    +0.216 C 
ATOM     18  C   UNL     1      -2.780  -1.304  -0.331  0.00  0.00    +0.220 C 
ENDROOT
BRANCH   6  17
ATOM     17  C   UNL     1       3.419   0.119  -0.213  0.00  0.00    +0.123 C 
BRANCH  17  19
ATOM     19  C   UNL     1       4.828   0.338   0.316  0.00  0.00    +0.103 C 
BRANCH  19   7
ATOM      3  O   UNL     1       6.872   3.996   0.076  0.00  0.00    -0.377 OA
ATOM      7  N   UNL     1       5.377   1.590  -0.202  0.00  0.00    -0.297 NA
ATOM     21  C   UNL     1       6.845   1.580  -0.144  0.00  0.00    +0.112 C 
ATOM     22  C   UNL     1       4.851   2.739   0.548  0.00  0.00    +0.112 C 
ATOM     24  C   UNL     1       7.394   2.901  -0.677  0.00  0.00    +0.175 C 
ATOM     25  C   UNL     1       5.446   4.032  -0.003  0.00  0.00    +0.175 C 
ENDBRANCH  19   7
ENDBRANCH  17  19
ENDBRANCH   6  17
BRANCH  18  20
ATOM     20  C   UNL     1      -3.281  -0.595   0.901  0.00  0.00    +0.131 C 
BRANCH  20  23
ATOM     23  C   UNL     1      -4.301   0.439   0.538  0.00  0.00    -0.038 A 
ATOM     26  C   UNL     1      -3.899   1.743   0.249  0.00  0.00    +0.007 A 
ATOM     27  C   UNL     1      -5.652   0.098   0.485  0.00  0.00    +0.007 A 
ATOM     28  C   UNL     1      -4.848   2.706  -0.093  0.00  0.00    +0.046 A 
ATOM     29  C   UNL     1      -6.602   1.061   0.144  0.00  0.00    +0.046 A 
ATOM     30  C   UNL     1      -6.200   2.365  -0.145  0.00  0.00    +0.120 A 
BRANCH  30   4
ATOM      4  O   UNL     1      -7.126   3.304  -0.480  0.00  0.00    -0.495 OA
ATOM     31  C   UNL     1      -8.490   2.887  -0.514  0.00  0.00    +0.277 C 
ENDBRANCH  30   4
ENDBRANCH  20  23
ENDBRANCH  18  20
TORSDOF 6
