MODEL 1
REMARK VINA RESULT:      -6.9      0.000      0.000
REMARK  Name = 11885138
REMARK  5 active torsions:
REMARK  status: ('A' for Active; 'I' for Inactive)
REMARK    1  A    between atoms: S_1  and  N_7
REMARK    2  A    between atoms: S_1  and  C_20
REMARK    3  A    between atoms: O_6  and  C_31
REMARK    4  A    between atoms: O_6  and  C_32
REMARK    5  A    between atoms: C_18  and  C_21
REMARK                            x       y       z     vdW  Elec       q    Type
REMARK                         _______ _______ _______ _____ _____    ______ ____
ROOT
ATOM      5  O   UNL     1      11.891   7.859   1.754  0.00  0.00    -0.267 OA
ATOM      7  N   UNL     1      13.138   3.783  -0.831  0.00  0.00    -0.176 NA
ATOM      8  N   UNL     1      12.613   5.643   1.669  0.00  0.00    -0.311 N 
ATOM      9  C   UNL     1      14.829   4.955   0.584  0.00  0.00    +0.025 C 
ATOM     10  C   UNL     1      13.377   3.245   1.585  0.00  0.00    +0.052 C 
ATOM     11  C   UNL     1      14.797   3.804   1.582  0.00  0.00    +0.017 C 
ATOM     12  C   UNL     1      14.468   4.458  -0.825  0.00  0.00    +0.114 C 
ATOM     13  C   UNL     1      13.038   2.695   0.187  0.00  0.00    +0.119 C 
ATOM     14  C   UNL     1      13.889   6.064   1.074  0.00  0.00    +0.130 C 
ATOM     15  C   UNL     1      12.373   4.306   1.992  0.00  0.00    +0.026 A 
ATOM     16  C   UNL     1      11.249   3.962   2.641  0.00  0.00    +0.022 A 
ATOM     17  C   UNL     1      11.699   6.666   1.991  0.00  0.00    +0.259 A 
ATOM     18  C   UNL     1      10.432   6.245   2.686  0.00  0.00    +0.047 A 
ATOM     19  C   UNL     1      10.263   4.948   2.986  0.00  0.00    +0.015 A 
ENDROOT
BRANCH  18  21
ATOM     21  C   UNL     1       9.386   7.224   3.027  0.00  0.00    -0.012 A 
ATOM     24  C   UNL     1       8.824   8.022   2.030  0.00  0.00    +0.012 A 
ATOM     25  C   UNL     1       8.956   7.356   4.348  0.00  0.00    +0.012 A 
ATOM     29  C   UNL     1       7.833   8.950   2.354  0.00  0.00    +0.046 A 
ATOM     30  C   UNL     1       7.966   8.284   4.671  0.00  0.00    +0.046 A 
ATOM     31  C   UNL     1       7.405   9.081   3.674  0.00  0.00    +0.120 A 
BRANCH  31   6
ATOM      6  O   UNL     1       6.440   9.986   3.990  0.00  0.00    -0.495 OA
ATOM     32  C   UNL     1       5.386  10.170   3.043  0.00  0.00    +0.277 C 
ENDBRANCH  31   6
ENDBRANCH  18  21
BRANCH   7   1
ATOM      1  S   UNL     1      12.503   3.412  -2.375  0.00  0.00    +0.061 S 
ATOM      3  O   UNL     1      12.117   2.017  -2.406  0.00  0.00    -0.153 OA
ATOM      4  O   UNL     1      13.377   3.965  -3.389  0.00  0.00    -0.153 OA
BRANCH   1  20
ATOM      2  F   UNL     1       7.591   6.632  -2.275  0.00  0.00    -0.205 F 
ATOM     20  C   UNL     1      11.027   4.379  -2.345  0.00  0.00    +0.106 A 
ATOM     22  C   UNL     1      10.749   5.155  -1.233  0.00  0.00    +0.031 A 
ATOM     23  C   UNL     1      10.172   4.347  -3.435  0.00  0.00    +0.031 A 
ATOM     26  C   UNL     1       9.582   5.919  -1.208  0.00  0.00    +0.040 A 
ATOM     27  C   UNL     1       9.007   5.112  -3.411  0.00  0.00    +0.040 A 
ATOM     28  C   UNL     1       8.711   5.898  -2.298  0.00  0.00    +0.124 A 
ENDBRANCH   1  20
ENDBRANCH   7   1
TORSDOF 4
ENDMDL
MODEL 2
REMARK VINA RESULT:      -6.8     27.133     30.409
REMARK  Name = 11885138
REMARK  5 active torsions:
REMARK  status: ('A' for Active; 'I' for Inactive)
REMARK    1  A    between atoms: S_1  and  N_7
REMARK    2  A    between atoms: S_1  and  C_20
REMARK    3  A    between atoms: O_6  and  C_31
REMARK    4  A    between atoms: O_6  and  C_32
REMARK    5  A    between atoms: C_18  and  C_21
REMARK                            x       y       z     vdW  Elec       q    Type
REMARK                         _______ _______ _______ _____ _____    ______ ____
ROOT
ATOM      5  O   UNL     1     -14.847   9.160  19.946  0.00  0.00    -0.267 OA
ATOM      7  N   UNL     1     -11.424   9.637  16.353  0.00  0.00    -0.176 NA
ATOM      8  N   UNL     1     -12.635   9.453  19.265  0.00  0.00    -0.311 N 
ATOM      9  C   UNL     1     -11.858  11.508  17.949  0.00  0.00    +0.025 C 
ATOM     10  C   UNL     1     -10.243   9.753  18.537  0.00  0.00    +0.052 C 
ATOM     11  C   UNL     1     -10.513  11.253  18.619  0.00  0.00    +0.017 C 
ATOM     12  C   UNL     1     -11.818  11.070  16.476  0.00  0.00    +0.114 C 
ATOM     13  C   UNL     1     -10.147   9.327  17.061  0.00  0.00    +0.119 C 
ATOM     14  C   UNL     1     -12.954  10.789  18.745  0.00  0.00    +0.130 C 
ATOM     15  C   UNL     1     -11.328   8.963  19.245  0.00  0.00    +0.026 A 
ATOM     16  C   UNL     1     -11.039   7.790  19.831  0.00  0.00    +0.022 A 
ATOM     17  C   UNL     1     -13.689   8.745  19.877  0.00  0.00    +0.259 A 
ATOM     18  C   UNL     1     -13.342   7.416  20.493  0.00  0.00    +0.047 A 
ATOM     19  C   UNL     1     -12.065   7.005  20.457  0.00  0.00    +0.015 A 
ENDROOT
BRANCH  18  21
ATOM     21  C   UNL     1     -14.374   6.571  21.117  0.00  0.00    -0.012 A 
ATOM     24  C   UNL     1     -14.215   6.131  22.432  0.00  0.00    +0.012 A 
ATOM     25  C   UNL     1     -15.511   6.207  20.394  0.00  0.00    +0.012 A 
ATOM     29  C   UNL     1     -15.194   5.330  23.023  0.00  0.00    +0.046 A 
ATOM     30  C   UNL     1     -16.488   5.407  20.985  0.00  0.00    +0.046 A 
ATOM     31  C   UNL     1     -16.329   4.968  22.299  0.00  0.00    +0.120 A 
BRANCH  31   6
ATOM      6  O   UNL     1     -17.282   4.186  22.876  0.00  0.00    -0.495 OA
ATOM     32  C   UNL     1     -16.830   3.101  23.686  0.00  0.00    +0.277 C 
ENDBRANCH  31   6
ENDBRANCH  18  21
BRANCH   7   1
ATOM      1  S   UNL     1     -11.589   8.955  14.792  0.00  0.00    +0.061 S 
ATOM      3  O   UNL     1     -10.628   7.884  14.639  0.00  0.00    -0.153 OA
ATOM      4  O   UNL     1     -11.675  10.023  13.818  0.00  0.00    -0.153 OA
BRANCH   1  20
ATOM      2  F   UNL     1     -16.916   6.528  15.285  0.00  0.00    -0.205 F 
ATOM     20  C   UNL     1     -13.189   8.225  14.941  0.00  0.00    +0.106 A 
ATOM     22  C   UNL     1     -13.854   8.291  16.153  0.00  0.00    +0.031 A 
ATOM     23  C   UNL     1     -13.754   7.600  13.840  0.00  0.00    +0.031 A 
ATOM     26  C   UNL     1     -15.119   7.715  16.271  0.00  0.00    +0.040 A 
ATOM     27  C   UNL     1     -15.019   7.025  13.958  0.00  0.00    +0.040 A 
ATOM     28  C   UNL     1     -15.702   7.082  15.173  0.00  0.00    +0.124 A 
ENDBRANCH   1  20
ENDBRANCH   7   1
TORSDOF 4
ENDMDL
MODEL 3
REMARK VINA RESULT:      -6.7      3.674      7.864
REMARK  Name = 11885138
REMARK  5 active torsions:
REMARK  status: ('A' for Active; 'I' for Inactive)
REMARK    1  A    between atoms: S_1  and  N_7
REMARK    2  A    between atoms: S_1  and  C_20
REMARK    3  A    between atoms: O_6  and  C_31
REMARK    4  A    between atoms: O_6  and  C_32
REMARK    5  A    between atoms: C_18  and  C_21
REMARK                            x       y       z     vdW  Elec       q    Type
REMARK                         _______ _______ _______ _____ _____    ______ ____
ROOT
ATOM      5  O   UNL     1      10.620   6.878   1.052  0.00  0.00    -0.267 OA
ATOM      7  N   UNL     1      11.262   7.075   5.992  0.00  0.00    -0.176 NA
ATOM      8  N   UNL     1      10.116   6.131   3.203  0.00  0.00    -0.311 N 
ATOM      9  C   UNL     1       9.053   7.644   4.976  0.00  0.00    +0.025 C 
ATOM     10  C   UNL     1       9.578   5.308   5.522  0.00  0.00    +0.052 C 
ATOM     11  C   UNL     1       8.463   6.351   5.524  0.00  0.00    +0.017 C 
ATOM     12  C   UNL     1      10.213   8.126   5.863  0.00  0.00    +0.114 C 
ATOM     13  C   UNL     1      10.713   5.766   6.455  0.00  0.00    +0.119 C 
ATOM     14  C   UNL     1       9.483   7.418   3.521  0.00  0.00    +0.130 C 
ATOM     15  C   UNL     1      10.108   5.077   4.120  0.00  0.00    +0.026 A 
ATOM     16  C   UNL     1      10.588   3.874   3.766  0.00  0.00    +0.022 A 
ATOM     17  C   UNL     1      10.628   5.984   1.899  0.00  0.00    +0.259 A 
ATOM     18  C   UNL     1      11.192   4.634   1.544  0.00  0.00    +0.047 A 
ATOM     19  C   UNL     1      11.143   3.655   2.460  0.00  0.00    +0.015 A 
ENDROOT
BRANCH  18  21
ATOM     21  C   UNL     1      11.796   4.382   0.224  0.00  0.00    -0.012 A 
ATOM     24  C   UNL     1      13.181   4.459   0.064  0.00  0.00    +0.012 A 
ATOM     25  C   UNL     1      10.986   4.067  -0.867  0.00  0.00    +0.012 A 
ATOM     29  C   UNL     1      13.753   4.220  -1.187  0.00  0.00    +0.046 A 
ATOM     30  C   UNL     1      11.558   3.829  -2.116  0.00  0.00    +0.046 A 
ATOM     31  C   UNL     1      12.941   3.906  -2.276  0.00  0.00    +0.120 A 
BRANCH  31   6
ATOM      6  O   UNL     1      13.499   3.674  -3.495  0.00  0.00    -0.495 OA
ATOM     32  C   UNL     1      12.632   3.208  -4.529  0.00  0.00    +0.277 C 
ENDBRANCH  31   6
ENDBRANCH  18  21
BRANCH   7   1
ATOM      1  S   UNL     1      12.720   7.571   6.738  0.00  0.00    +0.061 S 
ATOM      3  O   UNL     1      13.149   6.547   7.667  0.00  0.00    -0.153 OA
ATOM      4  O   UNL     1      12.588   8.950   7.158  0.00  0.00    -0.153 OA
BRANCH   1  20
ATOM      2  F   UNL     1      16.342   7.431   2.115  0.00  0.00    -0.205 F 
ATOM     20  C   UNL     1      13.808   7.528   5.349  0.00  0.00    +0.106 A 
ATOM     22  C   UNL     1      13.287   7.298   4.086  0.00  0.00    +0.031 A 
ATOM     23  C   UNL     1      15.166   7.728   5.544  0.00  0.00    +0.031 A 
ATOM     26  C   UNL     1      14.147   7.265   2.989  0.00  0.00    +0.040 A 
ATOM     27  C   UNL     1      16.025   7.695   4.446  0.00  0.00    +0.040 A 
ATOM     28  C   UNL     1      15.516   7.463   3.169  0.00  0.00    +0.124 A 
ENDBRANCH   1  20
ENDBRANCH   7   1
TORSDOF 4
ENDMDL
MODEL 4
REMARK VINA RESULT:      -6.6     27.213     28.748
REMARK  Name = 11885138
REMARK  5 active torsions:
REMARK  status: ('A' for Active; 'I' for Inactive)
REMARK    1  A    between atoms: S_1  and  N_7
REMARK    2  A    between atoms: S_1  and  C_20
REMARK    3  A    between atoms: O_6  and  C_31
REMARK    4  A    between atoms: O_6  and  C_32
REMARK    5  A    between atoms: C_18  and  C_21
REMARK                            x       y       z     vdW  Elec       q    Type
REMARK                         _______ _______ _______ _____ _____    ______ ____
ROOT
ATOM      5  O   UNL     1      -6.567 -11.129  14.996  0.00  0.00    -0.267 OA
ATOM      7  N   UNL     1      -2.214 -12.950  13.390  0.00  0.00    -0.176 NA
ATOM      8  N   UNL     1      -4.244 -11.005  14.830  0.00  0.00    -0.311 N 
ATOM      9  C   UNL     1      -3.034 -10.731  12.589  0.00  0.00    +0.025 C 
ATOM     10  C   UNL     1      -1.735 -10.872  14.668  0.00  0.00    +0.052 C 
ATOM     11  C   UNL     1      -1.961 -10.032  13.414  0.00  0.00    +0.017 C 
ATOM     12  C   UNL     1      -2.573 -12.143  12.189  0.00  0.00    +0.114 C 
ATOM     13  C   UNL     1      -1.218 -12.266  14.267  0.00  0.00    +0.119 C 
ATOM     14  C   UNL     1      -4.344 -10.747  13.387  0.00  0.00    +0.130 C 
ATOM     15  C   UNL     1      -3.009 -10.996  15.481  0.00  0.00    +0.026 A 
ATOM     16  C   UNL     1      -2.952 -11.117  16.817  0.00  0.00    +0.022 A 
ATOM     17  C   UNL     1      -5.458 -11.152  15.531  0.00  0.00    +0.259 A 
ATOM     18  C   UNL     1      -5.359 -11.322  17.023  0.00  0.00    +0.047 A 
ATOM     19  C   UNL     1      -4.146 -11.289  17.595  0.00  0.00    +0.015 A 
ENDROOT
BRANCH  18  21
ATOM     21  C   UNL     1      -6.561 -11.531  17.849  0.00  0.00    -0.012 A 
ATOM     24  C   UNL     1      -6.935 -12.821  18.224  0.00  0.00    +0.012 A 
ATOM     25  C   UNL     1      -7.327 -10.438  18.256  0.00  0.00    +0.012 A 
ATOM     29  C   UNL     1      -8.074 -13.018  19.007  0.00  0.00    +0.046 A 
ATOM     30  C   UNL     1      -8.465 -10.635  19.038  0.00  0.00    +0.046 A 
ATOM     31  C   UNL     1      -8.839 -11.926  19.413  0.00  0.00    +0.120 A 
BRANCH  31   6
ATOM      6  O   UNL     1      -9.949 -12.118  20.175  0.00  0.00    -0.495 OA
ATOM     32  C   UNL     1     -10.186 -13.442  20.656  0.00  0.00    +0.277 C 
ENDBRANCH  31   6
ENDBRANCH  18  21
BRANCH   7   1
ATOM      1  S   UNL     1      -1.931 -14.613  13.105  0.00  0.00    +0.061 S 
ATOM      3  O   UNL     1      -0.516 -14.885  13.252  0.00  0.00    -0.153 OA
ATOM      4  O   UNL     1      -2.646 -15.016  11.913  0.00  0.00    -0.153 OA
BRANCH   1  20
ATOM      2  F   UNL     1      -4.694 -16.936  17.740  0.00  0.00    -0.205 F 
ATOM     20  C   UNL     1      -2.760 -15.311  14.498  0.00  0.00    +0.106 A 
ATOM     22  C   UNL     1      -3.872 -14.668  15.017  0.00  0.00    +0.031 A 
ATOM     23  C   UNL     1      -2.287 -16.491  15.049  0.00  0.00    +0.031 A 
ATOM     26  C   UNL     1      -4.528 -15.219  16.118  0.00  0.00    +0.040 A 
ATOM     27  C   UNL     1      -2.943 -17.042  16.149  0.00  0.00    +0.040 A 
ATOM     28  C   UNL     1      -4.064 -16.407  16.683  0.00  0.00    +0.124 A 
ENDBRANCH   1  20
ENDBRANCH   7   1
TORSDOF 4
ENDMDL
MODEL 5
REMARK VINA RESULT:      -6.6     26.770     28.325
REMARK  Name = 11885138
REMARK  5 active torsions:
REMARK  status: ('A' for Active; 'I' for Inactive)
REMARK    1  A    between atoms: S_1  and  N_7
REMARK    2  A    between atoms: S_1  and  C_20
REMARK    3  A    between atoms: O_6  and  C_31
REMARK    4  A    between atoms: O_6  and  C_32
REMARK    5  A    between atoms: C_18  and  C_21
REMARK                            x       y       z     vdW  Elec       q    Type
REMARK                         _______ _______ _______ _____ _____    ______ ____
ROOT
ATOM      5  O   UNL     1      -7.774  -8.880  17.447  0.00  0.00    -0.267 OA
ATOM      7  N   UNL     1      -4.037 -11.710  15.750  0.00  0.00    -0.176 NA
ATOM      8  N   UNL     1      -6.712 -10.947  17.248  0.00  0.00    -0.311 N 
ATOM      9  C   UNL     1      -4.379 -11.398  18.204  0.00  0.00    +0.025 C 
ATOM     10  C   UNL     1      -5.580 -13.185  17.024  0.00  0.00    +0.052 C 
ATOM     11  C   UNL     1      -4.861 -12.838  18.325  0.00  0.00    +0.017 C 
ATOM     12  C   UNL     1      -3.408 -11.250  17.022  0.00  0.00    +0.114 C 
ATOM     13  C   UNL     1      -4.590 -13.093  15.848  0.00  0.00    +0.119 C 
ATOM     14  C   UNL     1      -5.597 -10.474  18.080  0.00  0.00    +0.130 C 
ATOM     15  C   UNL     1      -6.764 -12.266  16.791  0.00  0.00    +0.026 A 
ATOM     16  C   UNL     1      -7.846 -12.708  16.132  0.00  0.00    +0.022 A 
ATOM     17  C   UNL     1      -7.767 -10.039  17.029  0.00  0.00    +0.259 A 
ATOM     18  C   UNL     1      -8.951 -10.553  16.256  0.00  0.00    +0.047 A 
ATOM     19  C   UNL     1      -8.952 -11.834  15.856  0.00  0.00    +0.015 A 
ENDROOT
BRANCH  18  21
ATOM     21  C   UNL     1     -10.089  -9.676  15.929  0.00  0.00    -0.012 A 
ATOM     24  C   UNL     1     -10.168  -9.073  14.673  0.00  0.00    +0.012 A 
ATOM     25  C   UNL     1     -11.089  -9.448  16.875  0.00  0.00    +0.012 A 
ATOM     29  C   UNL     1     -11.247  -8.242  14.365  0.00  0.00    +0.046 A 
ATOM     30  C   UNL     1     -12.166  -8.617  16.566  0.00  0.00    +0.046 A 
ATOM     31  C   UNL     1     -12.245  -8.014  15.311  0.00  0.00    +0.120 A 
BRANCH  31   6
ATOM      6  O   UNL     1     -13.295  -7.204  15.010  0.00  0.00    -0.495 OA
ATOM     32  C   UNL     1     -12.993  -5.861  14.631  0.00  0.00    +0.277 C 
ENDBRANCH  31   6
ENDBRANCH  18  21
BRANCH   7   1
ATOM      1  S   UNL     1      -3.160 -11.363  14.323  0.00  0.00    +0.061 S 
ATOM      3  O   UNL     1      -2.832 -12.605  13.655  0.00  0.00    -0.153 OA
ATOM      4  O   UNL     1      -2.133 -10.388  14.626  0.00  0.00    -0.153 OA
BRANCH   1  20
ATOM      2  F   UNL     1      -7.332  -8.680  11.176  0.00  0.00    -0.205 F 
ATOM     20  C   UNL     1      -4.413 -10.557  13.378  0.00  0.00    +0.106 A 
ATOM     22  C   UNL     1      -4.169 -10.252  12.049  0.00  0.00    +0.031 A 
ATOM     23  C   UNL     1      -5.621 -10.243  13.980  0.00  0.00    +0.031 A 
ATOM     26  C   UNL     1      -5.159  -9.614  11.302  0.00  0.00    +0.040 A 
ATOM     27  C   UNL     1      -6.611  -9.606  13.232  0.00  0.00    +0.040 A 
ATOM     28  C   UNL     1      -6.381  -9.292  11.894  0.00  0.00    +0.124 A 
ENDBRANCH   1  20
ENDBRANCH   7   1
TORSDOF 4
ENDMDL
MODEL 6
REMARK VINA RESULT:      -6.6     34.406     36.762
REMARK  Name = 11885138
REMARK  5 active torsions:
REMARK  status: ('A' for Active; 'I' for Inactive)
REMARK    1  A    between atoms: S_1  and  N_7
REMARK    2  A    between atoms: S_1  and  C_20
REMARK    3  A    between atoms: O_6  and  C_31
REMARK    4  A    between atoms: O_6  and  C_32
REMARK    5  A    between atoms: C_18  and  C_21
REMARK                            x       y       z     vdW  Elec       q    Type
REMARK                         _______ _______ _______ _____ _____    ______ ____
ROOT
ATOM      5  O   UNL     1       9.220 -11.914  31.770  0.00  0.00    -0.267 OA
ATOM      7  N   UNL     1       7.008  -8.940  35.103  0.00  0.00    -0.176 NA
ATOM      8  N   UNL     1       8.453  -9.813  32.433  0.00  0.00    -0.311 N 
ATOM      9  C   UNL     1       9.396  -8.579  34.469  0.00  0.00    +0.025 C 
ATOM     10  C   UNL     1       7.612  -7.546  33.135  0.00  0.00    +0.052 C 
ATOM     11  C   UNL     1       9.008  -7.318  33.708  0.00  0.00    +0.017 C 
ATOM     12  C   UNL     1       8.405  -8.845  35.614  0.00  0.00    +0.114 C 
ATOM     13  C   UNL     1       6.611  -7.754  34.286  0.00  0.00    +0.119 C 
ATOM     14  C   UNL     1       9.479  -9.750  33.482  0.00  0.00    +0.130 C 
ATOM     15  C   UNL     1       7.593  -8.738  32.197  0.00  0.00    +0.026 A 
ATOM     16  C   UNL     1       6.743  -8.770  31.159  0.00  0.00    +0.022 A 
ATOM     17  C   UNL     1       8.454 -10.961  31.615  0.00  0.00    +0.259 A 
ATOM     18  C   UNL     1       7.465 -10.984  30.482  0.00  0.00    +0.047 A 
ATOM     19  C   UNL     1       6.676  -9.915  30.295  0.00  0.00    +0.015 A 
ENDROOT
BRANCH  18  21
ATOM     21  C   UNL     1       7.347 -12.154  29.594  0.00  0.00    -0.012 A 
ATOM     24  C   UNL     1       6.383 -13.130  29.848  0.00  0.00    +0.012 A 
ATOM     25  C   UNL     1       8.201 -12.288  28.498  0.00  0.00    +0.012 A 
ATOM     29  C   UNL     1       6.272 -14.238  29.006  0.00  0.00    +0.046 A 
ATOM     30  C   UNL     1       8.091 -13.395  27.658  0.00  0.00    +0.046 A 
ATOM     31  C   UNL     1       7.127 -14.370  27.912  0.00  0.00    +0.120 A 
BRANCH  31   6
ATOM      6  O   UNL     1       7.019 -15.451  27.092  0.00  0.00    -0.495 OA
ATOM     32  C   UNL     1       5.931 -15.459  26.167  0.00  0.00    +0.277 C 
ENDBRANCH  31   6
ENDBRANCH  18  21
BRANCH   7   1
ATOM      1  S   UNL     1       5.843  -9.484  36.231  0.00  0.00    +0.061 S 
ATOM      3  O   UNL     1       4.893  -8.420  36.483  0.00  0.00    -0.153 OA
ATOM      4  O   UNL     1       6.519 -10.152  37.323  0.00  0.00    -0.153 OA
BRANCH   1  20
ATOM      2  F   UNL     1       3.129 -13.581  33.011  0.00  0.00    -0.205 F 
ATOM     20  C   UNL     1       5.028 -10.715  35.264  0.00  0.00    +0.106 A 
ATOM     22  C   UNL     1       3.700 -11.012  35.523  0.00  0.00    +0.031 A 
ATOM     23  C   UNL     1       5.729 -11.364  34.260  0.00  0.00    +0.031 A 
ATOM     26  C   UNL     1       3.056 -11.985  34.759  0.00  0.00    +0.040 A 
ATOM     27  C   UNL     1       5.084 -12.336  33.496  0.00  0.00    +0.040 A 
ATOM     28  C   UNL     1       3.748 -12.647  33.745  0.00  0.00    +0.124 A 
ENDBRANCH   1  20
ENDBRANCH   7   1
TORSDOF 4
ENDMDL
MODEL 7
REMARK VINA RESULT:      -6.5     24.597     26.263
REMARK  Name = 11885138
REMARK  5 active torsions:
REMARK  status: ('A' for Active; 'I' for Inactive)
REMARK    1  A    between atoms: S_1  and  N_7
REMARK    2  A    between atoms: S_1  and  C_20
REMARK    3  A    between atoms: O_6  and  C_31
REMARK    4  A    between atoms: O_6  and  C_32
REMARK    5  A    between atoms: C_18  and  C_21
REMARK                            x       y       z     vdW  Elec       q    Type
REMARK                         _______ _______ _______ _____ _____    ______ ____
ROOT
ATOM      5  O   UNL     1      -5.327 -12.601  10.452  0.00  0.00    -0.267 OA
ATOM      7  N   UNL     1      -3.459 -12.090  15.045  0.00  0.00    -0.176 NA
ATOM      8  N   UNL     1      -3.516 -12.325  11.895  0.00  0.00    -0.311 N 
ATOM      9  C   UNL     1      -2.869 -14.075  13.650  0.00  0.00    +0.025 C 
ATOM     10  C   UNL     1      -1.557 -12.009  13.446  0.00  0.00    +0.052 C 
ATOM     11  C   UNL     1      -1.458 -13.532  13.466  0.00  0.00    +0.017 C 
ATOM     12  C   UNL     1      -3.471 -13.580  14.975  0.00  0.00    +0.114 C 
ATOM     13  C   UNL     1      -2.105 -11.512  14.796  0.00  0.00    +0.119 C 
ATOM     14  C   UNL     1      -3.718 -13.676  12.436  0.00  0.00    +0.130 C 
ATOM     15  C   UNL     1      -2.442 -11.534  12.310  0.00  0.00    +0.026 A 
ATOM     16  C   UNL     1      -2.209 -10.351  11.719  0.00  0.00    +0.022 A 
ATOM     17  C   UNL     1      -4.391 -11.917  10.869  0.00  0.00    +0.259 A 
ATOM     18  C   UNL     1      -4.127 -10.571  10.251  0.00  0.00    +0.047 A 
ATOM     19  C   UNL     1      -3.070  -9.863  10.679  0.00  0.00    +0.015 A 
ENDROOT
BRANCH  18  21
ATOM     21  C   UNL     1      -5.007 -10.026   9.203  0.00  0.00    -0.012 A 
ATOM     24  C   UNL     1      -5.995  -9.097   9.533  0.00  0.00    +0.012 A 
ATOM     25  C   UNL     1      -4.854 -10.437   7.878  0.00  0.00    +0.012 A 
ATOM     29  C   UNL     1      -6.828  -8.581   8.539  0.00  0.00    +0.046 A 
ATOM     30  C   UNL     1      -5.687  -9.922   6.886  0.00  0.00    +0.046 A 
ATOM     31  C   UNL     1      -6.674  -8.994   7.217  0.00  0.00    +0.120 A 
BRANCH  31   6
ATOM      6  O   UNL     1      -7.487  -8.490   6.249  0.00  0.00    -0.495 OA
ATOM     32  C   UNL     1      -8.209  -7.299   6.561  0.00  0.00    +0.277 C 
ENDBRANCH  31   6
ENDBRANCH  18  21
BRANCH   7   1
ATOM      1  S   UNL     1      -4.328 -11.404  16.350  0.00  0.00    +0.061 S 
ATOM      3  O   UNL     1      -3.570 -10.297  16.894  0.00  0.00    -0.153 OA
ATOM      4  O   UNL     1      -4.812 -12.468  17.205  0.00  0.00    -0.153 OA
BRANCH   1  20
ATOM      2  F   UNL     1      -8.932  -9.173  13.461  0.00  0.00    -0.205 F 
ATOM     20  C   UNL     1      -5.711 -10.734  15.482  0.00  0.00    +0.106 A 
ATOM     22  C   UNL     1      -6.892 -10.501  16.166  0.00  0.00    +0.031 A 
ATOM     23  C   UNL     1      -5.592 -10.451  14.131  0.00  0.00    +0.031 A 
ATOM     26  C   UNL     1      -7.986  -9.972  15.480  0.00  0.00    +0.040 A 
ATOM     27  C   UNL     1      -6.685  -9.921  13.445  0.00  0.00    +0.040 A 
ATOM     28  C   UNL     1      -7.882  -9.682  14.120  0.00  0.00    +0.124 A 
ENDBRANCH   1  20
ENDBRANCH   7   1
TORSDOF 4
ENDMDL
MODEL 8
REMARK VINA RESULT:      -6.5     25.964     27.375
REMARK  Name = 11885138
REMARK  5 active torsions:
REMARK  status: ('A' for Active; 'I' for Inactive)
REMARK    1  A    between atoms: S_1  and  N_7
REMARK    2  A    between atoms: S_1  and  C_20
REMARK    3  A    between atoms: O_6  and  C_31
REMARK    4  A    between atoms: O_6  and  C_32
REMARK    5  A    between atoms: C_18  and  C_21
REMARK                            x       y       z     vdW  Elec       q    Type
REMARK                         _______ _______ _______ _____ _____    ______ ____
ROOT
ATOM      5  O   UNL     1      -4.251 -10.107  16.698  0.00  0.00    -0.267 OA
ATOM      7  N   UNL     1      -3.412 -10.926  11.853  0.00  0.00    -0.176 NA
ATOM      8  N   UNL     1      -3.577 -11.502  14.955  0.00  0.00    -0.311 N 
ATOM      9  C   UNL     1      -1.532 -10.998  13.496  0.00  0.00    +0.025 C 
ATOM     10  C   UNL     1      -2.863 -13.020  13.076  0.00  0.00    +0.052 C 
ATOM     11  C   UNL     1      -1.448 -12.511  13.339  0.00  0.00    +0.017 C 
ATOM     12  C   UNL     1      -2.084 -10.352  12.214  0.00  0.00    +0.114 C 
ATOM     13  C   UNL     1      -3.390 -12.417  11.762  0.00  0.00    +0.119 C 
ATOM     14  C   UNL     1      -2.385 -10.673  14.729  0.00  0.00    +0.130 C 
ATOM     15  C   UNL     1      -3.790 -12.674  14.225  0.00  0.00    +0.026 A 
ATOM     16  C   UNL     1      -4.823 -13.477  14.528  0.00  0.00    +0.022 A 
ATOM     17  C   UNL     1      -4.426 -11.113  16.009  0.00  0.00    +0.259 A 
ATOM     18  C   UNL     1      -5.596 -12.014  16.301  0.00  0.00    +0.047 A 
ATOM     19  C   UNL     1      -5.741 -13.135  15.578  0.00  0.00    +0.015 A 
ENDROOT
BRANCH  18  21
ATOM     21  C   UNL     1      -6.574 -11.680  17.351  0.00  0.00    -0.012 A 
ATOM     24  C   UNL     1      -6.424 -12.199  18.637  0.00  0.00    +0.012 A 
ATOM     25  C   UNL     1      -7.653 -10.844  17.059  0.00  0.00    +0.012 A 
ATOM     29  C   UNL     1      -7.351 -11.881  19.631  0.00  0.00    +0.046 A 
ATOM     30  C   UNL     1      -8.580 -10.527  18.053  0.00  0.00    +0.046 A 
ATOM     31  C   UNL     1      -8.429 -11.047  19.338  0.00  0.00    +0.120 A 
BRANCH  31   6
ATOM      6  O   UNL     1      -9.333 -10.738  20.307  0.00  0.00    -0.495 OA
ATOM     32  C   UNL     1     -10.697 -10.608  19.906  0.00  0.00    +0.277 C 
ENDBRANCH  31   6
ENDBRANCH  18  21
BRANCH   7   1
ATOM      1  S   UNL     1      -4.249 -10.121  10.597  0.00  0.00    +0.061 S 
ATOM      3  O   UNL     1      -4.391 -11.018   9.470  0.00  0.00    -0.153 OA
ATOM      4  O   UNL     1      -3.687  -8.797  10.429  0.00  0.00    -0.153 OA
BRANCH   1  20
ATOM      2  F   UNL     1      -9.534  -9.534  13.097  0.00  0.00    -0.205 F 
ATOM     20  C   UNL     1      -5.837  -9.944  11.348  0.00  0.00    +0.106 A 
ATOM     22  C   UNL     1      -6.941  -9.699  10.549  0.00  0.00    +0.031 A 
ATOM     23  C   UNL     1      -5.953 -10.056  12.725  0.00  0.00    +0.031 A 
ATOM     26  C   UNL     1      -8.196  -9.559  11.142  0.00  0.00    +0.040 A 
ATOM     27  C   UNL     1      -7.207  -9.917  13.318  0.00  0.00    +0.040 A 
ATOM     28  C   UNL     1      -8.329  -9.668  12.527  0.00  0.00    +0.124 A 
ENDBRANCH   1  20
ENDBRANCH   7   1
TORSDOF 4
ENDMDL
MODEL 9
REMARK VINA RESULT:      -6.4     35.181     37.372
REMARK  Name = 11885138
REMARK  5 active torsions:
REMARK  status: ('A' for Active; 'I' for Inactive)
REMARK    1  A    between atoms: S_1  and  N_7
REMARK    2  A    between atoms: S_1  and  C_20
REMARK    3  A    between atoms: O_6  and  C_31
REMARK    4  A    between atoms: O_6  and  C_32
REMARK    5  A    between atoms: C_18  and  C_21
REMARK                            x       y       z     vdW  Elec       q    Type
REMARK                         _______ _______ _______ _____ _____    ______ ____
ROOT
ATOM      5  O   UNL     1       9.277  -9.594  33.037  0.00  0.00    -0.267 OA
ATOM      7  N   UNL     1       8.326  -5.908  36.257  0.00  0.00    -0.176 NA
ATOM      8  N   UNL     1       8.650  -7.393  33.487  0.00  0.00    -0.311 N 
ATOM      9  C   UNL     1      10.214  -5.719  34.633  0.00  0.00    +0.025 C 
ATOM     10  C   UNL     1       7.956  -5.020  33.964  0.00  0.00    +0.052 C 
ATOM     11  C   UNL     1       9.438  -4.670  33.846  0.00  0.00    +0.017 C 
ATOM     12  C   UNL     1       9.796  -5.703  36.112  0.00  0.00    +0.114 C 
ATOM     13  C   UNL     1       7.527  -4.946  35.441  0.00  0.00    +0.119 C 
ATOM     14  C   UNL     1      10.001  -7.090  33.979  0.00  0.00    +0.130 C 
ATOM     15  C   UNL     1       7.673  -6.398  33.400  0.00  0.00    +0.026 A 
ATOM     16  C   UNL     1       6.484  -6.670  32.839  0.00  0.00    +0.022 A 
ATOM     17  C   UNL     1       8.429  -8.700  33.011  0.00  0.00    +0.259 A 
ATOM     18  C   UNL     1       7.074  -8.984  32.420  0.00  0.00    +0.047 A 
ATOM     19  C   UNL     1       6.182  -7.985  32.349  0.00  0.00    +0.015 A 
ENDROOT
BRANCH  18  21
ATOM     21  C   UNL     1       6.719 -10.329  31.936  0.00  0.00    -0.012 A 
ATOM     24  C   UNL     1       6.793 -10.623  30.574  0.00  0.00    +0.012 A 
ATOM     25  C   UNL     1       6.307 -11.311  32.838  0.00  0.00    +0.012 A 
ATOM     29  C   UNL     1       6.456 -11.898  30.115  0.00  0.00    +0.046 A 
ATOM     30  C   UNL     1       5.971 -12.584  32.379  0.00  0.00    +0.046 A 
ATOM     31  C   UNL     1       6.045 -12.877  31.018  0.00  0.00    +0.120 A 
BRANCH  31   6
ATOM      6  O   UNL     1       5.716 -14.119  30.570  0.00  0.00    -0.495 OA
ATOM     32  C   UNL     1       4.797 -14.195  29.480  0.00  0.00    +0.277 C 
ENDBRANCH  31   6
ENDBRANCH  18  21
BRANCH   7   1
ATOM      1  S   UNL     1       7.768  -6.167  37.853  0.00  0.00    +0.061 S 
ATOM      3  O   UNL     1       7.285  -4.914  38.395  0.00  0.00    -0.153 OA
ATOM      4  O   UNL     1       8.743  -6.961  38.570  0.00  0.00    -0.153 OA
BRANCH   1  20
ATOM      2  F   UNL     1       3.106  -9.575  36.777  0.00  0.00    -0.205 F 
ATOM     20  C   UNL     1       6.367  -7.190  37.529  0.00  0.00    +0.106 A 
ATOM     22  C   UNL     1       6.414  -8.090  36.478  0.00  0.00    +0.031 A 
ATOM     23  C   UNL     1       5.245  -7.078  38.334  0.00  0.00    +0.031 A 
ATOM     26  C   UNL     1       5.307  -8.899  36.222  0.00  0.00    +0.040 A 
ATOM     27  C   UNL     1       4.138  -7.888  38.078  0.00  0.00    +0.040 A 
ATOM     28  C   UNL     1       4.169  -8.798  37.023  0.00  0.00    +0.124 A 
ENDBRANCH   1  20
ENDBRANCH   7   1
TORSDOF 4
ENDMDL
MODEL 10
REMARK VINA RESULT:      -6.3     24.766     26.608
REMARK  Name = 11885138
REMARK  5 active torsions:
REMARK  status: ('A' for Active; 'I' for Inactive)
REMARK    1  A    between atoms: S_1  and  N_7
REMARK    2  A    between atoms: S_1  and  C_20
REMARK    3  A    between atoms: O_6  and  C_31
REMARK    4  A    between atoms: O_6  and  C_32
REMARK    5  A    between atoms: C_18  and  C_21
REMARK                            x       y       z     vdW  Elec       q    Type
REMARK                         _______ _______ _______ _____ _____    ______ ____
ROOT
ATOM      5  O   UNL     1      -4.791 -12.955   8.869  0.00  0.00    -0.267 OA
ATOM      7  N   UNL     1      -4.528 -11.567  13.650  0.00  0.00    -0.176 NA
ATOM      8  N   UNL     1      -3.678 -11.897  10.625  0.00  0.00    -0.311 N 
ATOM      9  C   UNL     1      -2.856 -13.159  12.697  0.00  0.00    +0.025 C 
ATOM     10  C   UNL     1      -2.478 -10.739  12.512  0.00  0.00    +0.052 C 
ATOM     11  C   UNL     1      -1.785 -12.077  12.757  0.00  0.00    +0.017 C 
ATOM     12  C   UNL     1      -3.923 -12.924  13.779  0.00  0.00    +0.114 C 
ATOM     13  C   UNL     1      -3.505 -10.479  13.629  0.00  0.00    +0.119 C 
ATOM     14  C   UNL     1      -3.452 -13.191  11.284  0.00  0.00    +0.130 C 
ATOM     15  C   UNL     1      -3.157 -10.715  11.156  0.00  0.00    +0.026 A 
ATOM     16  C   UNL     1      -3.274  -9.563  10.477  0.00  0.00    +0.022 A 
ATOM     17  C   UNL     1      -4.349 -11.928   9.386  0.00  0.00    +0.259 A 
ATOM     18  C   UNL     1      -4.497 -10.615   8.666  0.00  0.00    +0.047 A 
ATOM     19  C   UNL     1      -3.962  -9.515   9.217  0.00  0.00    +0.015 A 
ENDROOT
BRANCH  18  21
ATOM     21  C   UNL     1      -5.222 -10.523   7.387  0.00  0.00    -0.012 A 
ATOM     24  C   UNL     1      -6.295  -9.641   7.253  0.00  0.00    +0.012 A 
ATOM     25  C   UNL     1      -4.836 -11.318   6.306  0.00  0.00    +0.012 A 
ATOM     29  C   UNL     1      -6.981  -9.555   6.041  0.00  0.00    +0.046 A 
ATOM     30  C   UNL     1      -5.522 -11.231   5.095  0.00  0.00    +0.046 A 
ATOM     31  C   UNL     1      -6.595 -10.350   4.963  0.00  0.00    +0.120 A 
BRANCH  31   6
ATOM      6  O   UNL     1      -7.265 -10.266   3.782  0.00  0.00    -0.495 OA
ATOM     32  C   UNL     1      -7.835 -11.470   3.270  0.00  0.00    +0.277 C 
ENDBRANCH  31   6
ENDBRANCH  18  21
BRANCH   7   1
ATOM      1  S   UNL     1      -5.901 -11.273  14.627  0.00  0.00    +0.061 S 
ATOM      3  O   UNL     1      -6.897 -12.290  14.364  0.00  0.00    -0.153 OA
ATOM      4  O   UNL     1      -6.238  -9.866  14.556  0.00  0.00    -0.153 OA
BRANCH   1  20
ATOM      2  F   UNL     1      -3.626 -12.321  19.941  0.00  0.00    -0.205 F 
ATOM     20  C   UNL     1      -5.218 -11.587  16.224  0.00  0.00    +0.106 A 
ATOM     22  C   UNL     1      -5.549 -12.759  16.884  0.00  0.00    +0.031 A 
ATOM     23  C   UNL     1      -4.360 -10.658  16.789  0.00  0.00    +0.031 A 
ATOM     26  C   UNL     1      -5.010 -13.008  18.146  0.00  0.00    +0.040 A 
ATOM     27  C   UNL     1      -3.820 -10.908  18.051  0.00  0.00    +0.040 A 
ATOM     28  C   UNL     1      -4.144 -12.082  18.729  0.00  0.00    +0.124 A 
ENDBRANCH   1  20
ENDBRANCH   7   1
TORSDOF 4
ENDMDL
