MODEL 1
REMARK VINA RESULT:      -7.2      0.000      0.000
REMARK  Name = 11885097
REMARK  15 active torsions:
REMARK  status: ('A' for Active; 'I' for Inactive)
REMARK    1  A    between atoms: O_2  and  C_14
REMARK    2  A    between atoms: O_3  and  C_19
REMARK    3  A    between atoms: N_7  and  C_25
REMARK    4  A    between atoms: C_9  and  C_17
REMARK    5  A    between atoms: C_11  and  C_19
REMARK    6  A    between atoms: C_11  and  C_20
REMARK    7  A    between atoms: C_12  and  C_22
REMARK    8  A    between atoms: C_22  and  C_23
REMARK    9  A    between atoms: C_25  and  C_27
REMARK   10  A    between atoms: C_25  and  C_28
REMARK   11  A    between atoms: C_26  and  C_29
REMARK   12  A    between atoms: C_29  and  C_32
REMARK   13  A    between atoms: C_32  and  C_33
REMARK   14  A    between atoms: C_33  and  C_37
REMARK   15  A    between atoms: C_37  and  C_38
REMARK                            x       y       z     vdW  Elec       q    Type
REMARK                         _______ _______ _______ _____ _____    ______ ____
ROOT
ATOM      1  S   UNL     1      10.096   5.534   3.258  0.00  0.00    -0.057 S 
ATOM      5  O   UNL     1      12.086   8.143   6.569  0.00  0.00    -0.275 OA
ATOM      6  N   UNL     1      12.284   6.711   3.979  0.00  0.00    -0.229 NA
ATOM      8  N   UNL     1      10.399   6.916   5.466  0.00  0.00    -0.265 N 
ATOM      9  C   UNL     1      14.011   5.070   0.947  0.00  0.00    -0.019 C 
ATOM     10  C   UNL     1      12.675   5.080   0.081  0.00  0.00    +0.011 C 
ATOM     11  C   UNL     1      12.730   4.376  -1.329  0.00  0.00    +0.021 C 
ATOM     12  C   UNL     1      13.867   6.180   2.088  0.00  0.00    +0.054 C 
ATOM     13  C   UNL     1      15.213   5.452   0.044  0.00  0.00    +0.010 C 
ATOM     14  C   UNL     1      14.014   4.831  -2.079  0.00  0.00    +0.123 C 
ATOM     15  C   UNL     1      11.440   4.672   0.937  0.00  0.00    +0.049 C 
ATOM     16  C   UNL     1      15.285   4.659  -1.254  0.00  0.00    +0.032 C 
ATOM     17  C   UNL     1      14.296   3.695   1.599  0.00  0.00    +0.012 C 
ATOM     18  C   UNL     1      12.527   6.083   2.771  0.00  0.00    +0.058 A 
ATOM     20  C   UNL     1      11.511   4.839  -2.176  0.00  0.00    +0.016 C 
ATOM     21  C   UNL     1      11.447   5.417   2.229  0.00  0.00    +0.015 A 
ATOM     24  C   UNL     1      11.039   6.484   4.336  0.00  0.00    +0.165 A 
ATOM     26  C   UNL     1      10.944   7.704   6.499  0.00  0.00    +0.219 C 
ATOM     42  H   UNL     1       9.428   6.626   5.549  0.00  0.00    +0.157 HD
ENDROOT
BRANCH  14   2
ATOM      2  O   UNL     1      14.163   4.115  -3.304  0.00  0.00    -0.391 OA
ATOM     39  H   UNL     1      14.459   3.215  -3.087  0.00  0.00    +0.210 HD
ENDBRANCH  14   2
BRANCH  11  19
ATOM     19  C   UNL     1      12.640   2.834  -1.279  0.00  0.00    +0.165 C 
BRANCH  19   3
ATOM      3  O   UNL     1      11.959   2.405  -2.436  0.00  0.00    -0.394 OA
ATOM     40  H   UNL     1      12.501   1.713  -2.853  0.00  0.00    +0.209 HD
ENDBRANCH  19   3
ENDBRANCH  11  19
BRANCH  12  22
ATOM     22  C   UNL     1      15.016   6.202   3.105  0.00  0.00    +0.106 C 
BRANCH  22  23
ATOM      4  O   UNL     1      15.069   8.620   3.064  0.00  0.00    -0.276 OA
ATOM      7  N   UNL     1      17.038   7.436   3.413  0.00  0.00    -0.309 N 
ATOM     23  C   UNL     1      15.675   7.560   3.187  0.00  0.00    +0.214 C 
ATOM     41  H   UNL     1      17.430   6.509   3.552  0.00  0.00    +0.149 HD
BRANCH   7  25
ATOM     25  C   UNL     1      17.924   8.571   3.535  0.00  0.00    +0.100 C 
ATOM     27  C   UNL     1      18.629   8.831   2.205  0.00  0.00    +0.033 C 
BRANCH  25  28
ATOM     28  C   UNL     1      18.894   8.396   4.682  0.00  0.00    -0.027 A 
ATOM     30  C   UNL     1      18.603   8.944   5.931  0.00  0.00    +0.005 A 
ATOM     31  C   UNL     1      20.080   7.686   4.492  0.00  0.00    +0.005 A 
ATOM     34  C   UNL     1      19.497   8.784   6.990  0.00  0.00    +0.000 A 
ATOM     35  C   UNL     1      20.974   7.526   5.551  0.00  0.00    +0.000 A 
ATOM     36  C   UNL     1      20.682   8.074   6.799  0.00  0.00    +0.000 A 
ENDBRANCH  25  28
ENDBRANCH   7  25
ENDBRANCH  22  23
ENDBRANCH  12  22
BRANCH  26  29
ATOM     29  C   UNL     1       9.911   7.976   7.585  0.00  0.00    +0.096 C 
BRANCH  29  32
ATOM     32  C   UNL     1       9.191   6.710   8.044  0.00  0.00    +0.009 C 
BRANCH  32  33
ATOM     33  C   UNL     1      10.156   5.732   8.715  0.00  0.00    +0.000 C 
BRANCH  33  37
ATOM     37  C   UNL     1       9.445   4.442   9.125  0.00  0.00    -0.003 C 
ATOM     38  C   UNL     1       8.767   4.587  10.477  0.00  0.00    +0.004 C 
ENDBRANCH  33  37
ENDBRANCH  32  33
ENDBRANCH  29  32
ENDBRANCH  26  29
TORSDOF 11
ENDMDL
MODEL 2
REMARK VINA RESULT:      -6.8     15.194     18.740
REMARK  Name = 11885097
REMARK  15 active torsions:
REMARK  status: ('A' for Active; 'I' for Inactive)
REMARK    1  A    between atoms: O_2  and  C_14
REMARK    2  A    between atoms: O_3  and  C_19
REMARK    3  A    between atoms: N_7  and  C_25
REMARK    4  A    between atoms: C_9  and  C_17
REMARK    5  A    between atoms: C_11  and  C_19
REMARK    6  A    between atoms: C_11  and  C_20
REMARK    7  A    between atoms: C_12  and  C_22
REMARK    8  A    between atoms: C_22  and  C_23
REMARK    9  A    between atoms: C_25  and  C_27
REMARK   10  A    between atoms: C_25  and  C_28
REMARK   11  A    between atoms: C_26  and  C_29
REMARK   12  A    between atoms: C_29  and  C_32
REMARK   13  A    between atoms: C_32  and  C_33
REMARK   14  A    between atoms: C_33  and  C_37
REMARK   15  A    between atoms: C_37  and  C_38
REMARK                            x       y       z     vdW  Elec       q    Type
REMARK                         _______ _______ _______ _____ _____    ______ ____
ROOT
ATOM      1  S   UNL     1      20.519  -6.192   0.582  0.00  0.00    -0.057 S 
ATOM      5  O   UNL     1      17.872  -8.088  -2.753  0.00  0.00    -0.275 OA
ATOM      6  N   UNL     1      19.498  -8.402  -0.293  0.00  0.00    -0.229 NA
ATOM      8  N   UNL     1      19.016  -6.406  -1.556  0.00  0.00    -0.265 N 
ATOM      9  C   UNL     1      21.504 -10.254   2.430  0.00  0.00    -0.019 C 
ATOM     10  C   UNL     1      21.434  -9.019   3.433  0.00  0.00    +0.011 C 
ATOM     11  C   UNL     1      22.240  -9.145   4.782  0.00  0.00    +0.021 C 
ATOM     12  C   UNL     1      20.307 -10.106   1.382  0.00  0.00    +0.054 C 
ATOM     13  C   UNL     1      21.300 -11.572   3.222  0.00  0.00    +0.010 C 
ATOM     14  C   UNL     1      21.959 -10.536   5.418  0.00  0.00    +0.123 C 
ATOM     15  C   UNL     1      21.664  -7.671   2.689  0.00  0.00    +0.049 C 
ATOM     16  C   UNL     1      22.186 -11.695   4.453  0.00  0.00    +0.032 C 
ATOM     17  C   UNL     1      22.849 -10.336   1.668  0.00  0.00    +0.012 C 
ATOM     18  C   UNL     1      20.231  -8.702   0.841  0.00  0.00    +0.058 A 
ATOM     20  C   UNL     1      21.729  -8.069   5.782  0.00  0.00    +0.016 C 
ATOM     21  C   UNL     1      20.832  -7.621   1.453  0.00  0.00    +0.015 A 
ATOM     24  C   UNL     1      19.585  -7.111  -0.528  0.00  0.00    +0.165 A 
ATOM     26  C   UNL     1      18.209  -6.920  -2.590  0.00  0.00    +0.219 C 
ATOM     42  H   UNL     1      19.209  -5.409  -1.552  0.00  0.00    +0.157 HD
ENDROOT
BRANCH  14   2
ATOM      2  O   UNL     1      22.771 -10.735   6.573  0.00  0.00    -0.391 OA
ATOM     39  H   UNL     1      22.613 -11.639   6.894  0.00  0.00    +0.210 HD
ENDBRANCH  14   2
BRANCH  11  19
ATOM     19  C   UNL     1      23.759  -8.899   4.647  0.00  0.00    +0.165 C 
BRANCH  19   3
ATOM      3  O   UNL     1      24.214  -8.338   5.858  0.00  0.00    -0.394 OA
ATOM     40  H   UNL     1      23.887  -7.423   5.895  0.00  0.00    +0.209 HD
ENDBRANCH  19   3
ENDBRANCH  11  19
BRANCH  12  22
ATOM     22  C   UNL     1      20.317 -11.144   0.252  0.00  0.00    +0.106 C 
BRANCH  22  23
ATOM      4  O   UNL     1      19.317 -13.328  -0.034  0.00  0.00    -0.276 OA
ATOM      7  N   UNL     1      18.198 -11.708   1.201  0.00  0.00    -0.309 N 
ATOM     23  C   UNL     1      19.248 -12.197   0.438  0.00  0.00    +0.214 C 
ATOM     41  H   UNL     1      18.267 -10.771   1.587  0.00  0.00    +0.149 HD
BRANCH   7  25
ATOM     25  C   UNL     1      17.035 -12.495   1.538  0.00  0.00    +0.100 C 
ATOM     27  C   UNL     1      15.799 -11.933   0.838  0.00  0.00    +0.033 C 
BRANCH  25  28
ATOM     28  C   UNL     1      16.854 -12.604   3.036  0.00  0.00    -0.027 A 
ATOM     30  C   UNL     1      15.673 -12.159   3.630  0.00  0.00    +0.005 A 
ATOM     31  C   UNL     1      17.868 -13.150   3.824  0.00  0.00    +0.005 A 
ATOM     34  C   UNL     1      15.505 -12.258   5.012  0.00  0.00    +0.000 A 
ATOM     35  C   UNL     1      17.700 -13.249   5.205  0.00  0.00    +0.000 A 
ATOM     36  C   UNL     1      16.519 -12.804   5.799  0.00  0.00    +0.000 A 
ENDBRANCH  25  28
ENDBRANCH   7  25
ENDBRANCH  22  23
ENDBRANCH  12  22
BRANCH  26  29
ATOM     29  C   UNL     1      17.766  -5.816  -3.541  0.00  0.00    +0.096 C 
BRANCH  29  32
ATOM     32  C   UNL     1      17.048  -4.674  -2.825  0.00  0.00    +0.009 C 
BRANCH  32  33
ATOM     33  C   UNL     1      15.702  -4.364  -3.481  0.00  0.00    +0.000 C 
BRANCH  33  37
ATOM     37  C   UNL     1      14.969  -5.645  -3.880  0.00  0.00    -0.003 C 
ATOM     38  C   UNL     1      13.570  -5.692  -3.289  0.00  0.00    +0.004 C 
ENDBRANCH  33  37
ENDBRANCH  32  33
ENDBRANCH  29  32
ENDBRANCH  26  29
TORSDOF 11
ENDMDL
MODEL 3
REMARK VINA RESULT:      -6.8      2.739      7.863
REMARK  Name = 11885097
REMARK  15 active torsions:
REMARK  status: ('A' for Active; 'I' for Inactive)
REMARK    1  A    between atoms: O_2  and  C_14
REMARK    2  A    between atoms: O_3  and  C_19
REMARK    3  A    between atoms: N_7  and  C_25
REMARK    4  A    between atoms: C_9  and  C_17
REMARK    5  A    between atoms: C_11  and  C_19
REMARK    6  A    between atoms: C_11  and  C_20
REMARK    7  A    between atoms: C_12  and  C_22
REMARK    8  A    between atoms: C_22  and  C_23
REMARK    9  A    between atoms: C_25  and  C_27
REMARK   10  A    between atoms: C_25  and  C_28
REMARK   11  A    between atoms: C_26  and  C_29
REMARK   12  A    between atoms: C_29  and  C_32
REMARK   13  A    between atoms: C_32  and  C_33
REMARK   14  A    between atoms: C_33  and  C_37
REMARK   15  A    between atoms: C_37  and  C_38
REMARK                            x       y       z     vdW  Elec       q    Type
REMARK                         _______ _______ _______ _____ _____    ______ ____
ROOT
ATOM      1  S   UNL     1      15.102   8.050   6.136  0.00  0.00    -0.057 S 
ATOM      5  O   UNL     1      12.781   6.503   2.402  0.00  0.00    -0.275 OA
ATOM      6  N   UNL     1      15.278   7.559   3.602  0.00  0.00    -0.229 NA
ATOM      8  N   UNL     1      13.155   7.110   4.651  0.00  0.00    -0.265 N 
ATOM      9  C   UNL     1      18.800   9.128   3.677  0.00  0.00    -0.019 C 
ATOM     10  C   UNL     1      19.059   8.670   5.179  0.00  0.00    +0.011 C 
ATOM     11  C   UNL     1      20.395   9.159   5.858  0.00  0.00    +0.021 C 
ATOM     12  C   UNL     1      17.661   8.190   3.064  0.00  0.00    +0.054 C 
ATOM     13  C   UNL     1      20.095   8.930   2.847  0.00  0.00    +0.010 C 
ATOM     14  C   UNL     1      21.580   8.932   4.878  0.00  0.00    +0.123 C 
ATOM     15  C   UNL     1      17.794   8.878   6.063  0.00  0.00    +0.049 C 
ATOM     16  C   UNL     1      21.338   9.524   3.494  0.00  0.00    +0.032 C 
ATOM     17  C   UNL     1      18.361  10.609   3.566  0.00  0.00    +0.012 C 
ATOM     18  C   UNL     1      16.502   8.050   4.017  0.00  0.00    +0.058 A 
ATOM     20  C   UNL     1      20.668   8.296   7.123  0.00  0.00    +0.016 C 
ATOM     21  C   UNL     1      16.589   8.348   5.362  0.00  0.00    +0.015 A 
ATOM     24  C   UNL     1      14.461   7.522   4.632  0.00  0.00    +0.165 A 
ATOM     26  C   UNL     1      12.402   6.633   3.561  0.00  0.00    +0.219 C 
ATOM     42  H   UNL     1      12.701   7.162   5.559  0.00  0.00    +0.157 HD
ENDROOT
BRANCH  14   2
ATOM      2  O   UNL     1      22.785   9.482   5.408  0.00  0.00    -0.391 OA
ATOM     39  H   UNL     1      22.705   9.490   6.377  0.00  0.00    +0.210 HD
ENDBRANCH  14   2
BRANCH  11  19
ATOM     19  C   UNL     1      20.363  10.623   6.352  0.00  0.00    +0.165 C 
BRANCH  19   3
ATOM      3  O   UNL     1      21.091  10.687   7.558  0.00  0.00    -0.394 OA
ATOM     40  H   UNL     1      21.738  11.407   7.469  0.00  0.00    +0.209 HD
ENDBRANCH  19   3
ENDBRANCH  11  19
BRANCH  12  22
ATOM     22  C   UNL     1      17.188   8.594   1.661  0.00  0.00    +0.106 C 
BRANCH  22  23
ATOM      4  O   UNL     1      18.415   7.398  -0.047  0.00  0.00    -0.276 OA
ATOM      7  N   UNL     1      16.327   6.623   0.619  0.00  0.00    -0.309 N 
ATOM     23  C   UNL     1      17.408   7.492   0.649  0.00  0.00    +0.214 C 
ATOM     41  H   UNL     1      15.566   6.764   1.277  0.00  0.00    +0.149 HD
BRANCH   7  25
ATOM     25  C   UNL     1      16.261   5.476  -0.257  0.00  0.00    +0.100 C 
ATOM     27  C   UNL     1      16.257   5.930  -1.715  0.00  0.00    +0.033 C 
BRANCH  25  28
ATOM     28  C   UNL     1      15.082   4.590   0.080  0.00  0.00    -0.027 A 
ATOM     30  C   UNL     1      14.178   4.224  -0.917  0.00  0.00    +0.005 A 
ATOM     31  C   UNL     1      14.900   4.136   1.387  0.00  0.00    +0.005 A 
ATOM     34  C   UNL     1      13.091   3.406  -0.608  0.00  0.00    +0.000 A 
ATOM     35  C   UNL     1      13.813   3.319   1.695  0.00  0.00    +0.000 A 
ATOM     36  C   UNL     1      12.909   2.954   0.698  0.00  0.00    +0.000 A 
ENDBRANCH  25  28
ENDBRANCH   7  25
ENDBRANCH  22  23
ENDBRANCH  12  22
BRANCH  26  29
ATOM     29  C   UNL     1      10.985   6.273   3.988  0.00  0.00    +0.096 C 
BRANCH  29  32
ATOM     32  C   UNL     1      10.724   4.768   3.953  0.00  0.00    +0.009 C 
BRANCH  32  33
ATOM     33  C   UNL     1       9.902   4.317   5.161  0.00  0.00    +0.000 C 
BRANCH  33  37
ATOM     37  C   UNL     1       9.623   5.484   6.109  0.00  0.00    -0.003 C 
ATOM     38  C   UNL     1       9.849   5.088   7.559  0.00  0.00    +0.004 C 
ENDBRANCH  33  37
ENDBRANCH  32  33
ENDBRANCH  29  32
ENDBRANCH  26  29
TORSDOF 11
ENDMDL
MODEL 4
REMARK VINA RESULT:      -6.7      2.317      7.495
REMARK  Name = 11885097
REMARK  15 active torsions:
REMARK  status: ('A' for Active; 'I' for Inactive)
REMARK    1  A    between atoms: O_2  and  C_14
REMARK    2  A    between atoms: O_3  and  C_19
REMARK    3  A    between atoms: N_7  and  C_25
REMARK    4  A    between atoms: C_9  and  C_17
REMARK    5  A    between atoms: C_11  and  C_19
REMARK    6  A    between atoms: C_11  and  C_20
REMARK    7  A    between atoms: C_12  and  C_22
REMARK    8  A    between atoms: C_22  and  C_23
REMARK    9  A    between atoms: C_25  and  C_27
REMARK   10  A    between atoms: C_25  and  C_28
REMARK   11  A    between atoms: C_26  and  C_29
REMARK   12  A    between atoms: C_29  and  C_32
REMARK   13  A    between atoms: C_32  and  C_33
REMARK   14  A    between atoms: C_33  and  C_37
REMARK   15  A    between atoms: C_37  and  C_38
REMARK                            x       y       z     vdW  Elec       q    Type
REMARK                         _______ _______ _______ _____ _____    ______ ____
ROOT
ATOM      1  S   UNL     1      13.595   8.015   6.941  0.00  0.00    -0.057 S 
ATOM      5  O   UNL     1      10.799   5.448   4.236  0.00  0.00    -0.275 OA
ATOM      6  N   UNL     1      13.335   6.943   4.601  0.00  0.00    -0.229 NA
ATOM      8  N   UNL     1      11.527   6.606   6.159  0.00  0.00    -0.265 N 
ATOM      9  C   UNL     1      16.585   8.737   3.560  0.00  0.00    -0.019 C 
ATOM     10  C   UNL     1      17.185   8.675   5.034  0.00  0.00    +0.011 C 
ATOM     11  C   UNL     1      18.558   9.410   5.281  0.00  0.00    +0.021 C 
ATOM     12  C   UNL     1      15.472   7.598   3.432  0.00  0.00    +0.054 C 
ATOM     13  C   UNL     1      17.709   8.441   2.534  0.00  0.00    +0.010 C 
ATOM     14  C   UNL     1      19.548   9.040   4.141  0.00  0.00    +0.123 C 
ATOM     15  C   UNL     1      16.100   8.997   6.103  0.00  0.00    +0.049 C 
ATOM     16  C   UNL     1      18.972   9.263   2.747  0.00  0.00    +0.032 C 
ATOM     17  C   UNL     1      15.956  10.112   3.225  0.00  0.00    +0.012 C 
ATOM     18  C   UNL     1      14.547   7.608   4.622  0.00  0.00    +0.058 A 
ATOM     20  C   UNL     1      19.175   8.900   6.614  0.00  0.00    +0.016 C 
ATOM     21  C   UNL     1      14.856   8.226   5.816  0.00  0.00    +0.015 A 
ATOM     24  C   UNL     1      12.744   7.095   5.766  0.00  0.00    +0.165 A 
ATOM     26  C   UNL     1      10.640   5.826   5.391  0.00  0.00    +0.219 C 
ATOM     42  H   UNL     1      11.255   6.841   7.110  0.00  0.00    +0.157 HD
ENDROOT
BRANCH  14   2
ATOM      2  O   UNL     1      20.757   9.789   4.262  0.00  0.00    -0.391 OA
ATOM     39  H   UNL     1      21.204   9.771   3.399  0.00  0.00    +0.210 HD
ENDBRANCH  14   2
BRANCH  11  19
ATOM     19  C   UNL     1      18.444  10.943   5.435  0.00  0.00    +0.165 C 
BRANCH  19   3
ATOM      3  O   UNL     1      19.310  11.337   6.476  0.00  0.00    -0.394 OA
ATOM     40  H   UNL     1      20.216  11.116   6.200  0.00  0.00    +0.209 HD
ENDBRANCH  19   3
ENDBRANCH  11  19
BRANCH  12  22
ATOM     22  C   UNL     1      14.690   7.616   2.112  0.00  0.00    +0.106 C 
BRANCH  22  23
ATOM      4  O   UNL     1      15.301   5.930   0.489  0.00  0.00    -0.276 OA
ATOM      7  N   UNL     1      13.730   5.428   2.127  0.00  0.00    -0.309 N 
ATOM     23  C   UNL     1      14.632   6.250   1.468  0.00  0.00    +0.214 C 
ATOM     41  H   UNL     1      13.267   5.778   2.961  0.00  0.00    +0.149 HD
BRANCH   7  25
ATOM     25  C   UNL     1      13.467   4.065   1.728  0.00  0.00    +0.100 C 
ATOM     27  C   UNL     1      14.779   3.292   1.603  0.00  0.00    +0.033 C 
BRANCH  25  28
ATOM     28  C   UNL     1      12.637   4.008   0.465  0.00  0.00    -0.027 A 
ATOM     30  C   UNL     1      13.090   3.280  -0.635  0.00  0.00    +0.005 A 
ATOM     31  C   UNL     1      11.416   4.681   0.401  0.00  0.00    +0.005 A 
ATOM     34  C   UNL     1      12.325   3.227  -1.800  0.00  0.00    +0.000 A 
ATOM     35  C   UNL     1      10.651   4.627  -0.764  0.00  0.00    +0.000 A 
ATOM     36  C   UNL     1      11.106   3.900  -1.864  0.00  0.00    +0.000 A 
ENDBRANCH  25  28
ENDBRANCH   7  25
ENDBRANCH  22  23
ENDBRANCH  12  22
BRANCH  26  29
ATOM     29  C   UNL     1       9.388   5.476   6.185  0.00  0.00    +0.096 C 
BRANCH  29  32
ATOM     32  C   UNL     1       8.831   6.667   6.962  0.00  0.00    +0.009 C 
BRANCH  32  33
ATOM     33  C   UNL     1       9.097   6.528   8.461  0.00  0.00    +0.000 C 
BRANCH  33  37
ATOM     37  C   UNL     1       9.583   5.121   8.811  0.00  0.00    -0.003 C 
ATOM     38  C   UNL     1       8.973   4.630  10.114  0.00  0.00    +0.004 C 
ENDBRANCH  33  37
ENDBRANCH  32  33
ENDBRANCH  29  32
ENDBRANCH  26  29
TORSDOF 11
ENDMDL
MODEL 5
REMARK VINA RESULT:      -6.7     27.104     30.675
REMARK  Name = 11885097
REMARK  15 active torsions:
REMARK  status: ('A' for Active; 'I' for Inactive)
REMARK    1  A    between atoms: O_2  and  C_14
REMARK    2  A    between atoms: O_3  and  C_19
REMARK    3  A    between atoms: N_7  and  C_25
REMARK    4  A    between atoms: C_9  and  C_17
REMARK    5  A    between atoms: C_11  and  C_19
REMARK    6  A    between atoms: C_11  and  C_20
REMARK    7  A    between atoms: C_12  and  C_22
REMARK    8  A    between atoms: C_22  and  C_23
REMARK    9  A    between atoms: C_25  and  C_27
REMARK   10  A    between atoms: C_25  and  C_28
REMARK   11  A    between atoms: C_26  and  C_29
REMARK   12  A    between atoms: C_29  and  C_32
REMARK   13  A    between atoms: C_32  and  C_33
REMARK   14  A    between atoms: C_33  and  C_37
REMARK   15  A    between atoms: C_37  and  C_38
REMARK                            x       y       z     vdW  Elec       q    Type
REMARK                         _______ _______ _______ _____ _____    ______ ____
ROOT
ATOM      1  S   UNL     1      -6.256 -10.905  12.357  0.00  0.00    -0.057 S 
ATOM      5  O   UNL     1      -9.430  -8.202  10.272  0.00  0.00    -0.275 OA
ATOM      6  N   UNL     1      -8.333  -9.412  12.748  0.00  0.00    -0.229 NA
ATOM      8  N   UNL     1      -7.565  -9.633  10.474  0.00  0.00    -0.265 N 
ATOM      9  C   UNL     1      -8.283 -10.533  16.437  0.00  0.00    -0.019 C 
ATOM     10  C   UNL     1      -6.700 -10.702  16.446  0.00  0.00    +0.011 C 
ATOM     11  C   UNL     1      -6.050 -11.295  17.755  0.00  0.00    +0.021 C 
ATOM     12  C   UNL     1      -8.665  -9.539  15.245  0.00  0.00    +0.054 C 
ATOM     13  C   UNL     1      -8.740  -9.892  17.773  0.00  0.00    +0.010 C 
ATOM     14  C   UNL     1      -6.651 -10.577  18.996  0.00  0.00    +0.123 C 
ATOM     15  C   UNL     1      -6.192 -11.371  15.135  0.00  0.00    +0.049 C 
ATOM     16  C   UNL     1      -8.176 -10.576  19.010  0.00  0.00    +0.032 C 
ATOM     17  C   UNL     1      -9.030 -11.875  16.248  0.00  0.00    +0.012 C 
ATOM     18  C   UNL     1      -7.942  -9.911  13.977  0.00  0.00    +0.058 A 
ATOM     20  C   UNL     1      -4.523 -10.999  17.743  0.00  0.00    +0.016 C 
ATOM     21  C   UNL     1      -6.823 -10.719  13.952  0.00  0.00    +0.015 A 
ATOM     24  C   UNL     1      -7.522  -9.875  11.821  0.00  0.00    +0.165 A 
ATOM     26  C   UNL     1      -8.494  -8.828   9.787  0.00  0.00    +0.219 C 
ATOM     42  H   UNL     1      -6.838 -10.092   9.932  0.00  0.00    +0.157 HD
ENDROOT
BRANCH  14   2
ATOM      2  O   UNL     1      -6.182 -11.178  20.202  0.00  0.00    -0.391 OA
ATOM     39  H   UNL     1      -6.544 -12.079  20.244  0.00  0.00    +0.210 HD
ENDBRANCH  14   2
BRANCH  11  19
ATOM     19  C   UNL     1      -6.175 -12.829  17.893  0.00  0.00    +0.165 C 
BRANCH  19   3
ATOM      3  O   UNL     1      -4.969 -13.313  18.440  0.00  0.00    -0.394 OA
ATOM     40  H   UNL     1      -5.180 -13.711  19.302  0.00  0.00    +0.209 HD
ENDBRANCH  19   3
ENDBRANCH  11  19
BRANCH  12  22
ATOM     22  C   UNL     1     -10.173  -9.382  15.006  0.00  0.00    +0.106 C 
BRANCH  22  23
ATOM      4  O   UNL     1     -10.150  -7.245  16.139  0.00  0.00    -0.276 OA
ATOM      7  N   UNL     1     -11.708  -7.634  14.459  0.00  0.00    -0.309 N 
ATOM     23  C   UNL     1     -10.648  -7.974  15.286  0.00  0.00    +0.214 C 
ATOM     41  H   UNL     1     -12.008  -8.296  13.749  0.00  0.00    +0.149 HD
BRANCH   7  25
ATOM     25  C   UNL     1     -12.365  -6.348  14.506  0.00  0.00    +0.100 C 
ATOM     27  C   UNL     1     -13.757  -6.493  15.118  0.00  0.00    +0.033 C 
BRANCH  25  28
ATOM     28  C   UNL     1     -12.394  -5.690  13.144  0.00  0.00    -0.027 A 
ATOM     30  C   UNL     1     -12.294  -4.303  13.038  0.00  0.00    +0.005 A 
ATOM     31  C   UNL     1     -12.521  -6.470  11.995  0.00  0.00    +0.005 A 
ATOM     34  C   UNL     1     -12.321  -3.695  11.782  0.00  0.00    +0.000 A 
ATOM     35  C   UNL     1     -12.548  -5.863  10.739  0.00  0.00    +0.000 A 
ATOM     36  C   UNL     1     -12.448  -4.476  10.633  0.00  0.00    +0.000 A 
ENDBRANCH  25  28
ENDBRANCH   7  25
ENDBRANCH  22  23
ENDBRANCH  12  22
BRANCH  26  29
ATOM     29  C   UNL     1      -8.205  -8.809   8.292  0.00  0.00    +0.096 C 
BRANCH  29  32
ATOM     32  C   UNL     1      -7.935  -7.402   7.762  0.00  0.00    +0.009 C 
BRANCH  32  33
ATOM     33  C   UNL     1      -9.065  -6.923   6.850  0.00  0.00    +0.000 C 
BRANCH  33  37
ATOM     37  C   UNL     1     -10.102  -6.114   7.629  0.00  0.00    -0.003 C 
ATOM     38  C   UNL     1      -9.441  -5.093   8.540  0.00  0.00    +0.004 C 
ENDBRANCH  33  37
ENDBRANCH  32  33
ENDBRANCH  29  32
ENDBRANCH  26  29
TORSDOF 11
ENDMDL
MODEL 6
REMARK VINA RESULT:      -6.5     23.204     28.274
REMARK  Name = 11885097
REMARK  15 active torsions:
REMARK  status: ('A' for Active; 'I' for Inactive)
REMARK    1  A    between atoms: O_2  and  C_14
REMARK    2  A    between atoms: O_3  and  C_19
REMARK    3  A    between atoms: N_7  and  C_25
REMARK    4  A    between atoms: C_9  and  C_17
REMARK    5  A    between atoms: C_11  and  C_19
REMARK    6  A    between atoms: C_11  and  C_20
REMARK    7  A    between atoms: C_12  and  C_22
REMARK    8  A    between atoms: C_22  and  C_23
REMARK    9  A    between atoms: C_25  and  C_27
REMARK   10  A    between atoms: C_25  and  C_28
REMARK   11  A    between atoms: C_26  and  C_29
REMARK   12  A    between atoms: C_29  and  C_32
REMARK   13  A    between atoms: C_32  and  C_33
REMARK   14  A    between atoms: C_33  and  C_37
REMARK   15  A    between atoms: C_37  and  C_38
REMARK                            x       y       z     vdW  Elec       q    Type
REMARK                         _______ _______ _______ _____ _____    ______ ____
ROOT
ATOM      1  S   UNL     1      17.405  -2.586  30.359  0.00  0.00    -0.057 S 
ATOM      5  O   UNL     1      19.631  -3.160  26.305  0.00  0.00    -0.275 OA
ATOM      6  N   UNL     1      17.648  -4.120  28.290  0.00  0.00    -0.229 NA
ATOM      8  N   UNL     1      19.032  -2.147  28.350  0.00  0.00    -0.265 N 
ATOM      9  C   UNL     1      15.279  -6.618  30.027  0.00  0.00    -0.019 C 
ATOM     10  C   UNL     1      14.490  -5.463  30.787  0.00  0.00    +0.011 C 
ATOM     11  C   UNL     1      13.386  -5.909  31.821  0.00  0.00    +0.021 C 
ATOM     12  C   UNL     1      15.997  -5.970  28.755  0.00  0.00    +0.054 C 
ATOM     13  C   UNL     1      14.272  -7.687  29.527  0.00  0.00    +0.010 C 
ATOM     14  C   UNL     1      12.499  -7.012  31.179  0.00  0.00    +0.123 C 
ATOM     15  C   UNL     1      15.461  -4.377  31.336  0.00  0.00    +0.049 C 
ATOM     16  C   UNL     1      13.304  -8.170  30.598  0.00  0.00    +0.032 C 
ATOM     17  C   UNL     1      16.337  -7.311  30.919  0.00  0.00    +0.012 C 
ATOM     18  C   UNL     1      16.707  -4.693  29.125  0.00  0.00    +0.058 A 
ATOM     20  C   UNL     1      12.464  -4.697  32.135  0.00  0.00    +0.016 C 
ATOM     21  C   UNL     1      16.438  -3.985  30.279  0.00  0.00    +0.015 A 
ATOM     24  C   UNL     1      18.089  -3.010  28.842  0.00  0.00    +0.165 A 
ATOM     26  C   UNL     1      19.736  -2.265  27.136  0.00  0.00    +0.219 C 
ATOM     42  H   UNL     1      19.227  -1.343  28.939  0.00  0.00    +0.157 HD
ENDROOT
BRANCH  14   2
ATOM      2  O   UNL     1      11.572  -7.531  32.131  0.00  0.00    -0.391 OA
ATOM     39  H   UNL     1      11.407  -8.462  31.907  0.00  0.00    +0.210 HD
ENDBRANCH  14   2
BRANCH  11  19
ATOM     19  C   UNL     1      13.940  -6.375  33.186  0.00  0.00    +0.165 C 
BRANCH  19   3
ATOM      3  O   UNL     1      13.058  -5.918  34.187  0.00  0.00    -0.394 OA
ATOM     40  H   UNL     1      13.261  -6.412  35.001  0.00  0.00    +0.209 HD
ENDBRANCH  19   3
ENDBRANCH  11  19
BRANCH  12  22
ATOM     22  C   UNL     1      16.923  -6.925  27.990  0.00  0.00    +0.106 C 
BRANCH  22  23
ATOM      4  O   UNL     1      15.782  -7.775  26.034  0.00  0.00    -0.276 OA
ATOM      7  N   UNL     1      17.307  -6.036  25.805  0.00  0.00    -0.309 N 
ATOM     23  C   UNL     1      16.587  -6.984  26.518  0.00  0.00    +0.214 C 
ATOM     41  H   UNL     1      17.909  -5.395  26.314  0.00  0.00    +0.149 HD
BRANCH   7  25
ATOM     25  C   UNL     1      17.189  -5.866  24.376  0.00  0.00    +0.100 C 
ATOM     27  C   UNL     1      18.233  -6.719  23.658  0.00  0.00    +0.033 C 
BRANCH  25  28
ATOM     28  C   UNL     1      17.262  -4.407  23.984  0.00  0.00    -0.027 A 
ATOM     30  C   UNL     1      18.010  -4.019  22.873  0.00  0.00    +0.005 A 
ATOM     31  C   UNL     1      16.578  -3.448  24.733  0.00  0.00    +0.005 A 
ATOM     34  C   UNL     1      18.078  -2.674  22.510  0.00  0.00    +0.000 A 
ATOM     35  C   UNL     1      16.646  -2.103  24.370  0.00  0.00    +0.000 A 
ATOM     36  C   UNL     1      17.395  -1.716  23.260  0.00  0.00    +0.000 A 
ENDBRANCH  25  28
ENDBRANCH   7  25
ENDBRANCH  22  23
ENDBRANCH  12  22
BRANCH  26  29
ATOM     29  C   UNL     1      20.698  -1.100  26.944  0.00  0.00    +0.096 C 
BRANCH  29  32
ATOM     32  C   UNL     1      20.922  -0.758  25.472  0.00  0.00    +0.009 C 
BRANCH  32  33
ATOM     33  C   UNL     1      21.776   0.501  25.317  0.00  0.00    +0.000 C 
BRANCH  33  37
ATOM     37  C   UNL     1      23.203   0.156  24.889  0.00  0.00    -0.003 C 
ATOM     38  C   UNL     1      23.741   1.163  23.885  0.00  0.00    +0.004 C 
ENDBRANCH  33  37
ENDBRANCH  32  33
ENDBRANCH  29  32
ENDBRANCH  26  29
TORSDOF 11
ENDMDL
MODEL 7
REMARK VINA RESULT:      -6.5      1.818      2.814
REMARK  Name = 11885097
REMARK  15 active torsions:
REMARK  status: ('A' for Active; 'I' for Inactive)
REMARK    1  A    between atoms: O_2  and  C_14
REMARK    2  A    between atoms: O_3  and  C_19
REMARK    3  A    between atoms: N_7  and  C_25
REMARK    4  A    between atoms: C_9  and  C_17
REMARK    5  A    between atoms: C_11  and  C_19
REMARK    6  A    between atoms: C_11  and  C_20
REMARK    7  A    between atoms: C_12  and  C_22
REMARK    8  A    between atoms: C_22  and  C_23
REMARK    9  A    between atoms: C_25  and  C_27
REMARK   10  A    between atoms: C_25  and  C_28
REMARK   11  A    between atoms: C_26  and  C_29
REMARK   12  A    between atoms: C_29  and  C_32
REMARK   13  A    between atoms: C_32  and  C_33
REMARK   14  A    between atoms: C_33  and  C_37
REMARK   15  A    between atoms: C_37  and  C_38
REMARK                            x       y       z     vdW  Elec       q    Type
REMARK                         _______ _______ _______ _____ _____    ______ ____
ROOT
ATOM      1  S   UNL     1      10.089   4.945   3.150  0.00  0.00    -0.057 S 
ATOM      5  O   UNL     1      13.176   6.977   5.990  0.00  0.00    -0.275 OA
ATOM      6  N   UNL     1      12.467   5.952   3.299  0.00  0.00    -0.229 NA
ATOM      8  N   UNL     1      11.152   5.968   5.318  0.00  0.00    -0.265 N 
ATOM      9  C   UNL     1      13.058   4.756  -0.319  0.00  0.00    -0.019 C 
ATOM     10  C   UNL     1      11.523   4.925  -0.709  0.00  0.00    +0.011 C 
ATOM     11  C   UNL     1      11.092   4.442  -2.148  0.00  0.00    +0.021 C 
ATOM     12  C   UNL     1      13.348   5.682   0.950  0.00  0.00    +0.054 C 
ATOM     13  C   UNL     1      13.945   5.245  -1.494  0.00  0.00    +0.010 C 
ATOM     14  C   UNL     1      12.109   4.979  -3.194  0.00  0.00    +0.123 C 
ATOM     15  C   UNL     1      10.589   4.418   0.428  0.00  0.00    +0.049 C 
ATOM     16  C   UNL     1      13.558   4.658  -2.844  0.00  0.00    +0.032 C 
ATOM     17  C   UNL     1      13.436   3.292   0.013  0.00  0.00    +0.012 C 
ATOM     18  C   UNL     1      12.282   5.510   2.001  0.00  0.00    +0.058 A 
ATOM     20  C   UNL     1       9.705   5.055  -2.494  0.00  0.00    +0.016 C 
ATOM     21  C   UNL     1      11.045   4.958   1.741  0.00  0.00    +0.015 A 
ATOM     24  C   UNL     1      11.380   5.700   3.995  0.00  0.00    +0.165 A 
ATOM     26  C   UNL     1      12.041   6.578   6.224  0.00  0.00    +0.219 C 
ATOM     42  H   UNL     1      10.237   5.689   5.662  0.00  0.00    +0.157 HD
ENDROOT
BRANCH  14   2
ATOM      2  O   UNL     1      11.823   4.455  -4.489  0.00  0.00    -0.391 OA
ATOM     39  H   UNL     1      11.124   3.787  -4.391  0.00  0.00    +0.210 HD
ENDBRANCH  14   2
BRANCH  11  19
ATOM     19  C   UNL     1      10.918   2.913  -2.285  0.00  0.00    +0.165 C 
BRANCH  19   3
ATOM      3  O   UNL     1       9.793   2.679  -3.102  0.00  0.00    -0.394 OA
ATOM     40  H   UNL     1       9.127   3.352  -2.879  0.00  0.00    +0.209 HD
ENDBRANCH  19   3
ENDBRANCH  11  19
BRANCH  12  22
ATOM     22  C   UNL     1      14.754   5.525   1.546  0.00  0.00    +0.106 C 
BRANCH  22  23
ATOM      4  O   UNL     1      15.841   7.542   0.771  0.00  0.00    -0.276 OA
ATOM      7  N   UNL     1      15.588   7.181   3.053  0.00  0.00    -0.309 N 
ATOM     23  C   UNL     1      15.452   6.855   1.711  0.00  0.00    +0.214 C 
ATOM     41  H   UNL     1      15.182   6.564   3.751  0.00  0.00    +0.149 HD
BRANCH   7  25
ATOM     25  C   UNL     1      16.220   8.396   3.510  0.00  0.00    +0.100 C 
ATOM     27  C   UNL     1      17.573   8.078   4.144  0.00  0.00    +0.033 C 
BRANCH  25  28
ATOM     28  C   UNL     1      15.314   9.178   4.435  0.00  0.00    -0.027 A 
ATOM     30  C   UNL     1      15.729   9.471   5.734  0.00  0.00    +0.005 A 
ATOM     31  C   UNL     1      14.064   9.607   3.990  0.00  0.00    +0.005 A 
ATOM     34  C   UNL     1      14.895  10.192   6.588  0.00  0.00    +0.000 A 
ATOM     35  C   UNL     1      13.229  10.328   4.844  0.00  0.00    +0.000 A 
ATOM     36  C   UNL     1      13.645  10.620   6.143  0.00  0.00    +0.000 A 
ENDBRANCH  25  28
ENDBRANCH   7  25
ENDBRANCH  22  23
ENDBRANCH  12  22
BRANCH  26  29
ATOM     29  C   UNL     1      11.416   6.704   7.607  0.00  0.00    +0.096 C 
BRANCH  29  32
ATOM     32  C   UNL     1      10.030   7.346   7.572  0.00  0.00    +0.009 C 
BRANCH  32  33
ATOM     33  C   UNL     1       9.043   6.589   8.461  0.00  0.00    +0.000 C 
BRANCH  33  37
ATOM     37  C   UNL     1       9.545   5.179   8.774  0.00  0.00    -0.003 C 
ATOM     38  C   UNL     1       9.055   4.703  10.132  0.00  0.00    +0.004 C 
ENDBRANCH  33  37
ENDBRANCH  32  33
ENDBRANCH  29  32
ENDBRANCH  26  29
TORSDOF 11
ENDMDL
MODEL 8
REMARK VINA RESULT:      -6.5     26.311     30.494
REMARK  Name = 11885097
REMARK  15 active torsions:
REMARK  status: ('A' for Active; 'I' for Inactive)
REMARK    1  A    between atoms: O_2  and  C_14
REMARK    2  A    between atoms: O_3  and  C_19
REMARK    3  A    between atoms: N_7  and  C_25
REMARK    4  A    between atoms: C_9  and  C_17
REMARK    5  A    between atoms: C_11  and  C_19
REMARK    6  A    between atoms: C_11  and  C_20
REMARK    7  A    between atoms: C_12  and  C_22
REMARK    8  A    between atoms: C_22  and  C_23
REMARK    9  A    between atoms: C_25  and  C_27
REMARK   10  A    between atoms: C_25  and  C_28
REMARK   11  A    between atoms: C_26  and  C_29
REMARK   12  A    between atoms: C_29  and  C_32
REMARK   13  A    between atoms: C_32  and  C_33
REMARK   14  A    between atoms: C_33  and  C_37
REMARK   15  A    between atoms: C_37  and  C_38
REMARK                            x       y       z     vdW  Elec       q    Type
REMARK                         _______ _______ _______ _____ _____    ______ ____
ROOT
ATOM      1  S   UNL     1      -7.224 -10.359  11.444  0.00  0.00    -0.057 S 
ATOM      5  O   UNL     1     -11.369  -9.034  13.113  0.00  0.00    -0.275 OA
ATOM      6  N   UNL     1      -8.569  -9.881  13.601  0.00  0.00    -0.229 NA
ATOM      8  N   UNL     1      -9.729  -9.588  11.509  0.00  0.00    -0.265 N 
ATOM      9  C   UNL     1      -5.546 -11.172  15.617  0.00  0.00    -0.019 C 
ATOM     10  C   UNL     1      -4.503 -10.680  14.518  0.00  0.00    +0.011 C 
ATOM     11  C   UNL     1      -2.990 -11.058  14.747  0.00  0.00    +0.021 C 
ATOM     12  C   UNL     1      -6.892 -10.331  15.431  0.00  0.00    +0.054 C 
ATOM     13  C   UNL     1      -4.980 -10.882  17.031  0.00  0.00    +0.010 C 
ATOM     14  C   UNL     1      -2.602 -10.749  16.221  0.00  0.00    +0.123 C 
ATOM     15  C   UNL     1      -5.013 -10.978  13.078  0.00  0.00    +0.049 C 
ATOM     16  C   UNL     1      -3.553 -11.372  17.236  0.00  0.00    +0.032 C 
ATOM     17  C   UNL     1      -5.864 -12.684  15.509  0.00  0.00    +0.012 C 
ATOM     18  C   UNL     1      -7.298 -10.273  13.981  0.00  0.00    +0.058 A 
ATOM     20  C   UNL     1      -2.100 -10.164  13.837  0.00  0.00    +0.016 C 
ATOM     21  C   UNL     1      -6.435 -10.549  12.941  0.00  0.00    +0.015 A 
ATOM     24  C   UNL     1      -8.647  -9.898  12.288  0.00  0.00    +0.165 A 
ATOM     26  C   UNL     1     -11.003  -9.182  11.952  0.00  0.00    +0.219 C 
ATOM     42  H   UNL     1      -9.575  -9.666  10.508  0.00  0.00    +0.157 HD
ENDROOT
BRANCH  14   2
ATOM      2  O   UNL     1      -1.277 -11.199  16.498  0.00  0.00    -0.391 OA
ATOM     39  H   UNL     1      -0.710 -10.414  16.583  0.00  0.00    +0.210 HD
ENDBRANCH  14   2
BRANCH  11  19
ATOM     19  C   UNL     1      -2.630 -12.515  14.378  0.00  0.00    +0.165 C 
BRANCH  19   3
ATOM      3  O   UNL     1      -1.372 -12.501  13.742  0.00  0.00    -0.394 OA
ATOM     40  H   UNL     1      -1.066 -13.422  13.683  0.00  0.00    +0.209 HD
ENDBRANCH  19   3
ENDBRANCH  11  19
BRANCH  12  22
ATOM     22  C   UNL     1      -8.055 -10.784  16.322  0.00  0.00    +0.106 C 
BRANCH  22  23
ATOM      4  O   UNL     1      -8.034  -8.748  17.628  0.00  0.00    -0.276 OA
ATOM      7  N   UNL     1     -10.066  -9.708  17.035  0.00  0.00    -0.309 N 
ATOM     23  C   UNL     1      -8.682  -9.629  17.070  0.00  0.00    +0.214 C 
ATOM     41  H   UNL     1     -10.501 -10.452  16.498  0.00  0.00    +0.149 HD
BRANCH   7  25
ATOM     25  C   UNL     1     -10.927  -8.737  17.669  0.00  0.00    +0.100 C 
ATOM     27  C   UNL     1     -11.979  -9.446  18.521  0.00  0.00    +0.033 C 
BRANCH  25  28
ATOM     28  C   UNL     1     -11.539  -7.794  16.657  0.00  0.00    -0.027 A 
ATOM     30  C   UNL     1     -12.863  -7.967  16.253  0.00  0.00    +0.005 A 
ATOM     31  C   UNL     1     -10.780  -6.750  16.128  0.00  0.00    +0.005 A 
ATOM     34  C   UNL     1     -13.428  -7.098  15.320  0.00  0.00    +0.000 A 
ATOM     35  C   UNL     1     -11.345  -5.881  15.194  0.00  0.00    +0.000 A 
ATOM     36  C   UNL     1     -12.669  -6.055  14.791  0.00  0.00    +0.000 A 
ENDBRANCH  25  28
ENDBRANCH   7  25
ENDBRANCH  22  23
ENDBRANCH  12  22
BRANCH  26  29
ATOM     29  C   UNL     1     -11.938  -8.928  10.777  0.00  0.00    +0.096 C 
BRANCH  29  32
ATOM     32  C   UNL     1     -12.405  -7.476  10.699  0.00  0.00    +0.009 C 
BRANCH  32  33
ATOM     33  C   UNL     1     -13.749  -7.284  11.403  0.00  0.00    +0.000 C 
BRANCH  33  37
ATOM     37  C   UNL     1     -14.215  -5.830  11.325  0.00  0.00    -0.003 C 
ATOM     38  C   UNL     1     -15.391  -5.573  12.253  0.00  0.00    +0.004 C 
ENDBRANCH  33  37
ENDBRANCH  32  33
ENDBRANCH  29  32
ENDBRANCH  26  29
TORSDOF 11
ENDMDL
MODEL 9
REMARK VINA RESULT:      -6.5     25.458     29.952
REMARK  Name = 11885097
REMARK  15 active torsions:
REMARK  status: ('A' for Active; 'I' for Inactive)
REMARK    1  A    between atoms: O_2  and  C_14
REMARK    2  A    between atoms: O_3  and  C_19
REMARK    3  A    between atoms: N_7  and  C_25
REMARK    4  A    between atoms: C_9  and  C_17
REMARK    5  A    between atoms: C_11  and  C_19
REMARK    6  A    between atoms: C_11  and  C_20
REMARK    7  A    between atoms: C_12  and  C_22
REMARK    8  A    between atoms: C_22  and  C_23
REMARK    9  A    between atoms: C_25  and  C_27
REMARK   10  A    between atoms: C_25  and  C_28
REMARK   11  A    between atoms: C_26  and  C_29
REMARK   12  A    between atoms: C_29  and  C_32
REMARK   13  A    between atoms: C_32  and  C_33
REMARK   14  A    between atoms: C_33  and  C_37
REMARK   15  A    between atoms: C_37  and  C_38
REMARK                            x       y       z     vdW  Elec       q    Type
REMARK                         _______ _______ _______ _____ _____    ______ ____
ROOT
ATOM      1  S   UNL     1     -10.361 -10.162  13.839  0.00  0.00    -0.057 S 
ATOM      5  O   UNL     1      -7.078  -9.335  10.635  0.00  0.00    -0.275 OA
ATOM      6  N   UNL     1      -7.815 -10.181  13.381  0.00  0.00    -0.229 NA
ATOM      8  N   UNL     1      -9.241  -9.493  11.564  0.00  0.00    -0.265 N 
ATOM      9  C   UNL     1      -7.283 -11.007  17.110  0.00  0.00    -0.019 C 
ATOM     10  C   UNL     1      -8.659 -11.801  17.211  0.00  0.00    +0.011 C 
ATOM     11  C   UNL     1      -9.083 -12.320  18.639  0.00  0.00    +0.021 C 
ATOM     12  C   UNL     1      -6.847 -10.971  15.573  0.00  0.00    +0.054 C 
ATOM     13  C   UNL     1      -6.191 -11.765  17.909  0.00  0.00    +0.010 C 
ATOM     14  C   UNL     1      -7.865 -13.008  19.316  0.00  0.00    +0.123 C 
ATOM     15  C   UNL     1      -9.798 -11.063  16.449  0.00  0.00    +0.049 C 
ATOM     16  C   UNL     1      -6.611 -12.140  19.323  0.00  0.00    +0.032 C 
ATOM     17  C   UNL     1      -7.381  -9.560  17.651  0.00  0.00    +0.012 C 
ATOM     18  C   UNL     1      -8.006 -10.583  14.690  0.00  0.00    +0.058 A 
ATOM     20  C   UNL     1     -10.194 -13.397  18.478  0.00  0.00    +0.016 C 
ATOM     21  C   UNL     1      -9.322 -10.649  15.097  0.00  0.00    +0.015 A 
ATOM     24  C   UNL     1      -8.985  -9.925  12.838  0.00  0.00    +0.165 A 
ATOM     26  C   UNL     1      -8.296  -9.227  10.554  0.00  0.00    +0.219 C 
ATOM     42  H   UNL     1     -10.224  -9.356  11.346  0.00  0.00    +0.157 HD
ENDROOT
BRANCH  14   2
ATOM      2  O   UNL     1      -8.176 -13.374  20.659  0.00  0.00    -0.391 OA
ATOM     39  H   UNL     1      -8.266 -12.556  21.176  0.00  0.00    +0.210 HD
ENDBRANCH  14   2
BRANCH  11  19
ATOM     19  C   UNL     1      -9.686 -11.236  19.561  0.00  0.00    +0.165 C 
BRANCH  19   3
ATOM      3  O   UNL     1     -10.493 -11.884  20.518  0.00  0.00    -0.394 OA
ATOM     40  H   UNL     1     -10.117 -12.769  20.664  0.00  0.00    +0.209 HD
ENDBRANCH  19   3
ENDBRANCH  11  19
BRANCH  12  22
ATOM     22  C   UNL     1      -5.608 -10.114  15.281  0.00  0.00    +0.106 C 
BRANCH  22  23
ATOM      4  O   UNL     1      -3.954 -11.851  14.970  0.00  0.00    -0.276 OA
ATOM      7  N   UNL     1      -4.367 -10.341  13.252  0.00  0.00    -0.309 N 
ATOM     23  C   UNL     1      -4.555 -10.882  14.515  0.00  0.00    +0.214 C 
ATOM     41  H   UNL     1      -4.957  -9.568  12.957  0.00  0.00    +0.149 HD
BRANCH   7  25
ATOM     25  C   UNL     1      -3.418 -10.871  12.300  0.00  0.00    +0.100 C 
ATOM     27  C   UNL     1      -2.010 -10.382  12.634  0.00  0.00    +0.033 C 
BRANCH  25  28
ATOM     28  C   UNL     1      -3.823 -10.550  10.878  0.00  0.00    -0.027 A 
ATOM     30  C   UNL     1      -4.372 -11.544  10.068  0.00  0.00    +0.005 A 
ATOM     31  C   UNL     1      -3.647  -9.260  10.376  0.00  0.00    +0.005 A 
ATOM     34  C   UNL     1      -4.745 -11.250   8.756  0.00  0.00    +0.000 A 
ATOM     35  C   UNL     1      -4.021  -8.966   9.065  0.00  0.00    +0.000 A 
ATOM     36  C   UNL     1      -4.570  -9.960   8.256  0.00  0.00    +0.000 A 
ENDBRANCH  25  28
ENDBRANCH   7  25
ENDBRANCH  22  23
ENDBRANCH  12  22
BRANCH  26  29
ATOM     29  C   UNL     1      -8.977  -8.766   9.272  0.00  0.00    +0.096 C 
BRANCH  29  32
ATOM     32  C   UNL     1      -8.432  -9.468   8.030  0.00  0.00    +0.009 C 
BRANCH  32  33
ATOM     33  C   UNL     1      -7.790  -8.472   7.064  0.00  0.00    +0.000 C 
BRANCH  33  37
ATOM     37  C   UNL     1      -8.520  -7.129   7.084  0.00  0.00    -0.003 C 
ATOM     38  C   UNL     1      -9.590  -7.061   6.006  0.00  0.00    +0.004 C 
ENDBRANCH  33  37
ENDBRANCH  32  33
ENDBRANCH  29  32
ENDBRANCH  26  29
TORSDOF 11
ENDMDL
MODEL 10
REMARK VINA RESULT:      -6.4      3.037      9.047
REMARK  Name = 11885097
REMARK  15 active torsions:
REMARK  status: ('A' for Active; 'I' for Inactive)
REMARK    1  A    between atoms: O_2  and  C_14
REMARK    2  A    between atoms: O_3  and  C_19
REMARK    3  A    between atoms: N_7  and  C_25
REMARK    4  A    between atoms: C_9  and  C_17
REMARK    5  A    between atoms: C_11  and  C_19
REMARK    6  A    between atoms: C_11  and  C_20
REMARK    7  A    between atoms: C_12  and  C_22
REMARK    8  A    between atoms: C_22  and  C_23
REMARK    9  A    between atoms: C_25  and  C_27
REMARK   10  A    between atoms: C_25  and  C_28
REMARK   11  A    between atoms: C_26  and  C_29
REMARK   12  A    between atoms: C_29  and  C_32
REMARK   13  A    between atoms: C_32  and  C_33
REMARK   14  A    between atoms: C_33  and  C_37
REMARK   15  A    between atoms: C_37  and  C_38
REMARK                            x       y       z     vdW  Elec       q    Type
REMARK                         _______ _______ _______ _____ _____    ______ ____
ROOT
ATOM      1  S   UNL     1      15.589   7.216   1.376  0.00  0.00    -0.057 S 
ATOM      5  O   UNL     1      12.239   4.151   2.430  0.00  0.00    -0.275 OA
ATOM      6  N   UNL     1      13.847   6.533   3.163  0.00  0.00    -0.229 NA
ATOM      8  N   UNL     1      13.948   5.180   1.170  0.00  0.00    -0.265 N 
ATOM      9  C   UNL     1      15.334   9.249   5.461  0.00  0.00    -0.019 C 
ATOM     10  C   UNL     1      15.740  10.177   4.233  0.00  0.00    +0.011 C 
ATOM     11  C   UNL     1      16.556  11.486   4.563  0.00  0.00    +0.021 C 
ATOM     12  C   UNL     1      14.178   8.261   4.971  0.00  0.00    +0.054 C 
ATOM     13  C   UNL     1      14.771  10.129   6.608  0.00  0.00    +0.010 C 
ATOM     14  C   UNL     1      15.886  12.219   5.759  0.00  0.00    +0.123 C 
ATOM     15  C   UNL     1      16.341   9.343   3.064  0.00  0.00    +0.049 C 
ATOM     16  C   UNL     1      15.656  11.315   6.966  0.00  0.00    +0.032 C 
ATOM     17  C   UNL     1      16.522   8.420   6.008  0.00  0.00    +0.012 C 
ATOM     18  C   UNL     1      14.523   7.641   3.641  0.00  0.00    +0.058 A 
ATOM     20  C   UNL     1      16.494  12.445   3.340  0.00  0.00    +0.016 C 
ATOM     21  C   UNL     1      15.484   8.153   2.794  0.00  0.00    +0.015 A 
ATOM     24  C   UNL     1      14.330   6.216   1.981  0.00  0.00    +0.165 A 
ATOM     26  C   UNL     1      12.946   4.225   1.432  0.00  0.00    +0.219 C 
ATOM     42  H   UNL     1      14.454   5.113   0.292  0.00  0.00    +0.157 HD
ENDROOT
BRANCH  14   2
ATOM      2  O   UNL     1      16.670  13.338   6.168  0.00  0.00    -0.391 OA
ATOM     39  H   UNL     1      17.605  13.110   6.031  0.00  0.00    +0.210 HD
ENDBRANCH  14   2
BRANCH  11  19
ATOM     19  C   UNL     1      18.059  11.253   4.833  0.00  0.00    +0.165 C 
BRANCH  19   3
ATOM      3  O   UNL     1      18.763  12.375   4.350  0.00  0.00    -0.394 OA
ATOM     40  H   UNL     1      19.154  12.825   5.119  0.00  0.00    +0.209 HD
ENDBRANCH  19   3
ENDBRANCH  11  19
BRANCH  12  22
ATOM     22  C   UNL     1      13.770   7.197   5.998  0.00  0.00    +0.106 C 
BRANCH  22  23
ATOM      4  O   UNL     1      11.679   7.937   6.963  0.00  0.00    -0.276 OA
ATOM      7  N   UNL     1      11.686   6.151   5.475  0.00  0.00    -0.309 N 
ATOM     23  C   UNL     1      12.275   7.164   6.218  0.00  0.00    +0.214 C 
ATOM     41  H   UNL     1      12.267   5.601   4.849  0.00  0.00    +0.149 HD
BRANCH   7  25
ATOM     25  C   UNL     1      10.267   5.884   5.491  0.00  0.00    +0.100 C 
ATOM     27  C   UNL     1      10.008   4.404   5.217  0.00  0.00    +0.033 C 
BRANCH  25  28
ATOM     28  C   UNL     1       9.521   6.791   4.537  0.00  0.00    -0.027 A 
ATOM     30  C   UNL     1       8.495   7.608   5.010  0.00  0.00    +0.005 A 
ATOM     31  C   UNL     1       9.861   6.811   3.184  0.00  0.00    +0.005 A 
ATOM     34  C   UNL     1       7.807   8.445   4.131  0.00  0.00    +0.000 A 
ATOM     35  C   UNL     1       9.173   7.648   2.305  0.00  0.00    +0.000 A 
ATOM     36  C   UNL     1       8.146   8.464   2.779  0.00  0.00    +0.000 A 
ENDBRANCH  25  28
ENDBRANCH   7  25
ENDBRANCH  22  23
ENDBRANCH  12  22
BRANCH  26  29
ATOM     29  C   UNL     1      12.818   3.235   0.282  0.00  0.00    +0.096 C 
BRANCH  29  32
ATOM     32  C   UNL     1      13.517   3.714  -0.989  0.00  0.00    +0.009 C 
BRANCH  32  33
ATOM     33  C   UNL     1      12.607   3.579  -2.210  0.00  0.00    +0.000 C 
BRANCH  33  37
ATOM     37  C   UNL     1      12.023   2.170  -2.315  0.00  0.00    -0.003 C 
ATOM     38  C   UNL     1      10.635   2.188  -2.933  0.00  0.00    +0.004 C 
ENDBRANCH  33  37
ENDBRANCH  32  33
ENDBRANCH  29  32
ENDBRANCH  26  29
TORSDOF 11
ENDMDL
