MODEL 1
REMARK VINA RESULT:      -7.6      0.000      0.000
REMARK  Name = 45783334
REMARK  5 active torsions:
REMARK  status: ('A' for Active; 'I' for Inactive)
REMARK    1  A    between atoms: N_3  and  C_18
REMARK    2  A    between atoms: C_11  and  C_21
REMARK    3  A    between atoms: C_15  and  C_24
REMARK    4  A    between atoms: C_18  and  C_23
REMARK    5  A    between atoms: C_25  and  C_27
REMARK                            x       y       z     vdW  Elec       q    Type
REMARK                         _______ _______ _______ _____ _____    ______ ____
ROOT
ATOM      1  O   UNL     1      10.935   6.979   3.868  0.00  0.00    -0.336 OA
ATOM      5  N   UNL     1      10.780   4.761   3.599  0.00  0.00    -0.190 NA
ATOM      7  N   UNL     1      11.563   6.689   2.649  0.00  0.00    -0.056 NA
ATOM     21  C   UNL     1      10.504   5.789   4.361  0.00  0.00    +0.245 A 
ATOM     25  C   UNL     1      11.430   5.362   2.561  0.00  0.00    +0.202 A 
ENDROOT
BRANCH  25  27
ATOM      4  N   UNL     1      10.874   3.479  -1.849  0.00  0.00    -0.315 N 
ATOM      8  N   UNL     1      12.924   3.138  -0.714  0.00  0.00    -0.240 NA
ATOM     15  C   UNL     1       9.229   3.019  -4.197  0.00  0.00    +0.078 C 
ATOM     16  C   UNL     1       9.793   1.868  -3.365  0.00  0.00    +0.031 C 
ATOM     17  C   UNL     1       9.115   4.297  -3.370  0.00  0.00    +0.031 C 
ATOM     19  C   UNL     1      11.073   2.245  -2.620  0.00  0.00    +0.107 C 
ATOM     20  C   UNL     1      10.392   4.642  -2.600  0.00  0.00    +0.107 C 
ATOM     22  C   UNL     1      11.682   3.673  -0.722  0.00  0.00    +0.122 A 
ATOM     26  C   UNL     1      11.147   4.408   0.323  0.00  0.00    +0.055 A 
ATOM     27  C   UNL     1      11.936   4.607   1.450  0.00  0.00    +0.027 A 
ATOM     28  C   UNL     1      13.219   4.072   1.497  0.00  0.00    +0.031 A 
ATOM     29  C   UNL     1      13.662   3.352   0.399  0.00  0.00    +0.113 A 
BRANCH  15  24
ATOM      2  O   UNL     1      10.890   4.136  -5.507  0.00  0.00    -0.276 OA
ATOM     10  N   UNL     1       9.783   2.350  -6.446  0.00  0.00    -0.329 N 
ATOM     24  C   UNL     1      10.059   3.235  -5.429  0.00  0.00    +0.214 C 
ATOM     33  H   UNL     1      10.284   2.401  -7.325  0.00  0.00    +0.145 HD
ATOM     34  H   UNL     1       9.049   1.652  -6.386  0.00  0.00    +0.145 HD
ENDBRANCH  15  24
ENDBRANCH  25  27
BRANCH  21  11
ATOM      3  N   UNL     1      10.325   6.860   6.600  0.00  0.00    -0.284 NA
ATOM     11  C   UNL     1       9.780   5.832   5.691  0.00  0.00    +0.146 C 
ATOM     12  C   UNL     1       8.289   6.190   5.544  0.00  0.00    +0.030 C 
ATOM     13  C   UNL     1       8.078   7.391   6.454  0.00  0.00    +0.017 C 
ATOM     14  C   UNL     1       9.215   7.289   7.451  0.00  0.00    +0.085 C 
BRANCH   3  18
ATOM     18  C   UNL     1      11.463   6.392   7.379  0.00  0.00    +0.159 C 
BRANCH  18  23
ATOM      6  N   UNL     1      13.914   6.424   6.858  0.00  0.00    -0.347 N 
ATOM      9  N   UNL     1      12.879   8.388   6.763  0.00  0.00    -0.239 NA
ATOM     23  C   UNL     1      12.735   7.102   6.998  0.00  0.00    +0.121 A 
ATOM     30  C   UNL     1      14.871   7.336   6.511  0.00  0.00    +0.104 A 
ATOM     31  C   UNL     1      14.209   8.540   6.459  0.00  0.00    +0.130 A 
ATOM     32  H   UNL     1      14.055   5.431   6.984  0.00  0.00    +0.167 HD
ENDBRANCH  18  23
ENDBRANCH   3  18
ENDBRANCH  21  11
TORSDOF 5
ENDMDL
MODEL 2
REMARK VINA RESULT:      -7.6     17.725     21.748
REMARK  Name = 45783334
REMARK  5 active torsions:
REMARK  status: ('A' for Active; 'I' for Inactive)
REMARK    1  A    between atoms: N_3  and  C_18
REMARK    2  A    between atoms: C_11  and  C_21
REMARK    3  A    between atoms: C_15  and  C_24
REMARK    4  A    between atoms: C_18  and  C_23
REMARK    5  A    between atoms: C_25  and  C_27
REMARK                            x       y       z     vdW  Elec       q    Type
REMARK                         _______ _______ _______ _____ _____    ______ ____
ROOT
ATOM      1  O   UNL     1      15.368   8.864  20.951  0.00  0.00    -0.336 OA
ATOM      5  N   UNL     1      16.765   7.229  20.326  0.00  0.00    -0.190 NA
ATOM      7  N   UNL     1      16.601   9.155  21.549  0.00  0.00    -0.056 NA
ATOM     21  C   UNL     1      15.552   7.714  20.251  0.00  0.00    +0.245 A 
ATOM     25  C   UNL     1      17.373   8.146  21.133  0.00  0.00    +0.202 A 
ENDROOT
BRANCH  25  27
ATOM      4  N   UNL     1      21.306   5.451  21.886  0.00  0.00    -0.315 N 
ATOM      8  N   UNL     1      21.443   7.789  22.232  0.00  0.00    -0.240 NA
ATOM     15  C   UNL     1      22.599   2.852  21.945  0.00  0.00    +0.078 C 
ATOM     16  C   UNL     1      22.508   3.739  23.185  0.00  0.00    +0.031 C 
ATOM     17  C   UNL     1      21.492   3.179  20.947  0.00  0.00    +0.031 C 
ATOM     19  C   UNL     1      22.395   5.225  22.845  0.00  0.00    +0.107 C 
ATOM     20  C   UNL     1      21.365   4.674  20.645  0.00  0.00    +0.107 C 
ATOM     22  C   UNL     1      20.702   6.714  21.882  0.00  0.00    +0.122 A 
ATOM     26  C   UNL     1      19.368   6.777  21.515  0.00  0.00    +0.055 A 
ATOM     27  C   UNL     1      18.753   8.024  21.507  0.00  0.00    +0.027 A 
ATOM     28  C   UNL     1      19.482   9.154  21.862  0.00  0.00    +0.031 A 
ATOM     29  C   UNL     1      20.812   8.984  22.214  0.00  0.00    +0.113 A 
BRANCH  15  24
ATOM      2  O   UNL     1      24.906   3.484  21.895  0.00  0.00    -0.276 OA
ATOM     10  N   UNL     1      24.020   2.449  20.040  0.00  0.00    -0.329 N 
ATOM     24  C   UNL     1      23.956   2.963  21.315  0.00  0.00    +0.214 C 
ATOM     33  H   UNL     1      24.888   2.469  19.517  0.00  0.00    +0.145 HD
ATOM     34  H   UNL     1      23.210   2.079  19.554  0.00  0.00    +0.145 HD
ENDBRANCH  15  24
ENDBRANCH  25  27
BRANCH  21  11
ATOM      3  N   UNL     1      13.110   7.919  19.818  0.00  0.00    -0.284 NA
ATOM     11  C   UNL     1      14.349   7.181  19.501  0.00  0.00    +0.146 C 
ATOM     12  C   UNL     1      14.499   7.305  17.974  0.00  0.00    +0.030 C 
ATOM     13  C   UNL     1      13.267   8.073  17.515  0.00  0.00    +0.017 C 
ATOM     14  C   UNL     1      12.265   7.838  18.627  0.00  0.00    +0.085 C 
BRANCH   3  18
ATOM     18  C   UNL     1      12.432   7.419  21.006  0.00  0.00    +0.159 C 
BRANCH  18  23
ATOM      6  N   UNL     1      12.741   9.500  22.368  0.00  0.00    -0.347 N 
ATOM      9  N   UNL     1      10.660   8.733  22.232  0.00  0.00    -0.239 NA
ATOM     23  C   UNL     1      11.908   8.538  21.867  0.00  0.00    +0.121 A 
ATOM     30  C   UNL     1      11.975  10.363  23.099  0.00  0.00    +0.104 A 
ATOM     31  C   UNL     1      10.695   9.869  23.002  0.00  0.00    +0.130 A 
ATOM     32  H   UNL     1      13.739   9.564  22.224  0.00  0.00    +0.167 HD
ENDBRANCH  18  23
ENDBRANCH   3  18
ENDBRANCH  21  11
TORSDOF 5
ENDMDL
MODEL 3
REMARK VINA RESULT:      -7.3     24.207     26.315
REMARK  Name = 45783334
REMARK  5 active torsions:
REMARK  status: ('A' for Active; 'I' for Inactive)
REMARK    1  A    between atoms: N_3  and  C_18
REMARK    2  A    between atoms: C_11  and  C_21
REMARK    3  A    between atoms: C_15  and  C_24
REMARK    4  A    between atoms: C_18  and  C_23
REMARK    5  A    between atoms: C_25  and  C_27
REMARK                            x       y       z     vdW  Elec       q    Type
REMARK                         _______ _______ _______ _____ _____    ______ ____
ROOT
ATOM      1  O   UNL     1      -3.859 -11.023  17.758  0.00  0.00    -0.336 OA
ATOM      5  N   UNL     1      -5.204 -10.408  16.076  0.00  0.00    -0.190 NA
ATOM      7  N   UNL     1      -3.085 -11.097  16.593  0.00  0.00    -0.056 NA
ATOM     21  C   UNL     1      -5.093 -10.611  17.364  0.00  0.00    +0.245 A 
ATOM     25  C   UNL     1      -3.948 -10.720  15.645  0.00  0.00    +0.202 A 
ENDROOT
BRANCH  25  27
ATOM      4  N   UNL     1      -5.175 -10.312  10.994  0.00  0.00    -0.315 N 
ATOM      8  N   UNL     1      -2.883 -10.496  11.556  0.00  0.00    -0.240 NA
ATOM     15  C   UNL     1      -7.218 -10.074   8.945  0.00  0.00    +0.078 C 
ATOM     16  C   UNL     1      -6.231 -11.239   8.972  0.00  0.00    +0.031 C 
ATOM     17  C   UNL     1      -7.392  -9.461  10.332  0.00  0.00    +0.031 C 
ATOM     19  C   UNL     1      -4.917 -10.889   9.669  0.00  0.00    +0.107 C 
ATOM     20  C   UNL     1      -6.067  -9.150  11.032  0.00  0.00    +0.107 C 
ATOM     22  C   UNL     1      -4.171 -10.443  11.961  0.00  0.00    +0.122 A 
ATOM     26  C   UNL     1      -4.572 -10.512  13.285  0.00  0.00    +0.055 A 
ATOM     27  C   UNL     1      -3.587 -10.645  14.257  0.00  0.00    +0.027 A 
ATOM     28  C   UNL     1      -2.250 -10.703  13.881  0.00  0.00    +0.031 A 
ATOM     29  C   UNL     1      -1.953 -10.625  12.529  0.00  0.00    +0.113 A 
BRANCH  15  24
ATOM      2  O   UNL     1      -6.092  -9.327   6.971  0.00  0.00    -0.276 OA
ATOM     10  N   UNL     1      -7.235  -7.773   8.224  0.00  0.00    -0.329 N 
ATOM     24  C   UNL     1      -6.790  -9.044   7.941  0.00  0.00    +0.214 C 
ATOM     33  H   UNL     1      -7.008  -6.997   7.614  0.00  0.00    +0.145 HD
ATOM     34  H   UNL     1      -7.759  -7.547   9.064  0.00  0.00    +0.145 HD
ENDBRANCH  15  24
ENDBRANCH  25  27
BRANCH  21  11
ATOM      3  N   UNL     1      -7.512 -10.524  17.941  0.00  0.00    -0.284 NA
ATOM     11  C   UNL     1      -6.130 -10.449  18.456  0.00  0.00    +0.146 C 
ATOM     12  C   UNL     1      -6.049 -11.557  19.522  0.00  0.00    +0.030 C 
ATOM     13  C   UNL     1      -7.447 -12.156  19.579  0.00  0.00    +0.017 C 
ATOM     14  C   UNL     1      -8.330 -11.054  19.031  0.00  0.00    +0.085 C 
BRANCH   3  18
ATOM     18  C   UNL     1      -8.012  -9.245  17.452  0.00  0.00    +0.159 C 
BRANCH  18  23
ATOM      6  N   UNL     1      -7.796  -9.549  14.974  0.00  0.00    -0.347 N 
ATOM      9  N   UNL     1      -9.866  -9.305  15.741  0.00  0.00    -0.239 NA
ATOM     23  C   UNL     1      -8.594  -9.362  16.068  0.00  0.00    +0.121 A 
ATOM     30  C   UNL     1      -8.611  -9.615  13.880  0.00  0.00    +0.104 A 
ATOM     31  C   UNL     1      -9.883  -9.461  14.378  0.00  0.00    +0.130 A 
ATOM     32  H   UNL     1      -6.788  -9.626  14.972  0.00  0.00    +0.167 HD
ENDBRANCH  18  23
ENDBRANCH   3  18
ENDBRANCH  21  11
TORSDOF 5
ENDMDL
MODEL 4
REMARK VINA RESULT:      -7.0      1.429      2.253
REMARK  Name = 45783334
REMARK  5 active torsions:
REMARK  status: ('A' for Active; 'I' for Inactive)
REMARK    1  A    between atoms: N_3  and  C_18
REMARK    2  A    between atoms: C_11  and  C_21
REMARK    3  A    between atoms: C_15  and  C_24
REMARK    4  A    between atoms: C_18  and  C_23
REMARK    5  A    between atoms: C_25  and  C_27
REMARK                            x       y       z     vdW  Elec       q    Type
REMARK                         _______ _______ _______ _____ _____    ______ ____
ROOT
ATOM      1  O   UNL     1      11.078   7.157   3.634  0.00  0.00    -0.336 OA
ATOM      5  N   UNL     1      10.492   5.027   3.267  0.00  0.00    -0.190 NA
ATOM      7  N   UNL     1      11.763   6.758   2.479  0.00  0.00    -0.056 NA
ATOM     21  C   UNL     1      10.355   6.079   4.034  0.00  0.00    +0.245 A 
ATOM     25  C   UNL     1      11.366   5.492   2.327  0.00  0.00    +0.202 A 
ENDROOT
BRANCH  25  27
ATOM      4  N   UNL     1      10.732   3.549  -2.046  0.00  0.00    -0.315 N 
ATOM      8  N   UNL     1      12.716   3.050  -0.855  0.00  0.00    -0.240 NA
ATOM     15  C   UNL     1       9.102   3.179  -4.421  0.00  0.00    +0.078 C 
ATOM     16  C   UNL     1       9.538   2.004  -3.547  0.00  0.00    +0.031 C 
ATOM     17  C   UNL     1       9.089   4.484  -3.629  0.00  0.00    +0.031 C 
ATOM     19  C   UNL     1      10.831   2.281  -2.781  0.00  0.00    +0.107 C 
ATOM     20  C   UNL     1      10.376   4.730  -2.838  0.00  0.00    +0.107 C 
ATOM     22  C   UNL     1      11.529   3.697  -0.906  0.00  0.00    +0.122 A 
ATOM     26  C   UNL     1      11.043   4.507   0.107  0.00  0.00    +0.055 A 
ATOM     27  C   UNL     1      11.823   4.663   1.248  0.00  0.00    +0.027 A 
ATOM     28  C   UNL     1      13.049   4.013   1.339  0.00  0.00    +0.031 A 
ATOM     29  C   UNL     1      13.446   3.225   0.270  0.00  0.00    +0.113 A 
BRANCH  15  24
ATOM      2  O   UNL     1      10.741   4.226  -5.812  0.00  0.00    -0.276 OA
ATOM     10  N   UNL     1       9.814   2.246  -6.526  0.00  0.00    -0.329 N 
ATOM     24  C   UNL     1       9.974   3.283  -5.637  0.00  0.00    +0.214 C 
ATOM     33  H   UNL     1      10.353   2.211  -7.384  0.00  0.00    +0.145 HD
ATOM     34  H   UNL     1       9.130   1.508  -6.395  0.00  0.00    +0.145 HD
ENDBRANCH  15  24
ENDBRANCH  25  27
BRANCH  21  11
ATOM      3  N   UNL     1      10.185   7.075   6.308  0.00  0.00    -0.284 NA
ATOM     11  C   UNL     1       9.513   6.255   5.280  0.00  0.00    +0.146 C 
ATOM     12  C   UNL     1       8.186   6.986   5.002  0.00  0.00    +0.030 C 
ATOM     13  C   UNL     1       8.175   8.167   5.963  0.00  0.00    +0.017 C 
ATOM     14  C   UNL     1       9.124   7.740   7.064  0.00  0.00    +0.085 C 
BRANCH   3  18
ATOM     18  C   UNL     1      11.070   6.302   7.170  0.00  0.00    +0.159 C 
BRANCH  18  23
ATOM      6  N   UNL     1      10.237   4.146   8.137  0.00  0.00    -0.347 N 
ATOM      9  N   UNL     1       9.637   5.989   9.222  0.00  0.00    -0.239 NA
ATOM     23  C   UNL     1      10.304   5.510   8.195  0.00  0.00    +0.121 A 
ATOM     30  C   UNL     1       9.479   3.728   9.194  0.00  0.00    +0.104 A 
ATOM     31  C   UNL     1       9.120   4.882   9.849  0.00  0.00    +0.130 A 
ATOM     32  H   UNL     1      10.670   3.553   7.442  0.00  0.00    +0.167 HD
ENDBRANCH  18  23
ENDBRANCH   3  18
ENDBRANCH  21  11
TORSDOF 5
ENDMDL
MODEL 5
REMARK VINA RESULT:      -7.0     23.236     26.230
REMARK  Name = 45783334
REMARK  5 active torsions:
REMARK  status: ('A' for Active; 'I' for Inactive)
REMARK    1  A    between atoms: N_3  and  C_18
REMARK    2  A    between atoms: C_11  and  C_21
REMARK    3  A    between atoms: C_15  and  C_24
REMARK    4  A    between atoms: C_18  and  C_23
REMARK    5  A    between atoms: C_25  and  C_27
REMARK                            x       y       z     vdW  Elec       q    Type
REMARK                         _______ _______ _______ _____ _____    ______ ____
ROOT
ATOM      1  O   UNL     1      -6.289  -8.067   9.031  0.00  0.00    -0.336 OA
ATOM      5  N   UNL     1      -5.636 -10.190   9.315  0.00  0.00    -0.190 NA
ATOM      7  N   UNL     1      -5.445  -8.069  10.148  0.00  0.00    -0.056 NA
ATOM     21  C   UNL     1      -6.348  -9.355   8.602  0.00  0.00    +0.245 A 
ATOM     25  C   UNL     1      -5.101  -9.356  10.252  0.00  0.00    +0.202 A 
ENDROOT
BRANCH  25  27
ATOM      4  N   UNL     1      -4.368 -10.938  14.753  0.00  0.00    -0.315 N 
ATOM      8  N   UNL     1      -2.519 -10.788  13.283  0.00  0.00    -0.240 NA
ATOM     15  C   UNL     1      -5.396 -11.573  17.394  0.00  0.00    +0.078 C 
ATOM     16  C   UNL     1      -4.304 -10.527  17.181  0.00  0.00    +0.031 C 
ATOM     17  C   UNL     1      -6.238 -11.761  16.134  0.00  0.00    +0.031 C 
ATOM     19  C   UNL     1      -3.484 -10.774  15.914  0.00  0.00    +0.107 C 
ATOM     20  C   UNL     1      -5.403 -11.970  14.869  0.00  0.00    +0.107 C 
ATOM     22  C   UNL     1      -3.844 -10.624  13.494  0.00  0.00    +0.122 A 
ATOM     26  C   UNL     1      -4.731 -10.159  12.537  0.00  0.00    +0.055 A 
ATOM     27  C   UNL     1      -4.225  -9.841  11.281  0.00  0.00    +0.027 A 
ATOM     28  C   UNL     1      -2.867  -9.995  11.025  0.00  0.00    +0.031 A 
ATOM     29  C   UNL     1      -2.063 -10.467  12.051  0.00  0.00    +0.113 A 
BRANCH  15  24
ATOM      2  O   UNL     1      -5.139 -13.951  17.378  0.00  0.00    -0.276 OA
ATOM     10  N   UNL     1      -3.870 -12.730  18.858  0.00  0.00    -0.329 N 
ATOM     24  C   UNL     1      -4.801 -12.871  17.855  0.00  0.00    +0.214 C 
ATOM     33  H   UNL     1      -3.401 -13.540  19.247  0.00  0.00    +0.145 HD
ATOM     34  H   UNL     1      -3.649 -11.835  19.283  0.00  0.00    +0.145 HD
ENDBRANCH  15  24
ENDBRANCH  25  27
BRANCH  21  11
ATOM      3  N   UNL     1      -8.064  -8.472   7.031  0.00  0.00    -0.284 NA
ATOM     11  C   UNL     1      -7.209  -9.623   7.385  0.00  0.00    +0.146 C 
ATOM     12  C   UNL     1      -6.378  -9.897   6.118  0.00  0.00    +0.030 C 
ATOM     13  C   UNL     1      -6.880  -8.894   5.089  0.00  0.00    +0.017 C 
ATOM     14  C   UNL     1      -8.267  -8.538   5.584  0.00  0.00    +0.085 C 
BRANCH   3  18
ATOM     18  C   UNL     1      -9.325  -8.449   7.761  0.00  0.00    +0.159 C 
BRANCH  18  23
ATOM      6  N   UNL     1      -8.847  -6.079   8.419  0.00  0.00    -0.347 N 
ATOM      9  N   UNL     1     -10.988  -6.582   8.106  0.00  0.00    -0.239 NA
ATOM     23  C   UNL     1      -9.757  -7.045   8.090  0.00  0.00    +0.121 A 
ATOM     30  C   UNL     1      -9.542  -4.927   8.660  0.00  0.00    +0.104 A 
ATOM     31  C   UNL     1     -10.860  -5.263   8.461  0.00  0.00    +0.130 A 
ATOM     32  H   UNL     1      -7.844  -6.192   8.472  0.00  0.00    +0.167 HD
ENDBRANCH  18  23
ENDBRANCH   3  18
ENDBRANCH  21  11
TORSDOF 5
ENDMDL
MODEL 6
REMARK VINA RESULT:      -6.9     23.135     26.142
REMARK  Name = 45783334
REMARK  5 active torsions:
REMARK  status: ('A' for Active; 'I' for Inactive)
REMARK    1  A    between atoms: N_3  and  C_18
REMARK    2  A    between atoms: C_11  and  C_21
REMARK    3  A    between atoms: C_15  and  C_24
REMARK    4  A    between atoms: C_18  and  C_23
REMARK    5  A    between atoms: C_25  and  C_27
REMARK                            x       y       z     vdW  Elec       q    Type
REMARK                         _______ _______ _______ _____ _____    ______ ____
ROOT
ATOM      1  O   UNL     1      -5.180  -9.106   8.449  0.00  0.00    -0.336 OA
ATOM      5  N   UNL     1      -4.897 -11.037   9.548  0.00  0.00    -0.190 NA
ATOM      7  N   UNL     1      -4.388  -8.807   9.565  0.00  0.00    -0.056 NA
ATOM     21  C   UNL     1      -5.435 -10.439   8.516  0.00  0.00    +0.245 A 
ATOM     25  C   UNL     1      -4.265  -9.996  10.163  0.00  0.00    +0.202 A 
ENDROOT
BRANCH  25  27
ATOM      4  N   UNL     1      -4.085 -10.956  14.890  0.00  0.00    -0.315 N 
ATOM      8  N   UNL     1      -2.062 -10.532  13.736  0.00  0.00    -0.240 NA
ATOM     15  C   UNL     1      -5.441 -11.559  17.386  0.00  0.00    +0.078 C 
ATOM     16  C   UNL     1      -4.563 -10.320  17.221  0.00  0.00    +0.031 C 
ATOM     17  C   UNL     1      -5.974 -12.045  16.041  0.00  0.00    +0.031 C 
ATOM     19  C   UNL     1      -3.487 -10.493  16.149  0.00  0.00    +0.107 C 
ATOM     20  C   UNL     1      -4.892 -12.177  14.967  0.00  0.00    +0.107 C 
ATOM     22  C   UNL     1      -3.409 -10.649  13.703  0.00  0.00    +0.122 A 
ATOM     26  C   UNL     1      -4.175 -10.484  12.562  0.00  0.00    +0.055 A 
ATOM     27  C   UNL     1      -3.518 -10.177  11.375  0.00  0.00    +0.027 A 
ATOM     28  C   UNL     1      -2.134 -10.047  11.368  0.00  0.00    +0.031 A 
ATOM     29  C   UNL     1      -1.458 -10.233  12.564  0.00  0.00    +0.113 A 
BRANCH  15  24
ATOM      2  O   UNL     1      -4.856 -13.833  17.844  0.00  0.00    -0.276 OA
ATOM     10  N   UNL     1      -3.833 -12.178  19.072  0.00  0.00    -0.329 N 
ATOM     24  C   UNL     1      -4.691 -12.644  18.103  0.00  0.00    +0.214 C 
ATOM     33  H   UNL     1      -3.274 -12.822  19.620  0.00  0.00    +0.145 HD
ATOM     34  H   UNL     1      -3.756 -11.196  19.315  0.00  0.00    +0.145 HD
ENDBRANCH  15  24
ENDBRANCH  25  27
BRANCH  21  11
ATOM      3  N   UNL     1      -7.062  -9.990   6.687  0.00  0.00    -0.284 NA
ATOM     11  C   UNL     1      -6.286 -11.020   7.405  0.00  0.00    +0.146 C 
ATOM     12  C   UNL     1      -5.447 -11.710   6.313  0.00  0.00    +0.030 C 
ATOM     13  C   UNL     1      -5.865 -11.043   5.011  0.00  0.00    +0.017 C 
ATOM     14  C   UNL     1      -7.238 -10.483   5.321  0.00  0.00    +0.085 C 
BRANCH   3  18
ATOM     18  C   UNL     1      -8.335  -9.681   7.327  0.00  0.00    +0.159 C 
BRANCH  18  23
ATOM      6  N   UNL     1      -7.464  -7.425   7.982  0.00  0.00    -0.347 N 
ATOM      9  N   UNL     1      -9.603  -7.500   7.387  0.00  0.00    -0.239 NA
ATOM     23  C   UNL     1      -8.504  -8.203   7.555  0.00  0.00    +0.121 A 
ATOM     30  C   UNL     1      -7.929  -6.145   8.093  0.00  0.00    +0.104 A 
ATOM     31  C   UNL     1      -9.251  -6.216   7.721  0.00  0.00    +0.130 A 
ATOM     32  H   UNL     1      -6.522  -7.736   8.178  0.00  0.00    +0.167 HD
ENDBRANCH  18  23
ENDBRANCH   3  18
ENDBRANCH  21  11
TORSDOF 5
ENDMDL
MODEL 7
REMARK VINA RESULT:      -6.7      2.465      8.692
REMARK  Name = 45783334
REMARK  5 active torsions:
REMARK  status: ('A' for Active; 'I' for Inactive)
REMARK    1  A    between atoms: N_3  and  C_18
REMARK    2  A    between atoms: C_11  and  C_21
REMARK    3  A    between atoms: C_15  and  C_24
REMARK    4  A    between atoms: C_18  and  C_23
REMARK    5  A    between atoms: C_25  and  C_27
REMARK                            x       y       z     vdW  Elec       q    Type
REMARK                         _______ _______ _______ _____ _____    ______ ____
ROOT
ATOM      1  O   UNL     1      10.548   6.759  -2.974  0.00  0.00    -0.336 OA
ATOM      5  N   UNL     1      10.588   5.799  -0.951  0.00  0.00    -0.190 NA
ATOM      7  N   UNL     1      10.155   7.749  -2.065  0.00  0.00    -0.056 NA
ATOM     21  C   UNL     1      10.783   5.643  -2.236  0.00  0.00    +0.245 A 
ATOM     25  C   UNL     1      10.203   7.107  -0.894  0.00  0.00    +0.202 A 
ENDROOT
BRANCH  25  27
ATOM      4  N   UNL     1       9.471   6.896   3.872  0.00  0.00    -0.315 N 
ATOM      8  N   UNL     1       9.232   8.979   2.774  0.00  0.00    -0.240 NA
ATOM     15  C   UNL     1       9.344   5.355   6.331  0.00  0.00    +0.078 C 
ATOM     16  C   UNL     1       8.141   6.133   5.800  0.00  0.00    +0.031 C 
ATOM     17  C   UNL     1      10.317   5.004   5.208  0.00  0.00    +0.031 C 
ATOM     19  C   UNL     1       8.541   7.322   4.926  0.00  0.00    +0.107 C 
ATOM     20  C   UNL     1      10.679   6.196   4.319  0.00  0.00    +0.107 C 
ATOM     22  C   UNL     1       9.510   7.658   2.699  0.00  0.00    +0.122 A 
ATOM     26  C   UNL     1       9.833   6.998   1.525  0.00  0.00    +0.055 A 
ATOM     27  C   UNL     1       9.873   7.741   0.350  0.00  0.00    +0.027 A 
ATOM     28  C   UNL     1       9.592   9.103   0.386  0.00  0.00    +0.031 A 
ATOM     29  C   UNL     1       9.280   9.668   1.612  0.00  0.00    +0.113 A 
BRANCH  15  24
ATOM      2  O   UNL     1       9.503   7.093   7.968  0.00  0.00    -0.276 OA
ATOM     10  N   UNL     1      11.277   5.644   7.743  0.00  0.00    -0.329 N 
ATOM     24  C   UNL     1      10.025   6.122   7.427  0.00  0.00    +0.214 C 
ATOM     33  H   UNL     1      11.829   6.084   8.470  0.00  0.00    +0.145 HD
ATOM     34  H   UNL     1      11.717   4.879   7.242  0.00  0.00    +0.145 HD
ENDBRANCH  15  24
ENDBRANCH  25  27
BRANCH  21  11
ATOM      3  N   UNL     1      11.955   3.449  -2.145  0.00  0.00    -0.284 NA
ATOM     11  C   UNL     1      11.230   4.412  -2.998  0.00  0.00    +0.146 C 
ATOM     12  C   UNL     1      10.049   3.611  -3.576  0.00  0.00    +0.030 C 
ATOM     13  C   UNL     1      10.230   2.197  -3.043  0.00  0.00    +0.017 C 
ATOM     14  C   UNL     1      11.707   2.125  -2.715  0.00  0.00    +0.085 C 
BRANCH   3  18
ATOM     18  C   UNL     1      13.379   3.740  -2.034  0.00  0.00    +0.159 C 
BRANCH  18  23
ATOM      6  N   UNL     1      13.007   3.344   0.413  0.00  0.00    -0.347 N 
ATOM      9  N   UNL     1      15.058   3.975  -0.165  0.00  0.00    -0.239 NA
ATOM     23  C   UNL     1      13.850   3.697  -0.605  0.00  0.00    +0.121 A 
ATOM     30  C   UNL     1      13.724   3.400   1.575  0.00  0.00    +0.104 A 
ATOM     31  C   UNL     1      14.985   3.792   1.193  0.00  0.00    +0.130 A 
ATOM     32  H   UNL     1      12.034   3.086   0.324  0.00  0.00    +0.167 HD
ENDBRANCH  18  23
ENDBRANCH   3  18
ENDBRANCH  21  11
TORSDOF 5
ENDMDL
MODEL 8
REMARK VINA RESULT:      -6.7     23.977     25.942
REMARK  Name = 45783334
REMARK  5 active torsions:
REMARK  status: ('A' for Active; 'I' for Inactive)
REMARK    1  A    between atoms: N_3  and  C_18
REMARK    2  A    between atoms: C_11  and  C_21
REMARK    3  A    between atoms: C_15  and  C_24
REMARK    4  A    between atoms: C_18  and  C_23
REMARK    5  A    between atoms: C_25  and  C_27
REMARK                            x       y       z     vdW  Elec       q    Type
REMARK                         _______ _______ _______ _____ _____    ______ ____
ROOT
ATOM      1  O   UNL     1      -4.483 -12.089  15.405  0.00  0.00    -0.336 OA
ATOM      5  N   UNL     1      -5.252 -10.182  14.517  0.00  0.00    -0.190 NA
ATOM      7  N   UNL     1      -3.948 -12.018  14.113  0.00  0.00    -0.056 NA
ATOM     21  C   UNL     1      -5.238 -10.970  15.562  0.00  0.00    +0.245 A 
ATOM     25  C   UNL     1      -4.447 -10.866  13.653  0.00  0.00    +0.202 A 
ENDROOT
BRANCH  25  27
ATOM      4  N   UNL     1      -5.919  -9.461   9.276  0.00  0.00    -0.315 N 
ATOM      8  N   UNL     1      -3.605  -9.405   9.772  0.00  0.00    -0.240 NA
ATOM     15  C   UNL     1      -8.059  -9.034   7.360  0.00  0.00    +0.078 C 
ATOM     16  C   UNL     1      -6.899  -9.987   7.079  0.00  0.00    +0.031 C 
ATOM     17  C   UNL     1      -8.270  -8.844   8.860  0.00  0.00    +0.031 C 
ATOM     19  C   UNL     1      -5.629  -9.619   7.845  0.00  0.00    +0.107 C 
ATOM     20  C   UNL     1      -6.983  -8.513   9.620  0.00  0.00    +0.107 C 
ATOM     22  C   UNL     1      -4.868  -9.674  10.175  0.00  0.00    +0.122 A 
ATOM     26  C   UNL     1      -5.196 -10.153  11.432  0.00  0.00    +0.055 A 
ATOM     27  C   UNL     1      -4.162 -10.371  12.336  0.00  0.00    +0.027 A 
ATOM     28  C   UNL     1      -2.850 -10.108  11.959  0.00  0.00    +0.031 A 
ATOM     29  C   UNL     1      -2.626  -9.630  10.678  0.00  0.00    +0.113 A 
BRANCH  15  24
ATOM      2  O   UNL     1      -8.197  -6.654   7.161  0.00  0.00    -0.276 OA
ATOM     10  N   UNL     1      -7.238  -7.836   5.436  0.00  0.00    -0.329 N 
ATOM     24  C   UNL     1      -7.843  -7.721   6.666  0.00  0.00    +0.214 C 
ATOM     33  H   UNL     1      -7.041  -7.014   4.878  0.00  0.00    +0.145 HD
ATOM     34  H   UNL     1      -7.009  -8.731   5.016  0.00  0.00    +0.145 HD
ENDBRANCH  15  24
ENDBRANCH  25  27
BRANCH  21  11
ATOM      3  N   UNL     1      -6.765 -11.975  17.250  0.00  0.00    -0.284 NA
ATOM     11  C   UNL     1      -5.934 -10.807  16.897  0.00  0.00    +0.146 C 
ATOM     12  C   UNL     1      -4.945 -10.663  18.068  0.00  0.00    +0.030 C 
ATOM     13  C   UNL     1      -5.338 -11.752  19.057  0.00  0.00    +0.017 C 
ATOM     14  C   UNL     1      -6.784 -12.042  18.711  0.00  0.00    +0.085 C 
BRANCH   3  18
ATOM     18  C   UNL     1      -8.108 -11.915  16.687  0.00  0.00    +0.159 C 
BRANCH  18  23
ATOM      6  N   UNL     1      -8.758  -9.712  15.684  0.00  0.00    -0.347 N 
ATOM      9  N   UNL     1      -9.189  -9.953  17.850  0.00  0.00    -0.239 NA
ATOM     23  C   UNL     1      -8.693 -10.530  16.778  0.00  0.00    +0.121 A 
ATOM     30  C   UNL     1      -9.332  -8.539  16.084  0.00  0.00    +0.104 A 
ATOM     31  C   UNL     1      -9.589  -8.711  17.424  0.00  0.00    +0.130 A 
ATOM     32  H   UNL     1      -8.443  -9.933  14.749  0.00  0.00    +0.167 HD
ENDBRANCH  18  23
ENDBRANCH   3  18
ENDBRANCH  21  11
TORSDOF 5
ENDMDL
MODEL 9
REMARK VINA RESULT:      -6.6     26.704     29.914
REMARK  Name = 45783334
REMARK  5 active torsions:
REMARK  status: ('A' for Active; 'I' for Inactive)
REMARK    1  A    between atoms: N_3  and  C_18
REMARK    2  A    between atoms: C_11  and  C_21
REMARK    3  A    between atoms: C_15  and  C_24
REMARK    4  A    between atoms: C_18  and  C_23
REMARK    5  A    between atoms: C_25  and  C_27
REMARK                            x       y       z     vdW  Elec       q    Type
REMARK                         _______ _______ _______ _____ _____    ______ ____
ROOT
ATOM      1  O   UNL     1      -4.732 -12.806  16.229  0.00  0.00    -0.336 OA
ATOM      5  N   UNL     1      -5.216 -10.633  15.985  0.00  0.00    -0.190 NA
ATOM      7  N   UNL     1      -5.998 -12.622  16.801  0.00  0.00    -0.056 NA
ATOM     21  C   UNL     1      -4.344 -11.586  15.774  0.00  0.00    +0.245 A 
ATOM     25  C   UNL     1      -6.214 -11.316  16.617  0.00  0.00    +0.202 A 
ENDROOT
BRANCH  25  27
ATOM      4  N   UNL     1     -10.512 -11.440  18.811  0.00  0.00    -0.315 N 
ATOM      8  N   UNL     1      -9.752  -9.387  17.909  0.00  0.00    -0.240 NA
ATOM     15  C   UNL     1     -12.588 -12.928  20.191  0.00  0.00    +0.078 C 
ATOM     16  C   UNL     1     -12.856 -12.191  18.880  0.00  0.00    +0.031 C 
ATOM     17  C   UNL     1     -11.110 -13.281  20.337  0.00  0.00    +0.031 C 
ATOM     19  C   UNL     1     -11.908 -11.013  18.657  0.00  0.00    +0.107 C 
ATOM     20  C   UNL     1     -10.172 -12.101  20.074  0.00  0.00    +0.107 C 
ATOM     22  C   UNL     1      -9.534 -10.703  18.133  0.00  0.00    +0.122 A 
ATOM     26  C   UNL     1      -8.394 -11.380  17.731  0.00  0.00    +0.055 A 
ATOM     27  C   UNL     1      -7.414 -10.662  17.055  0.00  0.00    +0.027 A 
ATOM     28  C   UNL     1      -7.602  -9.307  16.804  0.00  0.00    +0.031 A 
ATOM     29  C   UNL     1      -8.777  -8.722  17.248  0.00  0.00    +0.113 A 
BRANCH  15  24
ATOM      2  O   UNL     1     -13.689 -11.068  21.215  0.00  0.00    -0.276 OA
ATOM     10  N   UNL     1     -12.759 -12.668  22.581  0.00  0.00    -0.329 N 
ATOM     24  C   UNL     1     -13.077 -12.123  21.359  0.00  0.00    +0.214 C 
ATOM     33  H   UNL     1     -13.040 -12.210  23.441  0.00  0.00    +0.145 HD
ATOM     34  H   UNL     1     -12.198 -13.508  22.681  0.00  0.00    +0.145 HD
ENDBRANCH  15  24
ENDBRANCH  25  27
BRANCH  21  11
ATOM      3  N   UNL     1      -2.931 -10.488  14.045  0.00  0.00    -0.284 NA
ATOM     11  C   UNL     1      -2.988 -11.517  15.102  0.00  0.00    +0.146 C 
ATOM     12  C   UNL     1      -1.860 -11.138  16.079  0.00  0.00    +0.030 C 
ATOM     13  C   UNL     1      -1.186  -9.924  15.457  0.00  0.00    +0.017 C 
ATOM     14  C   UNL     1      -1.542 -10.032  13.988  0.00  0.00    +0.085 C 
BRANCH   3  18
ATOM     18  C   UNL     1      -3.405 -10.965  12.753  0.00  0.00    +0.159 C 
BRANCH  18  23
ATOM      6  N   UNL     1      -5.673  -9.903  12.839  0.00  0.00    -0.347 N 
ATOM      9  N   UNL     1      -4.434  -9.397  11.065  0.00  0.00    -0.239 NA
ATOM     23  C   UNL     1      -4.483 -10.079  12.188  0.00  0.00    +0.121 A 
ATOM     30  C   UNL     1      -6.430  -9.054  12.082  0.00  0.00    +0.104 A 
ATOM     31  C   UNL     1      -5.646  -8.756  10.993  0.00  0.00    +0.130 A 
ATOM     32  H   UNL     1      -5.943 -10.320  13.719  0.00  0.00    +0.167 HD
ENDBRANCH  18  23
ENDBRANCH   3  18
ENDBRANCH  21  11
TORSDOF 5
ENDMDL
MODEL 10
REMARK VINA RESULT:      -6.5     27.509     30.888
REMARK  Name = 45783334
REMARK  5 active torsions:
REMARK  status: ('A' for Active; 'I' for Inactive)
REMARK    1  A    between atoms: N_3  and  C_18
REMARK    2  A    between atoms: C_11  and  C_21
REMARK    3  A    between atoms: C_15  and  C_24
REMARK    4  A    between atoms: C_18  and  C_23
REMARK    5  A    between atoms: C_25  and  C_27
REMARK                            x       y       z     vdW  Elec       q    Type
REMARK                         _______ _______ _______ _____ _____    ______ ____
ROOT
ATOM      1  O   UNL     1     -13.047  -6.337  12.624  0.00  0.00    -0.336 OA
ATOM      5  N   UNL     1     -12.191  -5.362  14.449  0.00  0.00    -0.190 NA
ATOM      7  N   UNL     1     -12.558  -7.375  13.428  0.00  0.00    -0.056 NA
ATOM     21  C   UNL     1     -12.790  -5.186  13.299  0.00  0.00    +0.245 A 
ATOM     25  C   UNL     1     -12.069  -6.720  14.485  0.00  0.00    +0.202 A 
ENDROOT
BRANCH  25  27
ATOM      4  N   UNL     1     -12.371  -9.526  18.401  0.00  0.00    -0.315 N 
ATOM      8  N   UNL     1     -10.248  -8.705  17.749  0.00  0.00    -0.240 NA
ATOM     15  C   UNL     1     -13.968 -11.069  20.271  0.00  0.00    +0.078 C 
ATOM     16  C   UNL     1     -13.114  -9.886  20.722  0.00  0.00    +0.031 C 
ATOM     17  C   UNL     1     -14.340 -10.955  18.795  0.00  0.00    +0.031 C 
ATOM     19  C   UNL     1     -11.924  -9.626  19.797  0.00  0.00    +0.107 C 
ATOM     20  C   UNL     1     -13.146 -10.658  17.886  0.00  0.00    +0.107 C 
ATOM     22  C   UNL     1     -11.580  -8.775  17.524  0.00  0.00    +0.122 A 
ATOM     26  C   UNL     1     -12.223  -8.144  16.472  0.00  0.00    +0.055 A 
ATOM     27  C   UNL     1     -11.451  -7.393  15.593  0.00  0.00    +0.027 A 
ATOM     28  C   UNL     1     -10.079  -7.296  15.790  0.00  0.00    +0.031 A 
ATOM     29  C   UNL     1      -9.531  -7.965  16.874  0.00  0.00    +0.113 A 
BRANCH  15  24
ATOM      2  O   UNL     1     -13.360 -13.338  19.818  0.00  0.00    -0.276 OA
ATOM     10  N   UNL     1     -12.549 -12.357  21.734  0.00  0.00    -0.329 N 
ATOM     24  C   UNL     1     -13.270 -12.365  20.562  0.00  0.00    +0.214 C 
ATOM     33  H   UNL     1     -12.035 -13.178  22.032  0.00  0.00    +0.145 HD
ATOM     34  H   UNL     1     -12.537 -11.564  22.368  0.00  0.00    +0.145 HD
ENDBRANCH  15  24
ENDBRANCH  25  27
BRANCH  21  11
ATOM      3  N   UNL     1     -13.109  -3.953  11.161  0.00  0.00    -0.284 NA
ATOM     11  C   UNL     1     -13.230  -3.900  12.632  0.00  0.00    +0.146 C 
ATOM     12  C   UNL     1     -14.712  -3.574  12.891  0.00  0.00    +0.030 C 
ATOM     13  C   UNL     1     -15.328  -3.400  11.509  0.00  0.00    +0.017 C 
ATOM     14  C   UNL     1     -14.141  -3.064  10.629  0.00  0.00    +0.085 C 
BRANCH   3  18
ATOM     18  C   UNL     1     -11.779  -3.598  10.682  0.00  0.00    +0.159 C 
BRANCH  18  23
ATOM      6  N   UNL     1     -11.571  -5.989   9.963  0.00  0.00    -0.347 N 
ATOM      9  N   UNL     1     -10.257  -4.543   8.905  0.00  0.00    -0.239 NA
ATOM     23  C   UNL     1     -11.180  -4.685   9.831  0.00  0.00    +0.121 A 
ATOM     30  C   UNL     1     -10.852  -6.724   9.063  0.00  0.00    +0.104 A 
ATOM     31  C   UNL     1     -10.048  -5.811   8.423  0.00  0.00    +0.130 A 
ATOM     32  H   UNL     1     -12.266  -6.345  10.604  0.00  0.00    +0.167 HD
ENDBRANCH  18  23
ENDBRANCH   3  18
ENDBRANCH  21  11
TORSDOF 5
ENDMDL
