MODEL 1
REMARK VINA RESULT:      -6.7      0.000      0.000
REMARK  Name = 75536292
REMARK  10 active torsions:
REMARK  status: ('A' for Active; 'I' for Inactive)
REMARK    1  A    between atoms: O_3  and  C_9
REMARK    2  A    between atoms: O_5  and  C_20
REMARK    3  A    between atoms: O_5  and  C_26
REMARK    4  A    between atoms: N_6  and  C_13
REMARK    5  A    between atoms: N_6  and  C_16
REMARK    6  A    between atoms: C_8  and  C_13
REMARK    7  A    between atoms: C_10  and  C_14
REMARK    8  A    between atoms: C_14  and  C_15
REMARK    9  A    between atoms: C_16  and  C_18
REMARK   10  A    between atoms: C_19  and  C_20
REMARK                            x       y       z     vdW  Elec       q    Type
REMARK                         _______ _______ _______ _____ _____    ______ ____
ROOT
ATOM      2  O   UNL     1      10.721   8.125  20.042  0.00  0.00    -0.369 OA
ATOM      8  C   UNL     1      10.871   7.689  21.399  0.00  0.00    +0.161 C 
ATOM      9  C   UNL     1      11.711   6.408  21.485  0.00  0.00    +0.145 C 
ATOM     10  C   UNL     1      11.944   8.325  19.328  0.00  0.00    +0.125 C 
ATOM     11  C   UNL     1      13.015   6.514  20.700  0.00  0.00    +0.036 C 
ATOM     12  C   UNL     1      12.762   7.035  19.288  0.00  0.00    +0.034 C 
ENDROOT
BRANCH   9   3
ATOM      3  O   UNL     1      10.956   5.325  20.934  0.00  0.00    -0.389 OA
ATOM     28  H   UNL     1      10.517   4.868  21.671  0.00  0.00    +0.210 HD
ENDBRANCH   9   3
BRANCH   8  13
ATOM     13  C   UNL     1      11.407   8.814  22.282  0.00  0.00    +0.115 C 
BRANCH  13   6
ATOM      6  N   UNL     1      10.489   9.943  22.300  0.00  0.00    -0.309 NA
ATOM     27  H   UNL     1       9.804   9.829  21.552  0.00  0.00    +0.122 HD
BRANCH   6  16
ATOM     16  C   UNL     1      11.203  11.201  22.131  0.00  0.00    +0.116 C 
BRANCH  16  18
ATOM      1  F   UNL     1       9.774  15.578  23.750  0.00  0.00    -0.205 F 
ATOM     18  C   UNL     1      10.922  12.161  23.256  0.00  0.00    -0.031 A 
ATOM     21  C   UNL     1      10.468  13.450  22.976  0.00  0.00    +0.043 A 
ATOM     22  C   UNL     1      11.116  11.762  24.578  0.00  0.00    +0.005 A 
ATOM     23  C   UNL     1      10.208  14.340  24.019  0.00  0.00    +0.124 A 
ATOM     24  C   UNL     1      10.855  12.652  25.621  0.00  0.00    +0.003 A 
ATOM     25  C   UNL     1      10.401  13.941  25.341  0.00  0.00    +0.038 A 
ENDBRANCH  16  18
ENDBRANCH   6  16
ENDBRANCH  13   6
ENDBRANCH   8  13
BRANCH  10  14
ATOM     14  C   UNL     1      11.584   8.784  17.920  0.00  0.00    +0.090 C 
BRANCH  14  15
ATOM      4  O   UNL     1      14.250  11.108  17.228  0.00  0.00    -0.357 OA
ATOM      7  N   UNL     1      13.340  10.500  18.083  0.00  0.00    -0.083 NA
ATOM     15  C   UNL     1      12.669   9.635  17.317  0.00  0.00    +0.086 A 
ATOM     17  C   UNL     1      13.108   9.653  15.982  0.00  0.00    +0.073 A 
ATOM     19  C   UNL     1      14.102  10.595  15.980  0.00  0.00    +0.163 A 
BRANCH  19  20
ATOM     20  C   UNL     1      14.993  11.131  14.942  0.00  0.00    +0.236 C 
BRANCH  20   5
ATOM      5  O   UNL     1      14.302  11.219  13.693  0.00  0.00    -0.375 OA
ATOM     26  C   UNL     1      13.688  12.487  13.536  0.00  0.00    +0.194 C 
ENDBRANCH  20   5
ENDBRANCH  19  20
ENDBRANCH  14  15
ENDBRANCH  10  14
TORSDOF 9
ENDMDL
MODEL 2
REMARK VINA RESULT:      -6.4     26.903     29.263
REMARK  Name = 75536292
REMARK  10 active torsions:
REMARK  status: ('A' for Active; 'I' for Inactive)
REMARK    1  A    between atoms: O_3  and  C_9
REMARK    2  A    between atoms: O_5  and  C_20
REMARK    3  A    between atoms: O_5  and  C_26
REMARK    4  A    between atoms: N_6  and  C_13
REMARK    5  A    between atoms: N_6  and  C_16
REMARK    6  A    between atoms: C_8  and  C_13
REMARK    7  A    between atoms: C_10  and  C_14
REMARK    8  A    between atoms: C_14  and  C_15
REMARK    9  A    between atoms: C_16  and  C_18
REMARK   10  A    between atoms: C_19  and  C_20
REMARK                            x       y       z     vdW  Elec       q    Type
REMARK                         _______ _______ _______ _____ _____    ______ ____
ROOT
ATOM      2  O   UNL     1     -16.178   2.205  24.583  0.00  0.00    -0.369 OA
ATOM      8  C   UNL     1     -16.181   3.254  23.606  0.00  0.00    +0.161 C 
ATOM      9  C   UNL     1     -17.513   3.307  22.848  0.00  0.00    +0.145 C 
ATOM     10  C   UNL     1     -17.247   2.253  25.531  0.00  0.00    +0.125 C 
ATOM     11  C   UNL     1     -18.716   3.305  23.787  0.00  0.00    +0.036 C 
ATOM     12  C   UNL     1     -18.599   2.190  24.822  0.00  0.00    +0.034 C 
ENDROOT
BRANCH   9   3
ATOM      3  O   UNL     1     -17.613   2.153  22.008  0.00  0.00    -0.389 OA
ATOM     28  H   UNL     1     -18.317   2.321  21.360  0.00  0.00    +0.210 HD
ENDBRANCH   9   3
BRANCH   8  13
ATOM     13  C   UNL     1     -15.797   4.592  24.234  0.00  0.00    +0.115 C 
BRANCH  13   6
ATOM      6  N   UNL     1     -14.420   4.939  23.918  0.00  0.00    -0.309 NA
ATOM     27  H   UNL     1     -14.220   5.873  24.276  0.00  0.00    +0.122 HD
BRANCH   6  16
ATOM     16  C   UNL     1     -14.188   4.900  22.480  0.00  0.00    +0.116 C 
BRANCH  16  18
ATOM      1  F   UNL     1     -10.726   7.487  20.213  0.00  0.00    -0.205 F 
ATOM     18  C   UNL     1     -13.648   6.206  21.963  0.00  0.00    -0.031 A 
ATOM     21  C   UNL     1     -12.413   6.242  21.314  0.00  0.00    +0.043 A 
ATOM     22  C   UNL     1     -14.381   7.380  22.132  0.00  0.00    +0.005 A 
ATOM     23  C   UNL     1     -11.912   7.452  20.834  0.00  0.00    +0.124 A 
ATOM     24  C   UNL     1     -13.879   8.591  21.653  0.00  0.00    +0.003 A 
ATOM     25  C   UNL     1     -12.645   8.627  21.004  0.00  0.00    +0.038 A 
ENDBRANCH  16  18
ENDBRANCH   6  16
ENDBRANCH  13   6
ENDBRANCH   8  13
BRANCH  10  14
ATOM     14  C   UNL     1     -17.074   1.072  26.478  0.00  0.00    +0.090 C 
BRANCH  14  15
ATOM      4  O   UNL     1     -15.423   1.237  29.678  0.00  0.00    -0.357 OA
ATOM      7  N   UNL     1     -16.104   0.552  28.679  0.00  0.00    -0.083 NA
ATOM     15  C   UNL     1     -16.343   1.466  27.734  0.00  0.00    +0.086 A 
ATOM     17  C   UNL     1     -15.841   2.733  28.077  0.00  0.00    +0.073 A 
ATOM     19  C   UNL     1     -15.272   2.534  29.308  0.00  0.00    +0.163 A 
BRANCH  19  20
ATOM     20  C   UNL     1     -14.569   3.408  30.255  0.00  0.00    +0.236 C 
BRANCH  20   5
ATOM      5  O   UNL     1     -13.388   2.764  30.741  0.00  0.00    -0.375 OA
ATOM     26  C   UNL     1     -13.335   2.790  32.157  0.00  0.00    +0.194 C 
ENDBRANCH  20   5
ENDBRANCH  19  20
ENDBRANCH  14  15
ENDBRANCH  10  14
TORSDOF 9
ENDMDL
MODEL 3
REMARK VINA RESULT:      -6.3      4.402      7.974
REMARK  Name = 75536292
REMARK  10 active torsions:
REMARK  status: ('A' for Active; 'I' for Inactive)
REMARK    1  A    between atoms: O_3  and  C_9
REMARK    2  A    between atoms: O_5  and  C_20
REMARK    3  A    between atoms: O_5  and  C_26
REMARK    4  A    between atoms: N_6  and  C_13
REMARK    5  A    between atoms: N_6  and  C_16
REMARK    6  A    between atoms: C_8  and  C_13
REMARK    7  A    between atoms: C_10  and  C_14
REMARK    8  A    between atoms: C_14  and  C_15
REMARK    9  A    between atoms: C_16  and  C_18
REMARK   10  A    between atoms: C_19  and  C_20
REMARK                            x       y       z     vdW  Elec       q    Type
REMARK                         _______ _______ _______ _____ _____    ______ ____
ROOT
ATOM      2  O   UNL     1      12.957   6.958  19.975  0.00  0.00    -0.369 OA
ATOM      8  C   UNL     1      13.627   6.933  18.708  0.00  0.00    +0.161 C 
ATOM      9  C   UNL     1      12.864   7.748  17.657  0.00  0.00    +0.145 C 
ATOM     10  C   UNL     1      12.696   8.261  20.500  0.00  0.00    +0.125 C 
ATOM     11  C   UNL     1      12.495   9.141  18.157  0.00  0.00    +0.036 C 
ATOM     12  C   UNL     1      11.836   9.071  19.531  0.00  0.00    +0.034 C 
ENDROOT
BRANCH   9   3
ATOM      3  O   UNL     1      11.650   7.064  17.335  0.00  0.00    -0.389 OA
ATOM     28  H   UNL     1      10.995   7.290  18.017  0.00  0.00    +0.210 HD
ENDBRANCH   9   3
BRANCH   8  13
ATOM     13  C   UNL     1      15.086   7.359  18.850  0.00  0.00    +0.115 C 
BRANCH  13   6
ATOM      6  N   UNL     1      15.911   6.248  19.300  0.00  0.00    -0.309 NA
ATOM     27  H   UNL     1      15.404   5.374  19.154  0.00  0.00    +0.122 HD
BRANCH   6  16
ATOM     16  C   UNL     1      16.256   6.390  20.709  0.00  0.00    +0.116 C 
BRANCH  16  18
ATOM      1  F   UNL     1      19.416   9.786  22.222  0.00  0.00    -0.205 F 
ATOM     18  C   UNL     1      17.665   6.888  20.894  0.00  0.00    -0.031 A 
ATOM     21  C   UNL     1      17.892   8.130  21.485  0.00  0.00    +0.043 A 
ATOM     22  C   UNL     1      18.741   6.106  20.475  0.00  0.00    +0.005 A 
ATOM     23  C   UNL     1      19.197   8.592  21.657  0.00  0.00    +0.124 A 
ATOM     24  C   UNL     1      20.047   6.568  20.648  0.00  0.00    +0.003 A 
ATOM     25  C   UNL     1      20.275   7.812  21.238  0.00  0.00    +0.038 A 
ENDBRANCH  16  18
ENDBRANCH   6  16
ENDBRANCH  13   6
ENDBRANCH   8  13
BRANCH  10  14
ATOM     14  C   UNL     1      11.988   8.085  21.838  0.00  0.00    +0.090 C 
BRANCH  14  15
ATOM      4  O   UNL     1      10.592  10.987  23.456  0.00  0.00    -0.357 OA
ATOM      7  N   UNL     1      10.481   9.728  22.878  0.00  0.00    -0.083 NA
ATOM     15  C   UNL     1      11.724   9.406  22.509  0.00  0.00    +0.086 A 
ATOM     17  C   UNL     1      12.652  10.413  22.824  0.00  0.00    +0.073 A 
ATOM     19  C   UNL     1      11.889  11.384  23.418  0.00  0.00    +0.163 A 
BRANCH  19  20
ATOM     20  C   UNL     1      12.187  12.703  23.990  0.00  0.00    +0.236 C 
BRANCH  20   5
ATOM      5  O   UNL     1      11.805  12.743  25.368  0.00  0.00    -0.375 OA
ATOM     26  C   UNL     1      10.788  13.706  25.590  0.00  0.00    +0.194 C 
ENDBRANCH  20   5
ENDBRANCH  19  20
ENDBRANCH  14  15
ENDBRANCH  10  14
TORSDOF 9
ENDMDL
MODEL 4
REMARK VINA RESULT:      -6.2     16.407     20.389
REMARK  Name = 75536292
REMARK  10 active torsions:
REMARK  status: ('A' for Active; 'I' for Inactive)
REMARK    1  A    between atoms: O_3  and  C_9
REMARK    2  A    between atoms: O_5  and  C_20
REMARK    3  A    between atoms: O_5  and  C_26
REMARK    4  A    between atoms: N_6  and  C_13
REMARK    5  A    between atoms: N_6  and  C_16
REMARK    6  A    between atoms: C_8  and  C_13
REMARK    7  A    between atoms: C_10  and  C_14
REMARK    8  A    between atoms: C_14  and  C_15
REMARK    9  A    between atoms: C_16  and  C_18
REMARK   10  A    between atoms: C_19  and  C_20
REMARK                            x       y       z     vdW  Elec       q    Type
REMARK                         _______ _______ _______ _____ _____    ______ ____
ROOT
ATOM      2  O   UNL     1      12.588   2.635   0.514  0.00  0.00    -0.369 OA
ATOM      8  C   UNL     1      12.839   3.419   1.687  0.00  0.00    +0.161 C 
ATOM      9  C   UNL     1      14.217   4.089   1.626  0.00  0.00    +0.145 C 
ATOM     10  C   UNL     1      12.706   3.338  -0.725  0.00  0.00    +0.125 C 
ATOM     11  C   UNL     1      14.451   4.820   0.308  0.00  0.00    +0.036 C 
ATOM     12  C   UNL     1      14.108   3.926  -0.881  0.00  0.00    +0.034 C 
ENDROOT
BRANCH   9   3
ATOM      3  O   UNL     1      15.225   3.082   1.752  0.00  0.00    -0.389 OA
ATOM     28  H   UNL     1      15.153   2.496   0.980  0.00  0.00    +0.210 HD
ENDBRANCH   9   3
BRANCH   8  13
ATOM     13  C   UNL     1      11.704   4.409   1.940  0.00  0.00    +0.115 C 
BRANCH  13   6
ATOM      6  N   UNL     1      11.780   4.955   3.286  0.00  0.00    -0.309 NA
ATOM     27  H   UNL     1      12.390   4.364   3.853  0.00  0.00    +0.122 HD
BRANCH   6  16
ATOM     16  C   UNL     1      10.459   5.030   3.896  0.00  0.00    +0.116 C 
BRANCH  16  18
ATOM      1  F   UNL     1       9.211   4.214   8.543  0.00  0.00    -0.205 F 
ATOM     18  C   UNL     1      10.535   5.375   5.359  0.00  0.00    -0.031 A 
ATOM     21  C   UNL     1       9.824   4.619   6.291  0.00  0.00    +0.043 A 
ATOM     22  C   UNL     1      11.315   6.451   5.782  0.00  0.00    +0.005 A 
ATOM     23  C   UNL     1       9.894   4.939   7.647  0.00  0.00    +0.124 A 
ATOM     24  C   UNL     1      11.385   6.770   7.138  0.00  0.00    +0.003 A 
ATOM     25  C   UNL     1      10.675   6.014   8.072  0.00  0.00    +0.038 A 
ENDBRANCH  16  18
ENDBRANCH   6  16
ENDBRANCH  13   6
ENDBRANCH   8  13
BRANCH  10  14
ATOM     14  C   UNL     1      12.403   2.350  -1.845  0.00  0.00    +0.090 C 
BRANCH  14  15
ATOM      4  O   UNL     1       9.172   2.458  -3.437  0.00  0.00    -0.357 OA
ATOM      7  N   UNL     1      10.170   1.807  -2.722  0.00  0.00    -0.083 NA
ATOM     15  C   UNL     1      11.142   2.712  -2.584  0.00  0.00    +0.086 A 
ATOM     17  C   UNL     1      10.818   3.940  -3.184  0.00  0.00    +0.073 A 
ATOM     19  C   UNL     1       9.569   3.727  -3.706  0.00  0.00    +0.163 A 
BRANCH  19  20
ATOM     20  C   UNL     1       8.627   4.563  -4.460  0.00  0.00    +0.236 C 
BRANCH  20   5
ATOM      5  O   UNL     1       8.849   4.415  -5.866  0.00  0.00    -0.375 OA
ATOM     26  C   UNL     1       9.562   5.523  -6.390  0.00  0.00    +0.194 C 
ENDBRANCH  20   5
ENDBRANCH  19  20
ENDBRANCH  14  15
ENDBRANCH  10  14
TORSDOF 9
ENDMDL
MODEL 5
REMARK VINA RESULT:      -6.1     27.780     29.716
REMARK  Name = 75536292
REMARK  10 active torsions:
REMARK  status: ('A' for Active; 'I' for Inactive)
REMARK    1  A    between atoms: O_3  and  C_9
REMARK    2  A    between atoms: O_5  and  C_20
REMARK    3  A    between atoms: O_5  and  C_26
REMARK    4  A    between atoms: N_6  and  C_13
REMARK    5  A    between atoms: N_6  and  C_16
REMARK    6  A    between atoms: C_8  and  C_13
REMARK    7  A    between atoms: C_10  and  C_14
REMARK    8  A    between atoms: C_14  and  C_15
REMARK    9  A    between atoms: C_16  and  C_18
REMARK   10  A    between atoms: C_19  and  C_20
REMARK                            x       y       z     vdW  Elec       q    Type
REMARK                         _______ _______ _______ _____ _____    ______ ____
ROOT
ATOM      2  O   UNL     1     -16.163   1.947  30.191  0.00  0.00    -0.369 OA
ATOM      8  C   UNL     1     -15.228   2.250  31.234  0.00  0.00    +0.161 C 
ATOM      9  C   UNL     1     -14.304   1.060  31.518  0.00  0.00    +0.145 C 
ATOM     10  C   UNL     1     -15.582   1.508  28.961  0.00  0.00    +0.125 C 
ATOM     11  C   UNL     1     -13.681   0.490  30.248  0.00  0.00    +0.036 C 
ATOM     12  C   UNL     1     -14.743   0.250  29.179  0.00  0.00    +0.034 C 
ENDROOT
BRANCH   9   3
ATOM      3  O   UNL     1     -15.069   0.019  32.134  0.00  0.00    -0.389 OA
ATOM     28  H   UNL     1     -14.773  -0.057  33.057  0.00  0.00    +0.210 HD
ENDBRANCH   9   3
BRANCH   8  13
ATOM     13  C   UNL     1     -14.467   3.539  30.932  0.00  0.00    +0.115 C 
BRANCH  13   6
ATOM      6  N   UNL     1     -15.373   4.675  30.866  0.00  0.00    -0.309 NA
ATOM     27  H   UNL     1     -14.839   5.517  30.650  0.00  0.00    +0.122 HD
BRANCH   6  16
ATOM     16  C   UNL     1     -16.084   4.850  32.125  0.00  0.00    +0.116 C 
BRANCH  16  18
ATOM      1  F   UNL     1     -13.909   4.375  36.468  0.00  0.00    -0.205 F 
ATOM     18  C   UNL     1     -15.183   5.376  33.211  0.00  0.00    -0.031 A 
ATOM     21  C   UNL     1     -14.959   4.616  34.359  0.00  0.00    +0.043 A 
ATOM     22  C   UNL     1     -14.573   6.621  33.067  0.00  0.00    +0.005 A 
ATOM     23  C   UNL     1     -14.123   5.103  35.365  0.00  0.00    +0.124 A 
ATOM     24  C   UNL     1     -13.737   7.108  34.073  0.00  0.00    +0.003 A 
ATOM     25  C   UNL     1     -13.512   6.349  35.223  0.00  0.00    +0.038 A 
ENDBRANCH  16  18
ENDBRANCH   6  16
ENDBRANCH  13   6
ENDBRANCH   8  13
BRANCH  10  14
ATOM     14  C   UNL     1     -16.721   1.240  27.984  0.00  0.00    +0.090 C 
BRANCH  14  15
ATOM      4  O   UNL     1     -16.250   2.033  24.500  0.00  0.00    -0.357 OA
ATOM      7  N   UNL     1     -16.517   1.144  25.534  0.00  0.00    -0.083 NA
ATOM     15  C   UNL     1     -16.473   1.883  26.646  0.00  0.00    +0.086 A 
ATOM     17  C   UNL     1     -16.185   3.232  26.379  0.00  0.00    +0.073 A 
ATOM     19  C   UNL     1     -16.054   3.273  25.016  0.00  0.00    +0.163 A 
BRANCH  19  20
ATOM     20  C   UNL     1     -15.758   4.342  24.055  0.00  0.00    +0.236 C 
BRANCH  20   5
ATOM      5  O   UNL     1     -14.346   4.455  23.858  0.00  0.00    -0.375 OA
ATOM     26  C   UNL     1     -14.050   5.068  22.614  0.00  0.00    +0.194 C 
ENDBRANCH  20   5
ENDBRANCH  19  20
ENDBRANCH  14  15
ENDBRANCH  10  14
TORSDOF 9
ENDMDL
MODEL 6
REMARK VINA RESULT:      -6.0     32.998     35.031
REMARK  Name = 75536292
REMARK  10 active torsions:
REMARK  status: ('A' for Active; 'I' for Inactive)
REMARK    1  A    between atoms: O_3  and  C_9
REMARK    2  A    between atoms: O_5  and  C_20
REMARK    3  A    between atoms: O_5  and  C_26
REMARK    4  A    between atoms: N_6  and  C_13
REMARK    5  A    between atoms: N_6  and  C_16
REMARK    6  A    between atoms: C_8  and  C_13
REMARK    7  A    between atoms: C_10  and  C_14
REMARK    8  A    between atoms: C_14  and  C_15
REMARK    9  A    between atoms: C_16  and  C_18
REMARK   10  A    between atoms: C_19  and  C_20
REMARK                            x       y       z     vdW  Elec       q    Type
REMARK                         _______ _______ _______ _____ _____    ______ ____
ROOT
ATOM      2  O   UNL     1       3.640 -14.487  -0.280  0.00  0.00    -0.369 OA
ATOM      8  C   UNL     1       4.529 -15.363  -0.983  0.00  0.00    +0.161 C 
ATOM      9  C   UNL     1       5.159 -16.395  -0.039  0.00  0.00    +0.145 C 
ATOM     10  C   UNL     1       2.599 -15.137   0.455  0.00  0.00    +0.125 C 
ATOM     11  C   UNL     1       4.120 -17.101   0.827  0.00  0.00    +0.036 C 
ATOM     12  C   UNL     1       3.188 -16.092   1.492  0.00  0.00    +0.034 C 
ENDROOT
BRANCH   9   3
ATOM      3  O   UNL     1       6.072 -15.724   0.834  0.00  0.00    -0.389 OA
ATOM     28  H   UNL     1       5.643 -14.905   1.135  0.00  0.00    +0.210 HD
ENDBRANCH   9   3
BRANCH   8  13
ATOM     13  C   UNL     1       3.837 -15.999  -2.187  0.00  0.00    +0.115 C 
BRANCH  13   6
ATOM      6  N   UNL     1       3.807 -15.080  -3.314  0.00  0.00    -0.309 NA
ATOM     27  H   UNL     1       4.275 -14.212  -3.052  0.00  0.00    +0.122 HD
BRANCH   6  16
ATOM     16  C   UNL     1       2.437 -14.798  -3.723  0.00  0.00    +0.116 C 
BRANCH  16  18
ATOM      1  F   UNL     1       1.043 -10.169  -4.394  0.00  0.00    -0.205 F 
ATOM     18  C   UNL     1       2.349 -13.560  -4.575  0.00  0.00    -0.031 A 
ATOM     21  C   UNL     1       1.725 -12.416  -4.079  0.00  0.00    +0.043 A 
ATOM     22  C   UNL     1       2.891 -13.558  -5.860  0.00  0.00    +0.005 A 
ATOM     23  C   UNL     1       1.644 -11.268  -4.869  0.00  0.00    +0.124 A 
ATOM     24  C   UNL     1       2.810 -12.411  -6.649  0.00  0.00    +0.003 A 
ATOM     25  C   UNL     1       2.186 -11.265  -6.154  0.00  0.00    +0.038 A 
ENDBRANCH  16  18
ENDBRANCH   6  16
ENDBRANCH  13   6
ENDBRANCH   8  13
BRANCH  10  14
ATOM     14  C   UNL     1       1.764 -14.053   1.126  0.00  0.00    +0.090 C 
BRANCH  14  15
ATOM      4  O   UNL     1      -1.703 -13.540   0.287  0.00  0.00    -0.357 OA
ATOM      7  N   UNL     1      -0.659 -13.633   1.199  0.00  0.00    -0.083 NA
ATOM     15  C   UNL     1       0.424 -13.888   0.460  0.00  0.00    +0.086 A 
ATOM     17  C   UNL     1       0.129 -13.966  -0.912  0.00  0.00    +0.073 A 
ATOM     19  C   UNL     1      -1.222 -13.740  -0.966  0.00  0.00    +0.163 A 
BRANCH  19  20
ATOM     20  C   UNL     1      -2.198 -13.675  -2.061  0.00  0.00    +0.236 C 
BRANCH  20   5
ATOM      5  O   UNL     1      -1.594 -14.089  -3.290  0.00  0.00    -0.375 OA
ATOM     26  C   UNL     1      -1.884 -13.178  -4.336  0.00  0.00    +0.194 C 
ENDBRANCH  20   5
ENDBRANCH  19  20
ENDBRANCH  14  15
ENDBRANCH  10  14
TORSDOF 9
ENDMDL
MODEL 7
REMARK VINA RESULT:      -6.0     26.461     27.899
REMARK  Name = 75536292
REMARK  10 active torsions:
REMARK  status: ('A' for Active; 'I' for Inactive)
REMARK    1  A    between atoms: O_3  and  C_9
REMARK    2  A    between atoms: O_5  and  C_20
REMARK    3  A    between atoms: O_5  and  C_26
REMARK    4  A    between atoms: N_6  and  C_13
REMARK    5  A    between atoms: N_6  and  C_16
REMARK    6  A    between atoms: C_8  and  C_13
REMARK    7  A    between atoms: C_10  and  C_14
REMARK    8  A    between atoms: C_14  and  C_15
REMARK    9  A    between atoms: C_16  and  C_18
REMARK   10  A    between atoms: C_19  and  C_20
REMARK                            x       y       z     vdW  Elec       q    Type
REMARK                         _______ _______ _______ _____ _____    ______ ____
ROOT
ATOM      2  O   UNL     1      -4.106 -11.526  13.450  0.00  0.00    -0.369 OA
ATOM      8  C   UNL     1      -4.808 -11.271  14.673  0.00  0.00    +0.161 C 
ATOM      9  C   UNL     1      -3.881 -11.413  15.888  0.00  0.00    +0.145 C 
ATOM     10  C   UNL     1      -2.941 -10.725  13.238  0.00  0.00    +0.125 C 
ATOM     11  C   UNL     1      -2.582 -10.630  15.722  0.00  0.00    +0.036 C 
ATOM     12  C   UNL     1      -1.936 -10.925  14.371  0.00  0.00    +0.034 C 
ENDROOT
BRANCH   9   3
ATOM      3  O   UNL     1      -3.542 -12.793  16.051  0.00  0.00    -0.389 OA
ATOM     28  H   UNL     1      -3.338 -12.936  16.990  0.00  0.00    +0.210 HD
ENDBRANCH   9   3
BRANCH   8  13
ATOM     13  C   UNL     1      -5.528  -9.926  14.625  0.00  0.00    +0.115 C 
BRANCH  13   6
ATOM      6  N   UNL     1      -5.741  -9.401  15.965  0.00  0.00    -0.309 NA
ATOM     27  H   UNL     1      -5.112  -9.875  16.614  0.00  0.00    +0.122 HD
BRANCH   6  16
ATOM     16  C   UNL     1      -7.122  -9.590  16.387  0.00  0.00    +0.116 C 
BRANCH  16  18
ATOM      1  F   UNL     1      -5.513 -11.347  20.647  0.00  0.00    -0.205 F 
ATOM     18  C   UNL     1      -7.230 -10.554  17.539  0.00  0.00    -0.031 A 
ATOM     21  C   UNL     1      -6.304 -10.502  18.580  0.00  0.00    +0.043 A 
ATOM     22  C   UNL     1      -8.257 -11.497  17.565  0.00  0.00    +0.005 A 
ATOM     23  C   UNL     1      -6.404 -11.395  19.648  0.00  0.00    +0.124 A 
ATOM     24  C   UNL     1      -8.357 -12.390  18.632  0.00  0.00    +0.003 A 
ATOM     25  C   UNL     1      -7.430 -12.339  19.674  0.00  0.00    +0.038 A 
ENDBRANCH  16  18
ENDBRANCH   6  16
ENDBRANCH  13   6
ENDBRANCH   8  13
BRANCH  10  14
ATOM     14  C   UNL     1      -2.339 -11.133  11.899  0.00  0.00    +0.090 C 
BRANCH  14  15
ATOM      4  O   UNL     1      -3.669  -8.977   9.336  0.00  0.00    -0.357 OA
ATOM      7  N   UNL     1      -2.849  -9.227  10.429  0.00  0.00    -0.083 NA
ATOM     15  C   UNL     1      -3.072 -10.507  10.743  0.00  0.00    +0.086 A 
ATOM     17  C   UNL     1      -4.014 -11.109   9.891  0.00  0.00    +0.073 A 
ATOM     19  C   UNL     1      -4.358 -10.104   9.025  0.00  0.00    +0.163 A 
BRANCH  19  20
ATOM     20  C   UNL     1      -5.279 -10.016   7.885  0.00  0.00    +0.236 C 
BRANCH  20   5
ATOM      5  O   UNL     1      -6.327  -9.084   8.166  0.00  0.00    -0.375 OA
ATOM     26  C   UNL     1      -7.376  -9.697   8.896  0.00  0.00    +0.194 C 
ENDBRANCH  20   5
ENDBRANCH  19  20
ENDBRANCH  14  15
ENDBRANCH  10  14
TORSDOF 9
ENDMDL
MODEL 8
REMARK VINA RESULT:      -6.0     26.648     27.743
REMARK  Name = 75536292
REMARK  10 active torsions:
REMARK  status: ('A' for Active; 'I' for Inactive)
REMARK    1  A    between atoms: O_3  and  C_9
REMARK    2  A    between atoms: O_5  and  C_20
REMARK    3  A    between atoms: O_5  and  C_26
REMARK    4  A    between atoms: N_6  and  C_13
REMARK    5  A    between atoms: N_6  and  C_16
REMARK    6  A    between atoms: C_8  and  C_13
REMARK    7  A    between atoms: C_10  and  C_14
REMARK    8  A    between atoms: C_14  and  C_15
REMARK    9  A    between atoms: C_16  and  C_18
REMARK   10  A    between atoms: C_19  and  C_20
REMARK                            x       y       z     vdW  Elec       q    Type
REMARK                         _______ _______ _______ _____ _____    ______ ____
ROOT
ATOM      2  O   UNL     1      -3.862  -9.913  12.262  0.00  0.00    -0.369 OA
ATOM      8  C   UNL     1      -3.965 -10.804  13.380  0.00  0.00    +0.161 C 
ATOM      9  C   UNL     1      -4.334 -12.223  12.931  0.00  0.00    +0.145 C 
ATOM     10  C   UNL     1      -2.954 -10.325  11.238  0.00  0.00    +0.125 C 
ATOM     11  C   UNL     1      -3.446 -12.723  11.796  0.00  0.00    +0.036 C 
ATOM     12  C   UNL     1      -3.355 -11.689  10.678  0.00  0.00    +0.034 C 
ENDROOT
BRANCH   9   3
ATOM      3  O   UNL     1      -5.685 -12.221  12.460  0.00  0.00    -0.389 OA
ATOM     28  H   UNL     1      -5.792 -12.986  11.870  0.00  0.00    +0.210 HD
ENDBRANCH   9   3
BRANCH   8  13
ATOM     13  C   UNL     1      -2.702 -10.758  14.237  0.00  0.00    +0.115 C 
BRANCH  13   6
ATOM      6  N   UNL     1      -2.969 -10.133  15.524  0.00  0.00    -0.309 NA
ATOM     27  H   UNL     1      -2.158  -9.580  15.802  0.00  0.00    +0.122 HD
BRANCH   6  16
ATOM     16  C   UNL     1      -3.258 -11.134  16.542  0.00  0.00    +0.116 C 
BRANCH  16  18
ATOM      1  F   UNL     1      -7.655  -9.031  16.803  0.00  0.00    -0.205 F 
ATOM     18  C   UNL     1      -4.526 -10.822  17.292  0.00  0.00    -0.031 A 
ATOM     21  C   UNL     1      -5.523 -10.057  16.687  0.00  0.00    +0.043 A 
ATOM     22  C   UNL     1      -4.703 -11.299  18.591  0.00  0.00    +0.005 A 
ATOM     23  C   UNL     1      -6.698  -9.768  17.382  0.00  0.00    +0.124 A 
ATOM     24  C   UNL     1      -5.878 -11.009  19.285  0.00  0.00    +0.003 A 
ATOM     25  C   UNL     1      -6.875 -10.243  18.681  0.00  0.00    +0.038 A 
ENDBRANCH  16  18
ENDBRANCH   6  16
ENDBRANCH  13   6
ENDBRANCH   8  13
BRANCH  10  14
ATOM     14  C   UNL     1      -2.979  -9.261  10.147  0.00  0.00    +0.090 C 
BRANCH  14  15
ATOM      4  O   UNL     1      -5.963  -9.429   8.131  0.00  0.00    -0.357 OA
ATOM      7  N   UNL     1      -4.646  -9.775   8.411  0.00  0.00    -0.083 NA
ATOM     15  C   UNL     1      -4.348  -9.119   9.537  0.00  0.00    +0.086 A 
ATOM     17  C   UNL     1      -5.427  -8.351  10.008  0.00  0.00    +0.073 A 
ATOM     19  C   UNL     1      -6.416  -8.582   9.089  0.00  0.00    +0.163 A 
BRANCH  19  20
ATOM     20  C   UNL     1      -7.800  -8.113   8.947  0.00  0.00    +0.236 C 
BRANCH  20   5
ATOM      5  O   UNL     1      -7.824  -6.803   8.371  0.00  0.00    -0.375 OA
ATOM     26  C   UNL     1      -8.411  -6.822   7.081  0.00  0.00    +0.194 C 
ENDBRANCH  20   5
ENDBRANCH  19  20
ENDBRANCH  14  15
ENDBRANCH  10  14
TORSDOF 9
ENDMDL
MODEL 9
REMARK VINA RESULT:      -5.9     16.457     20.468
REMARK  Name = 75536292
REMARK  10 active torsions:
REMARK  status: ('A' for Active; 'I' for Inactive)
REMARK    1  A    between atoms: O_3  and  C_9
REMARK    2  A    between atoms: O_5  and  C_20
REMARK    3  A    between atoms: O_5  and  C_26
REMARK    4  A    between atoms: N_6  and  C_13
REMARK    5  A    between atoms: N_6  and  C_16
REMARK    6  A    between atoms: C_8  and  C_13
REMARK    7  A    between atoms: C_10  and  C_14
REMARK    8  A    between atoms: C_14  and  C_15
REMARK    9  A    between atoms: C_16  and  C_18
REMARK   10  A    between atoms: C_19  and  C_20
REMARK                            x       y       z     vdW  Elec       q    Type
REMARK                         _______ _______ _______ _____ _____    ______ ____
ROOT
ATOM      2  O   UNL     1      12.897   2.885   0.468  0.00  0.00    -0.369 OA
ATOM      8  C   UNL     1      13.146   3.641   1.660  0.00  0.00    +0.161 C 
ATOM      9  C   UNL     1      14.565   4.223   1.665  0.00  0.00    +0.145 C 
ATOM     10  C   UNL     1      13.113   3.590  -0.756  0.00  0.00    +0.125 C 
ATOM     11  C   UNL     1      14.902   4.949   0.366  0.00  0.00    +0.036 C 
ATOM     12  C   UNL     1      14.554   4.089  -0.845  0.00  0.00    +0.034 C 
ENDROOT
BRANCH   9   3
ATOM      3  O   UNL     1      15.502   3.153   1.822  0.00  0.00    -0.389 OA
ATOM     28  H   UNL     1      15.661   2.771   0.943  0.00  0.00    +0.210 HD
ENDBRANCH   9   3
BRANCH   8  13
ATOM     13  C   UNL     1      12.066   4.699   1.875  0.00  0.00    +0.115 C 
BRANCH  13   6
ATOM      6  N   UNL     1      12.047   5.148   3.259  0.00  0.00    -0.309 NA
ATOM     27  H   UNL     1      12.793   4.679   3.774  0.00  0.00    +0.122 HD
BRANCH   6  16
ATOM     16  C   UNL     1      10.761   4.866   3.883  0.00  0.00    +0.116 C 
BRANCH  16  18
ATOM      1  F   UNL     1      12.325   8.037   7.247  0.00  0.00    -0.205 F 
ATOM     18  C   UNL     1      10.636   5.522   5.232  0.00  0.00    -0.031 A 
ATOM     21  C   UNL     1      11.556   6.495   5.622  0.00  0.00    +0.043 A 
ATOM     22  C   UNL     1       9.600   5.157   6.092  0.00  0.00    +0.005 A 
ATOM     23  C   UNL     1      11.441   7.104   6.872  0.00  0.00    +0.124 A 
ATOM     24  C   UNL     1       9.485   5.766   7.342  0.00  0.00    +0.003 A 
ATOM     25  C   UNL     1      10.405   6.739   7.732  0.00  0.00    +0.038 A 
ENDBRANCH  16  18
ENDBRANCH   6  16
ENDBRANCH  13   6
ENDBRANCH   8  13
BRANCH  10  14
ATOM     14  C   UNL     1      12.797   2.633  -1.900  0.00  0.00    +0.090 C 
BRANCH  14  15
ATOM      4  O   UNL     1       9.525   3.742  -2.924  0.00  0.00    -0.357 OA
ATOM      7  N   UNL     1      10.478   3.454  -1.955  0.00  0.00    -0.083 NA
ATOM     15  C   UNL     1      11.549   3.037  -2.638  0.00  0.00    +0.086 A 
ATOM     17  C   UNL     1      11.332   3.041  -4.026  0.00  0.00    +0.073 A 
ATOM     19  C   UNL     1      10.045   3.493  -4.152  0.00  0.00    +0.163 A 
BRANCH  19  20
ATOM     20  C   UNL     1       9.164   3.746  -5.299  0.00  0.00    +0.236 C 
BRANCH  20   5
ATOM      5  O   UNL     1       9.442   2.818  -6.352  0.00  0.00    -0.375 OA
ATOM     26  C   UNL     1       9.630   3.487  -7.588  0.00  0.00    +0.194 C 
ENDBRANCH  20   5
ENDBRANCH  19  20
ENDBRANCH  14  15
ENDBRANCH  10  14
TORSDOF 9
ENDMDL
MODEL 10
REMARK VINA RESULT:      -5.9     22.224     24.092
REMARK  Name = 75536292
REMARK  10 active torsions:
REMARK  status: ('A' for Active; 'I' for Inactive)
REMARK    1  A    between atoms: O_3  and  C_9
REMARK    2  A    between atoms: O_5  and  C_20
REMARK    3  A    between atoms: O_5  and  C_26
REMARK    4  A    between atoms: N_6  and  C_13
REMARK    5  A    between atoms: N_6  and  C_16
REMARK    6  A    between atoms: C_8  and  C_13
REMARK    7  A    between atoms: C_10  and  C_14
REMARK    8  A    between atoms: C_14  and  C_15
REMARK    9  A    between atoms: C_16  and  C_18
REMARK   10  A    between atoms: C_19  and  C_20
REMARK                            x       y       z     vdW  Elec       q    Type
REMARK                         _______ _______ _______ _____ _____    ______ ____
ROOT
ATOM      2  O   UNL     1      -9.966   9.003  18.127  0.00  0.00    -0.369 OA
ATOM      8  C   UNL     1     -10.073   9.590  16.824  0.00  0.00    +0.161 C 
ATOM      9  C   UNL     1     -10.975   8.755  15.908  0.00  0.00    +0.145 C 
ATOM     10  C   UNL     1     -11.209   8.767  18.792  0.00  0.00    +0.125 C 
ATOM     11  C   UNL     1     -12.309   8.407  16.563  0.00  0.00    +0.036 C 
ATOM     12  C   UNL     1     -12.097   7.839  17.963  0.00  0.00    +0.034 C 
ENDROOT
BRANCH   9   3
ATOM      3  O   UNL     1     -10.308   7.528  15.598  0.00  0.00    -0.389 OA
ATOM     28  H   UNL     1     -10.573   7.268  14.699  0.00  0.00    +0.210 HD
ENDBRANCH   9   3
BRANCH   8  13
ATOM     13  C   UNL     1     -10.504  11.053  16.914  0.00  0.00    +0.115 C 
BRANCH  13   6
ATOM      6  N   UNL     1     -10.150  11.774  15.702  0.00  0.00    -0.309 NA
ATOM     27  H   UNL     1      -9.224  11.478  15.394  0.00  0.00    +0.122 HD
BRANCH   6  16
ATOM     16  C   UNL     1     -10.159  13.214  15.929  0.00  0.00    +0.116 C 
BRANCH  16  18
ATOM      1  F   UNL     1      -5.296  13.275  15.519  0.00  0.00    -0.205 F 
ATOM     18  C   UNL     1      -8.808  13.723  16.356  0.00  0.00    -0.031 A 
ATOM     21  C   UNL     1      -7.655  13.254  15.726  0.00  0.00    +0.043 A 
ATOM     22  C   UNL     1      -8.710  14.663  17.382  0.00  0.00    +0.005 A 
ATOM     23  C   UNL     1      -6.403  13.726  16.122  0.00  0.00    +0.124 A 
ATOM     24  C   UNL     1      -7.458  15.134  17.778  0.00  0.00    +0.003 A 
ATOM     25  C   UNL     1      -6.304  14.666  17.148  0.00  0.00    +0.038 A 
ENDBRANCH  16  18
ENDBRANCH   6  16
ENDBRANCH  13   6
ENDBRANCH   8  13
BRANCH  10  14
ATOM     14  C   UNL     1     -10.894   8.148  20.149  0.00  0.00    +0.090 C 
BRANCH  14  15
ATOM      4  O   UNL     1     -14.096   7.626  21.719  0.00  0.00    -0.357 OA
ATOM      7  N   UNL     1     -13.132   8.435  21.130  0.00  0.00    -0.083 NA
ATOM     15  C   UNL     1     -12.130   7.608  20.817  0.00  0.00    +0.086 A 
ATOM     17  C   UNL     1     -12.403   6.279  21.180  0.00  0.00    +0.073 A 
ATOM     19  C   UNL     1     -13.651   6.344  21.743  0.00  0.00    +0.163 A 
BRANCH  19  20
ATOM     20  C   UNL     1     -14.552   5.349  22.336  0.00  0.00    +0.236 C 
BRANCH  20   5
ATOM      5  O   UNL     1     -15.429   4.817  21.339  0.00  0.00    -0.375 OA
ATOM     26  C   UNL     1     -16.766   5.234  21.559  0.00  0.00    +0.194 C 
ENDBRANCH  20   5
ENDBRANCH  19  20
ENDBRANCH  14  15
ENDBRANCH  10  14
TORSDOF 9
ENDMDL
