REMARK  Name = 38029875
REMARK  8 active torsions:
REMARK  status: ('A' for Active; 'I' for Inactive)
REMARK    1  A    between atoms: C_7  and  C_11
REMARK    2  A    between atoms: C_9  and  C_15
REMARK    3  A    between atoms: C_10  and  C_14
REMARK    4  A    between atoms: C_11  and  C_16
REMARK    5  A    between atoms: C_11  and  C_17
REMARK    6  A    between atoms: C_12  and  C_19
REMARK    7  A    between atoms: C_14  and  C_18
REMARK    8  A    between atoms: C_15  and  C_24
REMARK                            x       y       z     vdW  Elec       q    Type
REMARK                         _______ _______ _______ _____ _____    ______ ____
ROOT
ATOM     14  C   UNL     1      -1.287   1.057   0.465  0.00  0.00    +0.103 C 
ENDROOT
BRANCH  14  18
ATOM      1  O   UNL     1      -0.632   0.365   2.640  0.00  0.00    -0.276 OA
ATOM      2  N   UNL     1       1.054   0.547   1.052  0.00  0.00    -0.298 N 
ATOM      3  N   UNL     1       3.791   0.148   0.197  0.00  0.00    -0.311 N 
ATOM      5  N   UNL     1       5.817   0.940  -0.745  0.00  0.00    -0.237 NA
ATOM      6  N   UNL     1       6.871  -1.647  -0.496  0.00  0.00    -0.258 NA
ATOM     18  C   UNL     1      -0.268   0.623   1.490  0.00  0.00    +0.216 C 
ATOM     20  C   UNL     1       2.100   0.140   1.986  0.00  0.00    +0.126 C 
ATOM     21  C   UNL     1       1.484   0.844  -0.317  0.00  0.00    +0.126 C 
ATOM     22  C   UNL     1       3.216  -0.638   1.292  0.00  0.00    +0.125 C 
ATOM     23  C   UNL     1       2.968   1.198  -0.408  0.00  0.00    +0.125 C 
ATOM     25  C   UNL     1       5.098  -0.077  -0.229  0.00  0.00    +0.140 A 
ATOM     26  C   UNL     1       5.616  -1.347  -0.107  0.00  0.00    +0.154 A 
ATOM     27  C   UNL     1       7.072   0.641  -1.134  0.00  0.00    +0.132 A 
ATOM     28  C   UNL     1       7.590  -0.630  -1.012  0.00  0.00    +0.130 A 
ENDBRANCH  14  18
BRANCH  14  10
ATOM      7  C   UNL     1      -3.753  -0.948  -0.034  0.00  0.00    -0.000 C 
ATOM      8  C   UNL     1      -3.231  -0.349   1.281  0.00  0.00    +0.012 C 
ATOM      9  C   UNL     1      -4.880  -0.063  -0.622  0.00  0.00    +0.029 C 
ATOM     10  C   UNL     1      -2.684   1.078   1.094  0.00  0.00    +0.023 C 
ATOM     12  C   UNL     1      -3.630   1.943   0.285  0.00  0.00    -0.073 C 
ATOM     13  C   UNL     1      -4.614   1.415  -0.465  0.00  0.00    -0.023 C 
ATOM     19  C   UNL     1      -3.448   3.431   0.394  0.00  0.00    +0.039 C 
BRANCH   7  11
ATOM     11  C   UNL     1      -4.223  -2.387   0.201  0.00  0.00    -0.013 C 
ATOM     16  C   UNL     1      -3.035  -3.344   0.190  0.00  0.00    +0.007 C 
ATOM     17  C   UNL     1      -4.987  -2.488   1.518  0.00  0.00    +0.007 C 
ENDBRANCH   7  11
BRANCH   9  15
ATOM     15  C   UNL     1      -5.122  -0.385  -2.101  0.00  0.00    +0.126 C 
BRANCH  15  24
ATOM      4  N   UNL     1      -2.966   0.064  -3.526  0.00  0.00    -0.197 NA
ATOM     24  C   UNL     1      -3.917  -0.132  -2.890  0.00  0.00    +0.063 C 
ENDBRANCH  15  24
ENDBRANCH   9  15
ENDBRANCH  14  10
TORSDOF 5
