REMARK  Name = 75367061
REMARK  10 active torsions:
REMARK  status: ('A' for Active; 'I' for Inactive)
REMARK    1  A    between atoms: O_2  and  C_8
REMARK    2  A    between atoms: N_4  and  C_6
REMARK    3  A    between atoms: N_4  and  C_7
REMARK    4  A    between atoms: N_5  and  C_16
REMARK    5  A    between atoms: C_9  and  C_16
REMARK    6  A    between atoms: C_17  and  C_18
REMARK    7  A    between atoms: C_17  and  C_20
REMARK    8  A    between atoms: C_17  and  C_21
REMARK    9  A    between atoms: C_17  and  C_22
REMARK   10  A    between atoms: C_18  and  C_19
REMARK                            x       y       z     vdW  Elec       q    Type
REMARK                         _______ _______ _______ _____ _____    ______ ____
ROOT
ATOM      1  O   UNL     1       0.652   0.033  -0.346  0.00  0.00    -0.371 OA
ATOM      6  C   UNL     1      -1.596  -0.579   0.115  0.00  0.00    +0.111 C 
ATOM      8  C   UNL     1      -0.721  -1.816   0.194  0.00  0.00    +0.164 C 
ATOM      9  C   UNL     1       0.651  -1.191   0.408  0.00  0.00    +0.165 C 
ATOM     12  C   UNL     1      -0.708   0.368  -0.674  0.00  0.00    +0.181 C 
ENDROOT
BRANCH   8   2
ATOM      2  O   UNL     1      -1.081  -2.673   1.260  0.00  0.00    -0.388 OA
ATOM     24  H   UNL     1      -1.051  -2.163   2.087  0.00  0.00    +0.210 HD
ENDBRANCH   8   2
BRANCH   6   4
ATOM      4  N   UNL     1      -2.881  -0.814  -0.523  0.00  0.00    -0.306 NA
ATOM     23  H   UNL     1      -3.288  -1.686  -0.185  0.00  0.00    +0.123 HD
BRANCH   4   7
ATOM      7  C   UNL     1      -3.802   0.293  -0.274  0.00  0.00    +0.054 C 
ATOM     10  C   UNL     1      -4.914   0.293  -1.329  0.00  0.00    +0.019 C 
ATOM     11  C   UNL     1      -4.383   0.180   1.140  0.00  0.00    +0.019 C 
ATOM     13  C   UNL     1      -5.940   1.391  -1.056  0.00  0.00    +0.002 C 
ATOM     14  C   UNL     1      -5.409   1.279   1.409  0.00  0.00    +0.002 C 
ATOM     15  C   UNL     1      -6.512   1.290   0.355  0.00  0.00    +0.000 C 
ENDBRANCH   4   7
ENDBRANCH   6   4
BRANCH   9  16
ATOM     16  C   UNL     1       1.794  -2.078  -0.053  0.00  0.00    +0.138 C 
BRANCH  16   5
ATOM      3  O   UNL     1       3.240  -0.364  -1.886  0.00  0.00    -0.276 OA
ATOM      5  N   UNL     1       3.075  -1.446   0.164  0.00  0.00    -0.313 N 
ATOM     19  C   UNL     1       3.692  -0.639  -0.776  0.00  0.00    +0.214 C 
ATOM     25  H   UNL     1       3.529  -1.603   1.059  0.00  0.00    +0.149 HD
BRANCH  19  18
ATOM     18  C   UNL     1       5.035  -0.102  -0.310  0.00  0.00    +0.102 C 
BRANCH  18  17
ATOM     17  C   UNL     1       4.974   1.280   0.384  0.00  0.00    -0.029 C 
ATOM     20  C   UNL     1       4.054   1.250   1.616  0.00  0.00    +0.011 C 
ATOM     21  C   UNL     1       6.375   1.749   0.809  0.00  0.00    +0.011 C 
ATOM     22  C   UNL     1       4.405   2.296  -0.625  0.00  0.00    +0.011 C 
ENDBRANCH  18  17
ENDBRANCH  19  18
ENDBRANCH  16   5
ENDBRANCH   9  16
TORSDOF 7
