MODEL 1
REMARK VINA RESULT:      -7.5      0.000      0.000
REMARK  Name = 75536645
REMARK  7 active torsions:
REMARK  status: ('A' for Active; 'I' for Inactive)
REMARK    1  A    between atoms: O_3  and  C_9
REMARK    2  A    between atoms: N_5  and  C_8
REMARK    3  A    between atoms: N_5  and  C_13
REMARK    4  A    between atoms: N_6  and  C_12
REMARK    5  A    between atoms: C_10  and  C_12
REMARK    6  A    between atoms: C_13  and  C_14
REMARK    7  A    between atoms: C_15  and  C_18
REMARK                            x       y       z     vdW  Elec       q    Type
REMARK                         _______ _______ _______ _____ _____    ______ ____
ROOT
ATOM      2  O   UNL     1      12.929   6.522  20.427  0.00  0.00    -0.371 OA
ATOM      8  C   UNL     1      10.938   7.684  20.999  0.00  0.00    +0.111 C 
ATOM      9  C   UNL     1      11.516   8.287  19.732  0.00  0.00    +0.164 C 
ATOM     10  C   UNL     1      12.404   7.150  19.245  0.00  0.00    +0.165 C 
ATOM     11  C   UNL     1      12.142   6.943  21.556  0.00  0.00    +0.181 C 
ENDROOT
BRANCH   9   3
ATOM      3  O   UNL     1      10.521   8.622  18.784  0.00  0.00    -0.388 OA
ATOM     27  H   UNL     1      10.177   7.798  18.398  0.00  0.00    +0.210 HD
ENDBRANCH   9   3
BRANCH   8   5
ATOM      5  N   UNL     1      10.404   8.671  21.924  0.00  0.00    -0.305 NA
ATOM     26  H   UNL     1       9.816   8.199  22.612  0.00  0.00    +0.123 HD
BRANCH   5  13
ATOM     13  C   UNL     1      11.477   9.369  22.623  0.00  0.00    +0.118 C 
BRANCH  13  14
ATOM      7  N   UNL     1      10.403  12.516  24.433  0.00  0.00    -0.263 NA
ATOM     14  C   UNL     1      11.132  10.812  22.880  0.00  0.00    -0.015 A 
ATOM     16  C   UNL     1      11.210  11.760  21.866  0.00  0.00    +0.008 A 
ATOM     17  C   UNL     1      10.727  11.237  24.135  0.00  0.00    +0.115 A 
ATOM     19  C   UNL     1      10.884  13.085  22.133  0.00  0.00    +0.020 A 
ATOM     22  C   UNL     1      10.489  13.408  23.421  0.00  0.00    +0.111 A 
ENDBRANCH  13  14
ENDBRANCH   5  13
ENDBRANCH   8   5
BRANCH  10  12
ATOM     12  C   UNL     1      13.548   7.619  18.362  0.00  0.00    +0.138 C 
BRANCH  12   6
ATOM      4  O   UNL     1      15.191   9.202  20.105  0.00  0.00    -0.270 OA
ATOM      6  N   UNL     1      14.818   7.246  18.914  0.00  0.00    -0.309 N 
ATOM     15  C   UNL     1      15.549   8.082  19.754  0.00  0.00    +0.244 C 
ATOM     28  H   UNL     1      15.205   6.360  18.607  0.00  0.00    +0.149 HD
BRANCH  15  18
ATOM      1  F   UNL     1      20.499   6.108  21.521  0.00  0.00    -0.205 F 
ATOM     18  C   UNL     1      16.859   7.559  20.222  0.00  0.00    +0.037 A 
ATOM     20  C   UNL     1      17.592   8.267  21.174  0.00  0.00    +0.016 A 
ATOM     21  C   UNL     1      17.356   6.362  19.708  0.00  0.00    +0.016 A 
ATOM     23  C   UNL     1      18.822   7.777  21.613  0.00  0.00    +0.039 A 
ATOM     24  C   UNL     1      18.586   5.872  20.146  0.00  0.00    +0.039 A 
ATOM     25  C   UNL     1      19.319   6.579  21.099  0.00  0.00    +0.123 A 
ENDBRANCH  15  18
ENDBRANCH  12   6
ENDBRANCH  10  12
TORSDOF 7
ENDMDL
MODEL 2
REMARK VINA RESULT:      -7.2      3.484      8.448
REMARK  Name = 75536645
REMARK  7 active torsions:
REMARK  status: ('A' for Active; 'I' for Inactive)
REMARK    1  A    between atoms: O_3  and  C_9
REMARK    2  A    between atoms: N_5  and  C_8
REMARK    3  A    between atoms: N_5  and  C_13
REMARK    4  A    between atoms: N_6  and  C_12
REMARK    5  A    between atoms: C_10  and  C_12
REMARK    6  A    between atoms: C_13  and  C_14
REMARK    7  A    between atoms: C_15  and  C_18
REMARK                            x       y       z     vdW  Elec       q    Type
REMARK                         _______ _______ _______ _____ _____    ______ ____
ROOT
ATOM      2  O   UNL     1      15.613   6.231  19.078  0.00  0.00    -0.371 OA
ATOM      8  C   UNL     1      16.739   6.529  21.148  0.00  0.00    +0.111 C 
ATOM      9  C   UNL     1      15.420   7.279  21.189  0.00  0.00    +0.164 C 
ATOM     10  C   UNL     1      14.646   6.572  20.084  0.00  0.00    +0.165 C 
ATOM     11  C   UNL     1      16.929   6.336  19.653  0.00  0.00    +0.181 C 
ENDROOT
BRANCH   9   3
ATOM      3  O   UNL     1      14.770   7.171  22.441  0.00  0.00    -0.388 OA
ATOM     27  H   UNL     1      13.914   7.630  22.381  0.00  0.00    +0.210 HD
ENDBRANCH   9   3
BRANCH   8   5
ATOM      5  N   UNL     1      17.838   7.249  21.769  0.00  0.00    -0.305 NA
ATOM     26  H   UNL     1      18.062   6.810  22.663  0.00  0.00    +0.123 HD
BRANCH   5  13
ATOM     13  C   UNL     1      19.026   7.226  20.923  0.00  0.00    +0.118 C 
BRANCH  13  14
ATOM      7  N   UNL     1      21.422   5.395  23.213  0.00  0.00    -0.263 NA
ATOM     14  C   UNL     1      20.041   6.226  21.410  0.00  0.00    -0.015 A 
ATOM     16  C   UNL     1      20.536   5.237  20.566  0.00  0.00    +0.008 A 
ATOM     17  C   UNL     1      20.512   6.262  22.712  0.00  0.00    +0.115 A 
ATOM     19  C   UNL     1      21.474   4.328  21.044  0.00  0.00    +0.020 A 
ATOM     22  C   UNL     1      21.880   4.449  22.363  0.00  0.00    +0.111 A 
ENDBRANCH  13  14
ENDBRANCH   5  13
ENDBRANCH   8   5
BRANCH  10  12
ATOM     12  C   UNL     1      13.551   7.430  19.475  0.00  0.00    +0.138 C 
BRANCH  12   6
ATOM      4  O   UNL     1      10.858   8.296  19.967  0.00  0.00    -0.270 OA
ATOM      6  N   UNL     1      13.136   8.463  20.379  0.00  0.00    -0.309 N 
ATOM     15  C   UNL     1      11.801   8.819  20.555  0.00  0.00    +0.244 C 
ATOM     28  H   UNL     1      13.872   8.984  20.844  0.00  0.00    +0.149 HD
BRANCH  15  18
ATOM      1  F   UNL     1      10.803  13.006  24.159  0.00  0.00    -0.205 F 
ATOM     18  C   UNL     1      11.537   9.927  21.509  0.00  0.00    +0.037 A 
ATOM     20  C   UNL     1      11.760  11.249  21.122  0.00  0.00    +0.016 A 
ATOM     21  C   UNL     1      11.067   9.646  22.791  0.00  0.00    +0.016 A 
ATOM     23  C   UNL     1      11.512  12.289  22.017  0.00  0.00    +0.039 A 
ATOM     24  C   UNL     1      10.819  10.686  23.687  0.00  0.00    +0.039 A 
ATOM     25  C   UNL     1      11.042  12.007  23.300  0.00  0.00    +0.123 A 
ENDBRANCH  15  18
ENDBRANCH  12   6
ENDBRANCH  10  12
TORSDOF 7
ENDMDL
MODEL 3
REMARK VINA RESULT:      -7.1      1.294      1.487
REMARK  Name = 75536645
REMARK  7 active torsions:
REMARK  status: ('A' for Active; 'I' for Inactive)
REMARK    1  A    between atoms: O_3  and  C_9
REMARK    2  A    between atoms: N_5  and  C_8
REMARK    3  A    between atoms: N_5  and  C_13
REMARK    4  A    between atoms: N_6  and  C_12
REMARK    5  A    between atoms: C_10  and  C_12
REMARK    6  A    between atoms: C_13  and  C_14
REMARK    7  A    between atoms: C_15  and  C_18
REMARK                            x       y       z     vdW  Elec       q    Type
REMARK                         _______ _______ _______ _____ _____    ______ ____
ROOT
ATOM      2  O   UNL     1      13.701   7.059  21.066  0.00  0.00    -0.371 OA
ATOM      8  C   UNL     1      11.557   8.058  20.855  0.00  0.00    +0.111 C 
ATOM      9  C   UNL     1      12.242   8.067  19.501  0.00  0.00    +0.164 C 
ATOM     10  C   UNL     1      13.285   6.974  19.693  0.00  0.00    +0.165 C 
ATOM     11  C   UNL     1      12.737   7.846  21.788  0.00  0.00    +0.181 C 
ENDROOT
BRANCH   9   3
ATOM      3  O   UNL     1      11.357   7.771  18.439  0.00  0.00    -0.388 OA
ATOM     27  H   UNL     1      11.886   7.542  17.655  0.00  0.00    +0.210 HD
ENDBRANCH   9   3
BRANCH   8   5
ATOM      5  N   UNL     1      10.820   9.278  21.143  0.00  0.00    -0.305 NA
ATOM     26  H   UNL     1      10.288   9.149  22.005  0.00  0.00    +0.123 HD
BRANCH   5  13
ATOM     13  C   UNL     1      11.724  10.410  21.313  0.00  0.00    +0.118 C 
BRANCH  13  14
ATOM      7  N   UNL     1      10.538  11.798  24.630  0.00  0.00    -0.263 NA
ATOM     14  C   UNL     1      11.219  11.380  22.347  0.00  0.00    -0.015 A 
ATOM     16  C   UNL     1      10.966  12.708  22.022  0.00  0.00    +0.008 A 
ATOM     17  C   UNL     1      10.991  10.978  23.654  0.00  0.00    +0.115 A 
ATOM     19  C   UNL     1      10.498  13.581  22.998  0.00  0.00    +0.020 A 
ATOM     22  C   UNL     1      10.302  13.081  24.275  0.00  0.00    +0.111 A 
ENDBRANCH  13  14
ENDBRANCH   5  13
ENDBRANCH   8   5
BRANCH  10  12
ATOM     12  C   UNL     1      14.490   7.127  18.781  0.00  0.00    +0.138 C 
BRANCH  12   6
ATOM      4  O   UNL     1      16.788   5.443  18.426  0.00  0.00    -0.270 OA
ATOM      6  N   UNL     1      15.710   7.174  19.533  0.00  0.00    -0.309 N 
ATOM     15  C   UNL     1      16.778   6.314  19.292  0.00  0.00    +0.244 C 
ATOM     28  H   UNL     1      15.740   7.825  20.310  0.00  0.00    +0.149 HD
BRANCH  15  18
ATOM      1  F   UNL     1      21.251   6.916  22.631  0.00  0.00    -0.205 F 
ATOM     18  C   UNL     1      17.962   6.474  20.175  0.00  0.00    +0.037 A 
ATOM     20  C   UNL     1      18.014   7.526  21.089  0.00  0.00    +0.016 A 
ATOM     21  C   UNL     1      19.021   5.571  20.091  0.00  0.00    +0.016 A 
ATOM     23  C   UNL     1      19.124   7.676  21.919  0.00  0.00    +0.039 A 
ATOM     24  C   UNL     1      20.133   5.720  20.921  0.00  0.00    +0.039 A 
ATOM     25  C   UNL     1      20.184   6.773  21.834  0.00  0.00    +0.123 A 
ENDBRANCH  15  18
ENDBRANCH  12   6
ENDBRANCH  10  12
TORSDOF 7
ENDMDL
MODEL 4
REMARK VINA RESULT:      -6.8      4.600      6.869
REMARK  Name = 75536645
REMARK  7 active torsions:
REMARK  status: ('A' for Active; 'I' for Inactive)
REMARK    1  A    between atoms: O_3  and  C_9
REMARK    2  A    between atoms: N_5  and  C_8
REMARK    3  A    between atoms: N_5  and  C_13
REMARK    4  A    between atoms: N_6  and  C_12
REMARK    5  A    between atoms: C_10  and  C_12
REMARK    6  A    between atoms: C_13  and  C_14
REMARK    7  A    between atoms: C_15  and  C_18
REMARK                            x       y       z     vdW  Elec       q    Type
REMARK                         _______ _______ _______ _____ _____    ______ ____
ROOT
ATOM      2  O   UNL     1      18.091   7.130  21.666  0.00  0.00    -0.371 OA
ATOM      8  C   UNL     1      16.603   6.406  19.962  0.00  0.00    +0.111 C 
ATOM      9  C   UNL     1      18.031   6.165  19.508  0.00  0.00    +0.164 C 
ATOM     10  C   UNL     1      18.767   6.167  20.841  0.00  0.00    +0.165 C 
ATOM     11  C   UNL     1      16.809   7.417  21.078  0.00  0.00    +0.181 C 
ENDROOT
BRANCH   9   3
ATOM      3  O   UNL     1      18.185   4.938  18.822  0.00  0.00    -0.388 OA
ATOM     27  H   UNL     1      19.121   4.842  18.575  0.00  0.00    +0.210 HD
ENDBRANCH   9   3
BRANCH   8   5
ATOM      5  N   UNL     1      15.731   6.898  18.908  0.00  0.00    -0.305 NA
ATOM     26  H   UNL     1      15.100   6.148  18.620  0.00  0.00    +0.123 HD
BRANCH   5  13
ATOM     13  C   UNL     1      14.935   8.030  19.370  0.00  0.00    +0.118 C 
BRANCH  13  14
ATOM      7  N   UNL     1      11.649   7.613  17.537  0.00  0.00    -0.263 NA
ATOM     14  C   UNL     1      13.776   8.311  18.452  0.00  0.00    -0.015 A 
ATOM     16  C   UNL     1      13.731   9.473  17.689  0.00  0.00    +0.008 A 
ATOM     17  C   UNL     1      12.720   7.421  18.341  0.00  0.00    +0.115 A 
ATOM     19  C   UNL     1      12.647   9.705  16.849  0.00  0.00    +0.020 A 
ATOM     22  C   UNL     1      11.642   8.753  16.809  0.00  0.00    +0.111 A 
ENDBRANCH  13  14
ENDBRANCH   5  13
ENDBRANCH   8   5
BRANCH  10  12
ATOM     12  C   UNL     1      20.234   6.539  20.715  0.00  0.00    +0.138 C 
BRANCH  12   6
ATOM      4  O   UNL     1      21.167   5.388  23.175  0.00  0.00    -0.270 OA
ATOM      6  N   UNL     1      21.077   5.387  20.856  0.00  0.00    -0.309 N 
ATOM     15  C   UNL     1      21.482   4.897  22.095  0.00  0.00    +0.244 C 
ATOM     28  H   UNL     1      21.432   4.975  20.000  0.00  0.00    +0.149 HD
BRANCH  15  18
ATOM      1  F   UNL     1      24.862   0.415  22.004  0.00  0.00    -0.205 F 
ATOM     18  C   UNL     1      22.377   3.710  22.071  0.00  0.00    +0.037 A 
ATOM     20  C   UNL     1      22.911   3.264  20.862  0.00  0.00    +0.016 A 
ATOM     21  C   UNL     1      22.682   3.043  23.257  0.00  0.00    +0.016 A 
ATOM     23  C   UNL     1      23.751   2.151  20.839  0.00  0.00    +0.039 A 
ATOM     24  C   UNL     1      23.521   1.930  23.234  0.00  0.00    +0.039 A 
ATOM     25  C   UNL     1      24.056   1.483  22.026  0.00  0.00    +0.123 A 
ENDBRANCH  15  18
ENDBRANCH  12   6
ENDBRANCH  10  12
TORSDOF 7
ENDMDL
MODEL 5
REMARK VINA RESULT:      -6.7      3.408      7.933
REMARK  Name = 75536645
REMARK  7 active torsions:
REMARK  status: ('A' for Active; 'I' for Inactive)
REMARK    1  A    between atoms: O_3  and  C_9
REMARK    2  A    between atoms: N_5  and  C_8
REMARK    3  A    between atoms: N_5  and  C_13
REMARK    4  A    between atoms: N_6  and  C_12
REMARK    5  A    between atoms: C_10  and  C_12
REMARK    6  A    between atoms: C_13  and  C_14
REMARK    7  A    between atoms: C_15  and  C_18
REMARK                            x       y       z     vdW  Elec       q    Type
REMARK                         _______ _______ _______ _____ _____    ______ ____
ROOT
ATOM      2  O   UNL     1      12.441   8.295  18.778  0.00  0.00    -0.371 OA
ATOM      8  C   UNL     1      13.494   6.888  20.376  0.00  0.00    +0.111 C 
ATOM      9  C   UNL     1      13.282   8.260  20.988  0.00  0.00    +0.164 C 
ATOM     10  C   UNL     1      12.182   8.814  20.092  0.00  0.00    +0.165 C 
ATOM     11  C   UNL     1      13.364   7.196  18.894  0.00  0.00    +0.181 C 
ENDROOT
BRANCH   9   3
ATOM      3  O   UNL     1      12.878   8.198  22.342  0.00  0.00    -0.388 OA
ATOM     27  H   UNL     1      12.359   7.384  22.469  0.00  0.00    +0.210 HD
ENDBRANCH   9   3
BRANCH   8   5
ATOM      5  N   UNL     1      14.773   6.288  20.718  0.00  0.00    -0.305 NA
ATOM     26  H   UNL     1      14.661   5.275  20.777  0.00  0.00    +0.123 HD
BRANCH   5  13
ATOM     13  C   UNL     1      15.782   6.592  19.710  0.00  0.00    +0.118 C 
BRANCH  13  14
ATOM      7  N   UNL     1      18.514   8.142  21.824  0.00  0.00    -0.263 NA
ATOM     14  C   UNL     1      17.133   6.838  20.327  0.00  0.00    -0.015 A 
ATOM     16  C   UNL     1      18.226   6.040  20.004  0.00  0.00    +0.008 A 
ATOM     17  C   UNL     1      17.328   7.867  21.234  0.00  0.00    +0.115 A 
ATOM     19  C   UNL     1      19.462   6.293  20.589  0.00  0.00    +0.020 A 
ATOM     22  C   UNL     1      19.552   7.346  21.484  0.00  0.00    +0.111 A 
ENDBRANCH  13  14
ENDBRANCH   5  13
ENDBRANCH   8   5
BRANCH  10  12
ATOM     12  C   UNL     1      12.152  10.332  20.048  0.00  0.00    +0.138 C 
BRANCH  12   6
ATOM      4  O   UNL     1      11.746  13.108  20.658  0.00  0.00    -0.270 OA
ATOM      6  N   UNL     1      11.761  10.883  21.313  0.00  0.00    -0.309 N 
ATOM     15  C   UNL     1      11.587  12.249  21.520  0.00  0.00    +0.244 C 
ATOM     28  H   UNL     1      11.681  10.232  22.087  0.00  0.00    +0.149 HD
BRANCH  15  18
ATOM      1  F   UNL     1      10.142  13.808  26.716  0.00  0.00    -0.205 F 
ATOM     18  C   UNL     1      11.205  12.661  22.895  0.00  0.00    +0.037 A 
ATOM     20  C   UNL     1      10.653  13.923  23.116  0.00  0.00    +0.016 A 
ATOM     21  C   UNL     1      11.397  11.787  23.964  0.00  0.00    +0.016 A 
ATOM     23  C   UNL     1      10.294  14.311  24.407  0.00  0.00    +0.039 A 
ATOM     24  C   UNL     1      11.039  12.175  25.255  0.00  0.00    +0.039 A 
ATOM     25  C   UNL     1      10.487  13.436  25.477  0.00  0.00    +0.123 A 
ENDBRANCH  15  18
ENDBRANCH  12   6
ENDBRANCH  10  12
TORSDOF 7
ENDMDL
MODEL 6
REMARK VINA RESULT:      -6.6      1.710      2.615
REMARK  Name = 75536645
REMARK  7 active torsions:
REMARK  status: ('A' for Active; 'I' for Inactive)
REMARK    1  A    between atoms: O_3  and  C_9
REMARK    2  A    between atoms: N_5  and  C_8
REMARK    3  A    between atoms: N_5  and  C_13
REMARK    4  A    between atoms: N_6  and  C_12
REMARK    5  A    between atoms: C_10  and  C_12
REMARK    6  A    between atoms: C_13  and  C_14
REMARK    7  A    between atoms: C_15  and  C_18
REMARK                            x       y       z     vdW  Elec       q    Type
REMARK                         _______ _______ _______ _____ _____    ______ ____
ROOT
ATOM      2  O   UNL     1      10.502   7.799  22.329  0.00  0.00    -0.371 OA
ATOM      8  C   UNL     1      11.207   9.974  21.685  0.00  0.00    +0.111 C 
ATOM      9  C   UNL     1      11.980   8.945  20.881  0.00  0.00    +0.164 C 
ATOM     10  C   UNL     1      11.073   7.729  21.012  0.00  0.00    +0.165 C 
ATOM     11  C   UNL     1      10.694   9.130  22.841  0.00  0.00    +0.181 C 
ENDROOT
BRANCH   9   3
ATOM      3  O   UNL     1      12.157   9.328  19.531  0.00  0.00    -0.388 OA
ATOM     27  H   UNL     1      11.287   9.561  19.163  0.00  0.00    +0.210 HD
ENDBRANCH   9   3
BRANCH   8   5
ATOM      5  N   UNL     1      12.015  11.100  22.123  0.00  0.00    -0.305 NA
ATOM     26  H   UNL     1      12.887  11.111  21.591  0.00  0.00    +0.123 HD
BRANCH   5  13
ATOM     13  C   UNL     1      11.317  12.363  21.907  0.00  0.00    +0.118 C 
BRANCH  13  14
ATOM      7  N   UNL     1      10.911  15.213  24.366  0.00  0.00    -0.263 NA
ATOM     14  C   UNL     1      11.086  13.103  23.197  0.00  0.00    -0.015 A 
ATOM     16  C   UNL     1      10.843  12.418  24.383  0.00  0.00    +0.008 A 
ATOM     17  C   UNL     1      11.110  14.488  23.241  0.00  0.00    +0.115 A 
ATOM     19  C   UNL     1      10.635  13.129  25.560  0.00  0.00    +0.020 A 
ATOM     22  C   UNL     1      10.679  14.512  25.498  0.00  0.00    +0.111 A 
ENDBRANCH  13  14
ENDBRANCH   5  13
ENDBRANCH   8   5
BRANCH  10  12
ATOM     12  C   UNL     1      11.808   6.411  20.840  0.00  0.00    +0.138 C 
BRANCH  12   6
ATOM      4  O   UNL     1      13.684   6.752  18.693  0.00  0.00    -0.270 OA
ATOM      6  N   UNL     1      13.227   6.587  20.962  0.00  0.00    -0.309 N 
ATOM     15  C   UNL     1      14.064   6.745  19.861  0.00  0.00    +0.244 C 
ATOM     28  H   UNL     1      13.615   6.520  21.897  0.00  0.00    +0.149 HD
BRANCH  15  18
ATOM      1  F   UNL     1      19.541   7.294  20.965  0.00  0.00    -0.205 F 
ATOM     18  C   UNL     1      15.513   6.890  20.153  0.00  0.00    +0.037 A 
ATOM     20  C   UNL     1      16.449   6.167  19.415  0.00  0.00    +0.016 A 
ATOM     21  C   UNL     1      15.937   7.751  21.166  0.00  0.00    +0.016 A 
ATOM     23  C   UNL     1      17.810   6.303  19.689  0.00  0.00    +0.039 A 
ATOM     24  C   UNL     1      17.298   7.887  21.440  0.00  0.00    +0.039 A 
ATOM     25  C   UNL     1      18.234   7.163  20.702  0.00  0.00    +0.123 A 
ENDBRANCH  15  18
ENDBRANCH  12   6
ENDBRANCH  10  12
TORSDOF 7
ENDMDL
MODEL 7
REMARK VINA RESULT:      -6.5     26.494     29.419
REMARK  Name = 75536645
REMARK  7 active torsions:
REMARK  status: ('A' for Active; 'I' for Inactive)
REMARK    1  A    between atoms: O_3  and  C_9
REMARK    2  A    between atoms: N_5  and  C_8
REMARK    3  A    between atoms: N_5  and  C_13
REMARK    4  A    between atoms: N_6  and  C_12
REMARK    5  A    between atoms: C_10  and  C_12
REMARK    6  A    between atoms: C_13  and  C_14
REMARK    7  A    between atoms: C_15  and  C_18
REMARK                            x       y       z     vdW  Elec       q    Type
REMARK                         _______ _______ _______ _____ _____    ______ ____
ROOT
ATOM      2  O   UNL     1     -16.272   4.914  22.257  0.00  0.00    -0.371 OA
ATOM      8  C   UNL     1     -13.925   5.097  21.944  0.00  0.00    +0.111 C 
ATOM      9  C   UNL     1     -14.227   5.092  23.431  0.00  0.00    +0.164 C 
ATOM     10  C   UNL     1     -15.611   4.455  23.447  0.00  0.00    +0.165 C 
ATOM     11  C   UNL     1     -15.282   5.454  21.362  0.00  0.00    +0.181 C 
ENDROOT
BRANCH   9   3
ATOM      3  O   UNL     1     -13.291   4.337  24.176  0.00  0.00    -0.388 OA
ATOM     27  H   UNL     1     -13.412   4.545  25.118  0.00  0.00    +0.210 HD
ENDBRANCH   9   3
BRANCH   8   5
ATOM      5  N   UNL     1     -12.883   6.037  21.564  0.00  0.00    -0.305 NA
ATOM     26  H   UNL     1     -12.220   5.567  20.946  0.00  0.00    +0.123 HD
BRANCH   5  13
ATOM     13  C   UNL     1     -13.442   7.188  20.866  0.00  0.00    +0.118 C 
BRANCH  13  14
ATOM      7  N   UNL     1     -10.915   7.985  18.162  0.00  0.00    -0.263 NA
ATOM     14  C   UNL     1     -12.397   7.925  20.072  0.00  0.00    -0.015 A 
ATOM     16  C   UNL     1     -11.942   9.176  20.472  0.00  0.00    +0.008 A 
ATOM     17  C   UNL     1     -11.856   7.377  18.920  0.00  0.00    +0.115 A 
ATOM     19  C   UNL     1     -10.974   9.832  19.720  0.00  0.00    +0.020 A 
ATOM     22  C   UNL     1     -10.497   9.199  18.583  0.00  0.00    +0.111 A 
ENDBRANCH  13  14
ENDBRANCH   5  13
ENDBRANCH   8   5
BRANCH  10  12
ATOM     12  C   UNL     1     -16.431   4.833  24.668  0.00  0.00    +0.138 C 
BRANCH  12   6
ATOM      4  O   UNL     1     -17.995   3.162  26.403  0.00  0.00    -0.270 OA
ATOM      6  N   UNL     1     -15.969   4.144  25.839  0.00  0.00    -0.309 N 
ATOM     15  C   UNL     1     -16.802   3.351  26.624  0.00  0.00    +0.244 C 
ATOM     28  H   UNL     1     -15.009   4.314  26.118  0.00  0.00    +0.149 HD
BRANCH  15  18
ATOM      1  F   UNL     1     -14.444   0.988  31.138  0.00  0.00    -0.205 F 
ATOM     18  C   UNL     1     -16.178   2.726  27.819  0.00  0.00    +0.037 A 
ATOM     20  C   UNL     1     -15.417   3.500  28.695  0.00  0.00    +0.016 A 
ATOM     21  C   UNL     1     -16.353   1.364  28.064  0.00  0.00    +0.016 A 
ATOM     23  C   UNL     1     -14.832   2.913  29.816  0.00  0.00    +0.039 A 
ATOM     24  C   UNL     1     -15.767   0.777  29.186  0.00  0.00    +0.039 A 
ATOM     25  C   UNL     1     -15.006   1.551  30.061  0.00  0.00    +0.123 A 
ENDBRANCH  15  18
ENDBRANCH  12   6
ENDBRANCH  10  12
TORSDOF 7
ENDMDL
MODEL 8
REMARK VINA RESULT:      -6.3      4.845      7.219
REMARK  Name = 75536645
REMARK  7 active torsions:
REMARK  status: ('A' for Active; 'I' for Inactive)
REMARK    1  A    between atoms: O_3  and  C_9
REMARK    2  A    between atoms: N_5  and  C_8
REMARK    3  A    between atoms: N_5  and  C_13
REMARK    4  A    between atoms: N_6  and  C_12
REMARK    5  A    between atoms: C_10  and  C_12
REMARK    6  A    between atoms: C_13  and  C_14
REMARK    7  A    between atoms: C_15  and  C_18
REMARK                            x       y       z     vdW  Elec       q    Type
REMARK                         _______ _______ _______ _____ _____    ______ ____
ROOT
ATOM      2  O   UNL     1      13.946  10.234  18.028  0.00  0.00    -0.371 OA
ATOM      8  C   UNL     1      13.842  10.683  15.698  0.00  0.00    +0.111 C 
ATOM      9  C   UNL     1      13.287   9.296  15.960  0.00  0.00    +0.164 C 
ATOM     10  C   UNL     1      12.941   9.392  17.440  0.00  0.00    +0.165 C 
ATOM     11  C   UNL     1      14.627  10.939  16.974  0.00  0.00    +0.181 C 
ENDROOT
BRANCH   9   3
ATOM      3  O   UNL     1      12.150   9.005  15.170  0.00  0.00    -0.388 OA
ATOM     27  H   UNL     1      11.355   9.174  15.705  0.00  0.00    +0.210 HD
ENDBRANCH   9   3
BRANCH   8   5
ATOM      5  N   UNL     1      14.665  10.767  14.502  0.00  0.00    -0.305 NA
ATOM     26  H   UNL     1      14.159  11.289  13.785  0.00  0.00    +0.123 HD
BRANCH   5  13
ATOM     13  C   UNL     1      15.925  11.447  14.778  0.00  0.00    +0.118 C 
BRANCH  13  14
ATOM      7  N   UNL     1      18.537  12.872  12.437  0.00  0.00    -0.263 NA
ATOM     14  C   UNL     1      16.588  11.932  13.517  0.00  0.00    -0.015 A 
ATOM     16  C   UNL     1      15.919  11.901  12.298  0.00  0.00    +0.008 A 
ATOM     17  C   UNL     1      17.884  12.422  13.533  0.00  0.00    +0.115 A 
ATOM     19  C   UNL     1      16.557  12.357  11.149  0.00  0.00    +0.020 A 
ATOM     22  C   UNL     1      17.854  12.828  11.271  0.00  0.00    +0.111 A 
ENDBRANCH  13  14
ENDBRANCH   5  13
ENDBRANCH   8   5
BRANCH  10  12
ATOM     12  C   UNL     1      12.924   8.045  18.141  0.00  0.00    +0.138 C 
BRANCH  12   6
ATOM      4  O   UNL     1      13.741   6.736  20.562  0.00  0.00    -0.270 OA
ATOM      6  N   UNL     1      14.251   7.617  18.477  0.00  0.00    -0.309 N 
ATOM     15  C   UNL     1      14.558   6.987  19.680  0.00  0.00    +0.244 C 
ATOM     28  H   UNL     1      14.987   7.858  17.822  0.00  0.00    +0.149 HD
BRANCH  15  18
ATOM      1  F   UNL     1      19.949   5.630  20.469  0.00  0.00    -0.205 F 
ATOM     18  C   UNL     1      15.985   6.628  19.889  0.00  0.00    +0.037 A 
ATOM     20  C   UNL     1      16.623   6.971  21.081  0.00  0.00    +0.016 A 
ATOM     21  C   UNL     1      16.685   5.948  18.893  0.00  0.00    +0.016 A 
ATOM     23  C   UNL     1      17.962   6.634  21.277  0.00  0.00    +0.039 A 
ATOM     24  C   UNL     1      18.024   5.611  19.089  0.00  0.00    +0.039 A 
ATOM     25  C   UNL     1      18.663   5.954  20.280  0.00  0.00    +0.123 A 
ENDBRANCH  15  18
ENDBRANCH  12   6
ENDBRANCH  10  12
TORSDOF 7
ENDMDL
MODEL 9
REMARK VINA RESULT:      -6.3     26.801     29.848
REMARK  Name = 75536645
REMARK  7 active torsions:
REMARK  status: ('A' for Active; 'I' for Inactive)
REMARK    1  A    between atoms: O_3  and  C_9
REMARK    2  A    between atoms: N_5  and  C_8
REMARK    3  A    between atoms: N_5  and  C_13
REMARK    4  A    between atoms: N_6  and  C_12
REMARK    5  A    between atoms: C_10  and  C_12
REMARK    6  A    between atoms: C_13  and  C_14
REMARK    7  A    between atoms: C_15  and  C_18
REMARK                            x       y       z     vdW  Elec       q    Type
REMARK                         _______ _______ _______ _____ _____    ______ ____
ROOT
ATOM      2  O   UNL     1      -7.693 -12.426  19.346  0.00  0.00    -0.371 OA
ATOM      8  C   UNL     1      -6.062 -10.775  18.844  0.00  0.00    +0.111 C 
ATOM      9  C   UNL     1      -7.340 -10.453  18.092  0.00  0.00    +0.164 C 
ATOM     10  C   UNL     1      -8.363 -11.234  18.904  0.00  0.00    +0.165 C 
ATOM     11  C   UNL     1      -6.275 -12.240  19.186  0.00  0.00    +0.181 C 
ENDROOT
BRANCH   9   3
ATOM      3  O   UNL     1      -7.628  -9.068  18.072  0.00  0.00    -0.388 OA
ATOM     27  H   UNL     1      -7.354  -8.687  18.924  0.00  0.00    +0.210 HD
ENDBRANCH   9   3
BRANCH   8   5
ATOM      5  N   UNL     1      -4.854 -10.545  18.067  0.00  0.00    -0.305 NA
ATOM     26  H   UNL     1      -4.042 -10.799  18.631  0.00  0.00    +0.123 HD
BRANCH   5  13
ATOM     13  C   UNL     1      -4.852 -11.350  16.850  0.00  0.00    +0.118 C 
BRANCH  13  14
ATOM      7  N   UNL     1      -2.985 -10.440  13.685  0.00  0.00    -0.263 NA
ATOM     14  C   UNL     1      -3.729 -10.964  15.926  0.00  0.00    -0.015 A 
ATOM     16  C   UNL     1      -2.437 -10.773  16.406  0.00  0.00    +0.008 A 
ATOM     17  C   UNL     1      -3.948 -10.786  14.569  0.00  0.00    +0.115 A 
ATOM     19  C   UNL     1      -1.420 -10.418  15.528  0.00  0.00    +0.020 A 
ATOM     22  C   UNL     1      -1.743 -10.265  14.189  0.00  0.00    +0.111 A 
ENDBRANCH  13  14
ENDBRANCH   5  13
ENDBRANCH   8   5
BRANCH  10  12
ATOM     12  C   UNL     1      -9.603 -11.607  18.109  0.00  0.00    +0.138 C 
BRANCH  12   6
ATOM      4  O   UNL     1     -11.413  -9.677  19.223  0.00  0.00    -0.270 OA
ATOM      6  N   UNL     1     -10.155 -10.464  17.440  0.00  0.00    -0.309 N 
ATOM     15  C   UNL     1     -11.030  -9.577  18.061  0.00  0.00    +0.244 C 
ATOM     28  H   UNL     1      -9.934 -10.363  16.455  0.00  0.00    +0.149 HD
BRANCH  15  18
ATOM      1  F   UNL     1     -12.933  -5.348  14.896  0.00  0.00    -0.205 F 
ATOM     18  C   UNL     1     -11.534  -8.458  17.224  0.00  0.00    +0.037 A 
ATOM     20  C   UNL     1     -10.722  -7.351  16.978  0.00  0.00    +0.016 A 
ATOM     21  C   UNL     1     -12.818  -8.515  16.684  0.00  0.00    +0.016 A 
ATOM     23  C   UNL     1     -11.194  -6.300  16.191  0.00  0.00    +0.039 A 
ATOM     24  C   UNL     1     -13.292  -7.464  15.898  0.00  0.00    +0.039 A 
ATOM     25  C   UNL     1     -12.480  -6.357  15.652  0.00  0.00    +0.123 A 
ENDBRANCH  15  18
ENDBRANCH  12   6
ENDBRANCH  10  12
TORSDOF 7
ENDMDL
MODEL 10
REMARK VINA RESULT:      -6.3     26.747     28.997
REMARK  Name = 75536645
REMARK  7 active torsions:
REMARK  status: ('A' for Active; 'I' for Inactive)
REMARK    1  A    between atoms: O_3  and  C_9
REMARK    2  A    between atoms: N_5  and  C_8
REMARK    3  A    between atoms: N_5  and  C_13
REMARK    4  A    between atoms: N_6  and  C_12
REMARK    5  A    between atoms: C_10  and  C_12
REMARK    6  A    between atoms: C_13  and  C_14
REMARK    7  A    between atoms: C_15  and  C_18
REMARK                            x       y       z     vdW  Elec       q    Type
REMARK                         _______ _______ _______ _____ _____    ______ ____
ROOT
ATOM      2  O   UNL     1      -4.941 -12.069  15.737  0.00  0.00    -0.371 OA
ATOM      8  C   UNL     1      -2.974 -11.283  14.663  0.00  0.00    +0.111 C 
ATOM      9  C   UNL     1      -2.922 -10.902  16.131  0.00  0.00    +0.164 C 
ATOM     10  C   UNL     1      -3.913 -11.893  16.727  0.00  0.00    +0.165 C 
ATOM     11  C   UNL     1      -4.455 -11.569  14.478  0.00  0.00    +0.181 C 
ENDROOT
BRANCH   9   3
ATOM      3  O   UNL     1      -1.630 -11.049  16.688  0.00  0.00    -0.388 OA
ATOM     27  H   UNL     1      -1.720 -11.469  17.561  0.00  0.00    +0.210 HD
ENDBRANCH   9   3
BRANCH   8   5
ATOM      5  N   UNL     1      -2.484 -10.243  13.773  0.00  0.00    -0.305 NA
ATOM     26  H   UNL     1      -1.795  -9.677  14.270  0.00  0.00    +0.123 HD
BRANCH   5  13
ATOM     13  C   UNL     1      -1.854 -10.819  12.590  0.00  0.00    +0.118 C 
BRANCH  13  14
ATOM      7  N   UNL     1      -4.150 -11.673   9.703  0.00  0.00    -0.263 NA
ATOM     14  C   UNL     1      -2.713 -10.660  11.364  0.00  0.00    -0.015 A 
ATOM     16  C   UNL     1      -2.879  -9.418  10.760  0.00  0.00    +0.008 A 
ATOM     17  C   UNL     1      -3.364 -11.746  10.802  0.00  0.00    +0.115 A 
ATOM     19  C   UNL     1      -3.677  -9.303   9.628  0.00  0.00    +0.020 A 
ATOM     22  C   UNL     1      -4.285 -10.450   9.144  0.00  0.00    +0.111 A 
ENDBRANCH  13  14
ENDBRANCH   5  13
ENDBRANCH   8   5
BRANCH  10  12
ATOM     12  C   UNL     1      -4.531 -11.414  18.029  0.00  0.00    +0.138 C 
BRANCH  12   6
ATOM      4  O   UNL     1      -6.474 -10.797  20.051  0.00  0.00    -0.270 OA
ATOM      6  N   UNL     1      -5.850 -10.890  17.818  0.00  0.00    -0.309 N 
ATOM     15  C   UNL     1      -6.729 -10.620  18.863  0.00  0.00    +0.244 C 
ATOM     28  H   UNL     1      -6.150 -10.787  16.854  0.00  0.00    +0.149 HD
BRANCH  15  18
ATOM      1  F   UNL     1     -11.790  -8.673  17.407  0.00  0.00    -0.205 F 
ATOM     18  C   UNL     1      -8.068 -10.105  18.477  0.00  0.00    +0.037 A 
ATOM     20  C   UNL     1      -9.216 -10.633  19.069  0.00  0.00    +0.016 A 
ATOM     21  C   UNL     1      -8.178  -9.093  17.524  0.00  0.00    +0.016 A 
ATOM     23  C   UNL     1     -10.473 -10.149  18.708  0.00  0.00    +0.039 A 
ATOM     24  C   UNL     1      -9.435  -8.609  17.162  0.00  0.00    +0.039 A 
ATOM     25  C   UNL     1     -10.583  -9.138  17.754  0.00  0.00    +0.123 A 
ENDBRANCH  15  18
ENDBRANCH  12   6
ENDBRANCH  10  12
TORSDOF 7
ENDMDL
