MODEL 1
REMARK VINA RESULT:      -7.1      0.000      0.000
REMARK  Name = 11884672
REMARK  6 active torsions:
REMARK  status: ('A' for Active; 'I' for Inactive)
REMARK    1  A    between atoms: S_1  and  N_9
REMARK    2  A    between atoms: S_1  and  C_23
REMARK    3  A    between atoms: N_11  and  C_21
REMARK    4  A    between atoms: C_26  and  C_30
REMARK    5  A    between atoms: C_28  and  C_31
REMARK    6  A    between atoms: C_31  and  C_32
REMARK                            x       y       z     vdW  Elec       q    Type
REMARK                         _______ _______ _______ _____ _____    ______ ____
ROOT
ATOM      7  O   UNL     1      -5.790 -13.782  15.635  0.00  0.00    -0.266 OA
ATOM      9  N   UNL     1      -9.192 -11.027  18.014  0.00  0.00    -0.176 NA
ATOM     10  N   UNL     1      -6.638 -12.844  17.599  0.00  0.00    -0.310 N 
ATOM     12  C   UNL     1      -8.937 -13.453  18.549  0.00  0.00    +0.025 C 
ATOM     13  C   UNL     1      -7.540 -11.797  19.707  0.00  0.00    +0.052 C 
ATOM     14  C   UNL     1      -8.318 -13.096  19.895  0.00  0.00    +0.017 C 
ATOM     15  C   UNL     1      -9.892 -12.342  18.082  0.00  0.00    +0.114 C 
ATOM     16  C   UNL     1      -8.507 -10.672  19.293  0.00  0.00    +0.119 C 
ATOM     17  C   UNL     1      -7.814 -13.722  17.540  0.00  0.00    +0.130 C 
ATOM     18  C   UNL     1      -6.446 -11.962  18.669  0.00  0.00    +0.026 A 
ATOM     19  C   UNL     1      -5.310 -11.250  18.761  0.00  0.00    +0.024 A 
ATOM     20  C   UNL     1      -5.673 -13.008  16.586  0.00  0.00    +0.273 A 
ATOM     21  C   UNL     1      -4.432 -12.180  16.713  0.00  0.00    +0.099 A 
ATOM     22  C   UNL     1      -4.286 -11.362  17.762  0.00  0.00    +0.030 A 
ENDROOT
BRANCH  21  11
ATOM      8  O   UNL     1      -2.357 -10.297  16.131  0.00  0.00    -0.275 OA
ATOM     11  N   UNL     1      -3.479 -12.299  15.745  0.00  0.00    -0.281 N 
ATOM     28  C   UNL     1      -2.494 -11.348  15.510  0.00  0.00    +0.222 C 
ATOM     38  H   UNL     1      -3.647 -13.006  15.033  0.00  0.00    +0.155 HD
BRANCH  28  31
ATOM     31  C   UNL     1      -1.584 -11.767  14.370  0.00  0.00    +0.131 C 
BRANCH  31  32
ATOM     32  C   UNL     1      -2.199 -11.563  13.011  0.00  0.00    -0.039 A 
ATOM     33  C   UNL     1      -2.196 -10.297  12.442  0.00  0.00    +0.004 A 
ATOM     34  C   UNL     1      -2.762 -12.643  12.346  0.00  0.00    +0.004 A 
ATOM     35  C   UNL     1      -2.766 -10.108  11.183  0.00  0.00    +0.000 A 
ATOM     36  C   UNL     1      -3.332 -12.454  11.087  0.00  0.00    +0.000 A 
ATOM     37  C   UNL     1      -3.335 -11.186  10.506  0.00  0.00    +0.000 A 
ENDBRANCH  31  32
ENDBRANCH  28  31
ENDBRANCH  21  11
BRANCH   9   1
ATOM      1  S   UNL     1     -10.068  -9.761  17.268  0.00  0.00    +0.061 S 
ATOM      5  O   UNL     1      -9.653  -8.497  17.839  0.00  0.00    -0.153 OA
ATOM      6  O   UNL     1     -11.468 -10.127  17.210  0.00  0.00    -0.153 OA
BRANCH   1  23
ATOM     23  C   UNL     1      -9.414  -9.853  15.631  0.00  0.00    +0.106 A 
ATOM     24  C   UNL     1      -8.043  -9.919  15.452  0.00  0.00    +0.041 A 
ATOM     25  C   UNL     1     -10.285  -9.857  14.553  0.00  0.00    +0.028 A 
ATOM     26  C   UNL     1      -7.526  -9.989  14.157  0.00  0.00    +0.057 A 
ATOM     27  C   UNL     1      -9.768  -9.927  13.259  0.00  0.00    +0.002 A 
ATOM     29  C   UNL     1      -8.389  -9.994  13.062  0.00  0.00    +0.012 A 
BRANCH  26  30
ATOM      2  F   UNL     1      -5.596 -11.321  13.684  0.00  0.00    -0.166 F 
ATOM      3  F   UNL     1      -5.613  -9.298  12.901  0.00  0.00    -0.166 F 
ATOM      4  F   UNL     1      -5.344  -9.634  15.032  0.00  0.00    -0.166 F 
ATOM     30  C   UNL     1      -6.052 -10.060  13.946  0.00  0.00    +0.417 C 
ENDBRANCH  26  30
ENDBRANCH   1  23
ENDBRANCH   9   1
TORSDOF 6
ENDMDL
MODEL 2
REMARK VINA RESULT:      -6.8      2.772      6.985
REMARK  Name = 11884672
REMARK  6 active torsions:
REMARK  status: ('A' for Active; 'I' for Inactive)
REMARK    1  A    between atoms: S_1  and  N_9
REMARK    2  A    between atoms: S_1  and  C_23
REMARK    3  A    between atoms: N_11  and  C_21
REMARK    4  A    between atoms: C_26  and  C_30
REMARK    5  A    between atoms: C_28  and  C_31
REMARK    6  A    between atoms: C_31  and  C_32
REMARK                            x       y       z     vdW  Elec       q    Type
REMARK                         _______ _______ _______ _____ _____    ______ ____
ROOT
ATOM      7  O   UNL     1      -7.978  -8.911  16.762  0.00  0.00    -0.266 OA
ATOM      9  N   UNL     1      -4.532 -12.267  15.463  0.00  0.00    -0.176 NA
ATOM     10  N   UNL     1      -6.667 -10.780  17.259  0.00  0.00    -0.310 N 
ATOM     12  C   UNL     1      -4.110 -10.696  17.357  0.00  0.00    +0.025 C 
ATOM     13  C   UNL     1      -5.275 -12.817  17.772  0.00  0.00    +0.052 C 
ATOM     14  C   UNL     1      -4.251 -11.844  18.348  0.00  0.00    +0.017 C 
ATOM     15  C   UNL     1      -3.620 -11.214  15.996  0.00  0.00    +0.114 C 
ATOM     16  C   UNL     1      -4.759 -13.379  16.435  0.00  0.00    +0.119 C 
ATOM     17  C   UNL     1      -5.450  -9.957  17.255  0.00  0.00    +0.130 C 
ATOM     18  C   UNL     1      -6.620 -12.142  17.577  0.00  0.00    +0.026 A 
ATOM     19  C   UNL     1      -7.757 -12.849  17.686  0.00  0.00    +0.024 A 
ATOM     20  C   UNL     1      -7.885 -10.109  17.029  0.00  0.00    +0.273 A 
ATOM     21  C   UNL     1      -9.128 -10.938  17.136  0.00  0.00    +0.099 A 
ATOM     22  C   UNL     1      -9.034 -12.233  17.459  0.00  0.00    +0.030 A 
ENDROOT
BRANCH  21  11
ATOM      8  O   UNL     1     -10.759  -9.617  19.081  0.00  0.00    -0.275 OA
ATOM     11  N   UNL     1     -10.326 -10.330  16.908  0.00  0.00    -0.281 N 
ATOM     28  C   UNL     1     -11.074  -9.703  17.897  0.00  0.00    +0.222 C 
ATOM     38  H   UNL     1     -10.781 -10.549  16.025  0.00  0.00    +0.155 HD
BRANCH  28  31
ATOM     31  C   UNL     1     -12.357  -9.121  17.332  0.00  0.00    +0.131 C 
BRANCH  31  32
ATOM     32  C   UNL     1     -12.125  -7.962  16.399  0.00  0.00    -0.039 A 
ATOM     33  C   UNL     1     -12.838  -7.889  15.210  0.00  0.00    +0.004 A 
ATOM     34  C   UNL     1     -11.201  -6.984  16.739  0.00  0.00    +0.004 A 
ATOM     35  C   UNL     1     -12.623  -6.815  14.345  0.00  0.00    +0.000 A 
ATOM     36  C   UNL     1     -10.986  -5.911  15.875  0.00  0.00    +0.000 A 
ATOM     37  C   UNL     1     -11.697  -5.827  14.677  0.00  0.00    +0.000 A 
ENDBRANCH  31  32
ENDBRANCH  28  31
ENDBRANCH  21  11
BRANCH   9   1
ATOM      1  S   UNL     1      -4.246 -12.746  13.846  0.00  0.00    +0.061 S 
ATOM      5  O   UNL     1      -5.117 -13.854  13.518  0.00  0.00    -0.153 OA
ATOM      6  O   UNL     1      -2.817 -12.832  13.626  0.00  0.00    -0.153 OA
BRANCH   1  23
ATOM     23  C   UNL     1      -4.841 -11.321  12.990  0.00  0.00    +0.106 A 
ATOM     24  C   UNL     1      -4.166 -10.872  11.868  0.00  0.00    +0.041 A 
ATOM     25  C   UNL     1      -5.975 -10.675  13.458  0.00  0.00    +0.028 A 
ATOM     26  C   UNL     1      -4.635  -9.744  11.194  0.00  0.00    +0.057 A 
ATOM     27  C   UNL     1      -6.444  -9.548  12.784  0.00  0.00    +0.002 A 
ATOM     29  C   UNL     1      -5.775  -9.083  11.652  0.00  0.00    +0.012 A 
BRANCH  26  30
ATOM      2  F   UNL     1      -2.629  -8.870  10.229  0.00  0.00    -0.166 F 
ATOM      3  F   UNL     1      -3.838 -10.167   8.980  0.00  0.00    -0.166 F 
ATOM      4  F   UNL     1      -4.520  -8.153   9.431  0.00  0.00    -0.166 F 
ATOM     30  C   UNL     1      -3.920  -9.246   9.984  0.00  0.00    +0.417 C 
ENDBRANCH  26  30
ENDBRANCH   1  23
ENDBRANCH   9   1
TORSDOF 6
ENDMDL
MODEL 3
REMARK VINA RESULT:      -6.8     25.068     28.806
REMARK  Name = 11884672
REMARK  6 active torsions:
REMARK  status: ('A' for Active; 'I' for Inactive)
REMARK    1  A    between atoms: S_1  and  N_9
REMARK    2  A    between atoms: S_1  and  C_23
REMARK    3  A    between atoms: N_11  and  C_21
REMARK    4  A    between atoms: C_26  and  C_30
REMARK    5  A    between atoms: C_28  and  C_31
REMARK    6  A    between atoms: C_31  and  C_32
REMARK                            x       y       z     vdW  Elec       q    Type
REMARK                         _______ _______ _______ _____ _____    ______ ____
ROOT
ATOM      7  O   UNL     1      10.950   7.121   1.228  0.00  0.00    -0.266 OA
ATOM      9  N   UNL     1      11.831   3.795  -2.375  0.00  0.00    -0.176 NA
ATOM     10  N   UNL     1      12.239   5.397   0.320  0.00  0.00    -0.310 N 
ATOM     12  C   UNL     1      13.475   5.615  -1.912  0.00  0.00    +0.025 C 
ATOM     13  C   UNL     1      13.601   3.512  -0.651  0.00  0.00    +0.052 C 
ATOM     14  C   UNL     1      14.440   4.599  -1.315  0.00  0.00    +0.017 C 
ATOM     15  C   UNL     1      12.570   4.950  -2.961  0.00  0.00    +0.114 C 
ATOM     16  C   UNL     1      12.735   2.808  -1.712  0.00  0.00    +0.119 C 
ATOM     17  C   UNL     1      12.675   6.269  -0.778  0.00  0.00    +0.130 C 
ATOM     18  C   UNL     1      12.726   4.091   0.445  0.00  0.00    +0.026 A 
ATOM     19  C   UNL     1      12.402   3.350   1.517  0.00  0.00    +0.024 A 
ATOM     20  C   UNL     1      11.391   5.973   1.287  0.00  0.00    +0.273 A 
ATOM     21  C   UNL     1      11.034   5.105   2.455  0.00  0.00    +0.099 A 
ATOM     22  C   UNL     1      11.538   3.869   2.540  0.00  0.00    +0.030 A 
ENDROOT
BRANCH  21  11
ATOM      8  O   UNL     1      11.829   6.517   4.814  0.00  0.00    -0.275 OA
ATOM     11  N   UNL     1      10.205   5.621   3.406  0.00  0.00    -0.281 N 
ATOM     28  C   UNL     1      10.652   6.298   4.535  0.00  0.00    +0.222 C 
ATOM     38  H   UNL     1       9.243   5.292   3.391  0.00  0.00    +0.155 HD
BRANCH  28  31
ATOM     31  C   UNL     1       9.492   6.750   5.402  0.00  0.00    +0.131 C 
BRANCH  31  32
ATOM     32  C   UNL     1       9.461   6.082   6.751  0.00  0.00    -0.039 A 
ATOM     33  C   UNL     1       9.081   6.814   7.867  0.00  0.00    +0.004 A 
ATOM     34  C   UNL     1       9.814   4.744   6.860  0.00  0.00    +0.004 A 
ATOM     35  C   UNL     1       9.053   6.195   9.117  0.00  0.00    +0.000 A 
ATOM     36  C   UNL     1       9.785   4.126   8.109  0.00  0.00    +0.000 A 
ATOM     37  C   UNL     1       9.405   4.851   9.239  0.00  0.00    +0.000 A 
ENDBRANCH  31  32
ENDBRANCH  28  31
ENDBRANCH  21  11
BRANCH   9   1
ATOM      1  S   UNL     1      10.603   3.125  -3.361  0.00  0.00    +0.061 S 
ATOM      5  O   UNL     1      10.050   1.960  -2.704  0.00  0.00    -0.153 OA
ATOM      6  O   UNL     1      11.081   3.054  -4.726  0.00  0.00    -0.153 OA
BRANCH   1  23
ATOM     23  C   UNL     1       9.399   4.414  -3.274  0.00  0.00    +0.106 A 
ATOM     24  C   UNL     1       8.489   4.562  -4.307  0.00  0.00    +0.041 A 
ATOM     25  C   UNL     1       9.387   5.256  -2.173  0.00  0.00    +0.028 A 
ATOM     26  C   UNL     1       7.539   5.582  -4.239  0.00  0.00    +0.057 A 
ATOM     27  C   UNL     1       8.437   6.276  -2.105  0.00  0.00    +0.002 A 
ATOM     29  C   UNL     1       7.514   6.438  -3.138  0.00  0.00    +0.012 A 
BRANCH  26  30
ATOM      2  F   UNL     1       6.308   7.064  -5.656  0.00  0.00    -0.166 F 
ATOM      3  F   UNL     1       6.937   5.175  -6.516  0.00  0.00    -0.166 F 
ATOM      4  F   UNL     1       5.333   5.218  -5.048  0.00  0.00    -0.166 F 
ATOM     30  C   UNL     1       6.552   5.757  -5.343  0.00  0.00    +0.417 C 
ENDBRANCH  26  30
ENDBRANCH   1  23
ENDBRANCH   9   1
TORSDOF 6
ENDMDL
MODEL 4
REMARK VINA RESULT:      -6.7     20.623     22.331
REMARK  Name = 11884672
REMARK  6 active torsions:
REMARK  status: ('A' for Active; 'I' for Inactive)
REMARK    1  A    between atoms: S_1  and  N_9
REMARK    2  A    between atoms: S_1  and  C_23
REMARK    3  A    between atoms: N_11  and  C_21
REMARK    4  A    between atoms: C_26  and  C_30
REMARK    5  A    between atoms: C_28  and  C_31
REMARK    6  A    between atoms: C_31  and  C_32
REMARK                            x       y       z     vdW  Elec       q    Type
REMARK                         _______ _______ _______ _____ _____    ______ ____
ROOT
ATOM      7  O   UNL     1     -13.981   8.248  17.847  0.00  0.00    -0.266 OA
ATOM      9  N   UNL     1     -15.797   8.240  22.486  0.00  0.00    -0.176 NA
ATOM     10  N   UNL     1     -14.315   7.185  19.900  0.00  0.00    -0.310 N 
ATOM     12  C   UNL     1     -16.641   6.603  20.800  0.00  0.00    +0.025 C 
ATOM     13  C   UNL     1     -14.650   6.062  22.132  0.00  0.00    +0.052 C 
ATOM     14  C   UNL     1     -15.922   5.475  21.528  0.00  0.00    +0.017 C 
ATOM     15  C   UNL     1     -17.007   7.731  21.779  0.00  0.00    +0.114 C 
ATOM     16  C   UNL     1     -15.019   7.153  23.153  0.00  0.00    +0.119 C 
ATOM     17  C   UNL     1     -15.759   7.094  19.645  0.00  0.00    +0.130 C 
ATOM     18  C   UNL     1     -13.747   6.632  21.054  0.00  0.00    +0.026 A 
ATOM     19  C   UNL     1     -12.413   6.627  21.213  0.00  0.00    +0.024 A 
ATOM     20  C   UNL     1     -13.528   7.763  18.885  0.00  0.00    +0.273 A 
ATOM     21  C   UNL     1     -12.047   7.759  19.111  0.00  0.00    +0.099 A 
ATOM     22  C   UNL     1     -11.549   7.203  20.222  0.00  0.00    +0.030 A 
ENDROOT
BRANCH  21  11
ATOM      8  O   UNL     1     -11.128  10.468  19.049  0.00  0.00    -0.275 OA
ATOM     11  N   UNL     1     -11.251   8.321  18.158  0.00  0.00    -0.281 N 
ATOM     28  C   UNL     1     -10.837   9.647  18.183  0.00  0.00    +0.222 C 
ATOM     38  H   UNL     1     -11.153   7.801  17.290  0.00  0.00    +0.155 HD
BRANCH  28  31
ATOM     31  C   UNL     1      -9.961   9.973  16.987  0.00  0.00    +0.131 C 
BRANCH  31  32
ATOM     32  C   UNL     1     -10.674   9.828  15.668  0.00  0.00    -0.039 A 
ATOM     33  C   UNL     1     -11.436  10.882  15.184  0.00  0.00    +0.004 A 
ATOM     34  C   UNL     1     -10.561   8.642  14.957  0.00  0.00    +0.004 A 
ATOM     35  C   UNL     1     -12.096  10.748  13.963  0.00  0.00    +0.000 A 
ATOM     36  C   UNL     1     -11.221   8.508  13.736  0.00  0.00    +0.000 A 
ATOM     37  C   UNL     1     -11.989   9.561  13.239  0.00  0.00    +0.000 A 
ENDBRANCH  31  32
ENDBRANCH  28  31
ENDBRANCH  21  11
BRANCH   9   1
ATOM      1  S   UNL     1     -16.024   9.661  23.412  0.00  0.00    +0.061 S 
ATOM      5  O   UNL     1     -16.414   9.294  24.756  0.00  0.00    -0.153 OA
ATOM      6  O   UNL     1     -16.808  10.604  22.641  0.00  0.00    -0.153 OA
BRANCH   1  23
ATOM     23  C   UNL     1     -14.364  10.259  23.476  0.00  0.00    +0.106 A 
ATOM     24  C   UNL     1     -13.694  10.268  24.687  0.00  0.00    +0.041 A 
ATOM     25  C   UNL     1     -13.762  10.710  22.312  0.00  0.00    +0.028 A 
ATOM     26  C   UNL     1     -12.382  10.742  24.737  0.00  0.00    +0.057 A 
ATOM     27  C   UNL     1     -12.451  11.184  22.362  0.00  0.00    +0.002 A 
ATOM     29  C   UNL     1     -11.762  11.200  23.575  0.00  0.00    +0.012 A 
BRANCH  26  30
ATOM      2  F   UNL     1     -10.319  10.457  25.912  0.00  0.00    -0.166 F 
ATOM      3  F   UNL     1     -11.677  11.971  26.663  0.00  0.00    -0.166 F 
ATOM      4  F   UNL     1     -12.144   9.865  26.934  0.00  0.00    -0.166 F 
ATOM     30  C   UNL     1     -11.645  10.761  26.033  0.00  0.00    +0.417 C 
ENDBRANCH  26  30
ENDBRANCH   1  23
ENDBRANCH   9   1
TORSDOF 6
ENDMDL
MODEL 5
REMARK VINA RESULT:      -6.6     29.215     32.075
REMARK  Name = 11884672
REMARK  6 active torsions:
REMARK  status: ('A' for Active; 'I' for Inactive)
REMARK    1  A    between atoms: S_1  and  N_9
REMARK    2  A    between atoms: S_1  and  C_23
REMARK    3  A    between atoms: N_11  and  C_21
REMARK    4  A    between atoms: C_26  and  C_30
REMARK    5  A    between atoms: C_28  and  C_31
REMARK    6  A    between atoms: C_31  and  C_32
REMARK                            x       y       z     vdW  Elec       q    Type
REMARK                         _______ _______ _______ _____ _____    ______ ____
ROOT
ATOM      7  O   UNL     1      15.294  11.312  20.176  0.00  0.00    -0.266 OA
ATOM      9  N   UNL     1      19.730   9.976  22.008  0.00  0.00    -0.176 NA
ATOM     10  N   UNL     1      17.193  11.779  21.453  0.00  0.00    -0.310 N 
ATOM     12  C   UNL     1      19.544  11.915  20.447  0.00  0.00    +0.025 C 
ATOM     13  C   UNL     1      19.230  12.259  22.858  0.00  0.00    +0.052 C 
ATOM     14  C   UNL     1      19.827  12.874  21.596  0.00  0.00    +0.017 C 
ATOM     15  C   UNL     1      20.194  10.548  20.711  0.00  0.00    +0.114 C 
ATOM     16  C   UNL     1      19.921  10.915  23.154  0.00  0.00    +0.119 C 
ATOM     17  C   UNL     1      18.027  11.813  20.244  0.00  0.00    +0.130 C 
ATOM     18  C   UNL     1      17.733  12.062  22.713  0.00  0.00    +0.026 A 
ATOM     19  C   UNL     1      16.931  12.136  23.789  0.00  0.00    +0.024 A 
ATOM     20  C   UNL     1      15.816  11.549  21.266  0.00  0.00    +0.273 A 
ATOM     21  C   UNL     1      14.961  11.618  22.494  0.00  0.00    +0.099 A 
ATOM     22  C   UNL     1      15.519  11.908  23.674  0.00  0.00    +0.030 A 
ENDROOT
BRANCH  21  11
ATOM      8  O   UNL     1      12.959  13.564  21.866  0.00  0.00    -0.275 OA
ATOM     11  N   UNL     1      13.624  11.388  22.357  0.00  0.00    -0.281 N 
ATOM     28  C   UNL     1      12.698  12.378  22.050  0.00  0.00    +0.222 C 
ATOM     38  H   UNL     1      13.280  10.501  22.717  0.00  0.00    +0.155 HD
BRANCH  28  31
ATOM     31  C   UNL     1      11.293  11.811  21.966  0.00  0.00    +0.131 C 
BRANCH  31  32
ATOM     32  C   UNL     1      11.262  10.338  21.656  0.00  0.00    -0.039 A 
ATOM     33  C   UNL     1      11.668   9.894  20.405  0.00  0.00    +0.004 A 
ATOM     34  C   UNL     1      10.826   9.444  22.624  0.00  0.00    +0.004 A 
ATOM     35  C   UNL     1      11.639   8.529  20.118  0.00  0.00    +0.000 A 
ATOM     36  C   UNL     1      10.796   8.080  22.338  0.00  0.00    +0.000 A 
ATOM     37  C   UNL     1      11.203   7.622  21.084  0.00  0.00    +0.000 A 
ENDBRANCH  31  32
ENDBRANCH  28  31
ENDBRANCH  21  11
BRANCH   9   1
ATOM      1  S   UNL     1      20.177   8.350  22.302  0.00  0.00    +0.061 S 
ATOM      5  O   UNL     1      19.918   8.031  23.690  0.00  0.00    -0.153 OA
ATOM      6  O   UNL     1      21.477   8.106  21.712  0.00  0.00    -0.153 OA
BRANCH   1  23
ATOM     23  C   UNL     1      18.970   7.514  21.322  0.00  0.00    +0.106 A 
ATOM     24  C   UNL     1      17.643   7.898  21.408  0.00  0.00    +0.041 A 
ATOM     25  C   UNL     1      19.372   6.486  20.484  0.00  0.00    +0.028 A 
ATOM     26  C   UNL     1      16.689   7.235  20.635  0.00  0.00    +0.057 A 
ATOM     27  C   UNL     1      18.419   5.824  19.711  0.00  0.00    +0.002 A 
ATOM     29  C   UNL     1      17.077   6.199  19.787  0.00  0.00    +0.012 A 
BRANCH  26  30
ATOM      2  F   UNL     1      14.395   6.575  20.783  0.00  0.00    -0.166 F 
ATOM      3  F   UNL     1      14.962   8.400  21.808  0.00  0.00    -0.166 F 
ATOM      4  F   UNL     1      14.851   8.366  19.637  0.00  0.00    -0.166 F 
ATOM     30  C   UNL     1      15.255   7.635  20.717  0.00  0.00    +0.417 C 
ENDBRANCH  26  30
ENDBRANCH   1  23
ENDBRANCH   9   1
TORSDOF 6
ENDMDL
MODEL 6
REMARK VINA RESULT:      -6.6     26.643     28.924
REMARK  Name = 11884672
REMARK  6 active torsions:
REMARK  status: ('A' for Active; 'I' for Inactive)
REMARK    1  A    between atoms: S_1  and  N_9
REMARK    2  A    between atoms: S_1  and  C_23
REMARK    3  A    between atoms: N_11  and  C_21
REMARK    4  A    between atoms: C_26  and  C_30
REMARK    5  A    between atoms: C_28  and  C_31
REMARK    6  A    between atoms: C_31  and  C_32
REMARK                            x       y       z     vdW  Elec       q    Type
REMARK                         _______ _______ _______ _____ _____    ______ ____
ROOT
ATOM      7  O   UNL     1      11.459   7.067   2.083  0.00  0.00    -0.266 OA
ATOM      9  N   UNL     1      10.043   9.686   6.077  0.00  0.00    -0.176 NA
ATOM     10  N   UNL     1       9.867   7.602   3.706  0.00  0.00    -0.310 N 
ATOM     12  C   UNL     1       8.823   9.931   3.913  0.00  0.00    +0.025 C 
ATOM     13  C   UNL     1       8.170   8.160   5.484  0.00  0.00    +0.052 C 
ATOM     14  C   UNL     1       7.628   9.189   4.496  0.00  0.00    +0.017 C 
ATOM     15  C   UNL     1       9.609  10.647   5.023  0.00  0.00    +0.114 C 
ATOM     16  C   UNL     1       8.910   8.882   6.626  0.00  0.00    +0.119 C 
ATOM     17  C   UNL     1       9.691   8.940   3.127  0.00  0.00    +0.130 C 
ATOM     18  C   UNL     1       9.096   7.176   4.794  0.00  0.00    +0.026 A 
ATOM     19  C   UNL     1       9.193   5.912   5.236  0.00  0.00    +0.024 A 
ATOM     20  C   UNL     1      10.772   6.742   3.052  0.00  0.00    +0.273 A 
ATOM     21  C   UNL     1      10.868   5.348   3.590  0.00  0.00    +0.099 A 
ATOM     22  C   UNL     1      10.098   4.982   4.621  0.00  0.00    +0.030 A 
ENDROOT
BRANCH  21  11
ATOM      8  O   UNL     1      10.362   3.755   1.267  0.00  0.00    -0.275 OA
ATOM     11  N   UNL     1      11.742   4.489   2.993  0.00  0.00    -0.281 N 
ATOM     28  C   UNL     1      11.437   3.740   1.862  0.00  0.00    +0.222 C 
ATOM     38  H   UNL     1      12.561   4.230   3.537  0.00  0.00    +0.155 HD
BRANCH  28  31
ATOM     31  C   UNL     1      12.613   2.882   1.437  0.00  0.00    +0.131 C 
BRANCH  31  32
ATOM     32  C   UNL     1      13.331   3.413   0.224  0.00  0.00    -0.039 A 
ATOM     33  C   UNL     1      14.558   4.043   0.378  0.00  0.00    +0.004 A 
ATOM     34  C   UNL     1      12.756   3.267  -1.030  0.00  0.00    +0.004 A 
ATOM     35  C   UNL     1      15.223   4.535  -0.745  0.00  0.00    +0.000 A 
ATOM     36  C   UNL     1      13.420   3.758  -2.153  0.00  0.00    +0.000 A 
ATOM     37  C   UNL     1      14.654   4.393  -2.011  0.00  0.00    +0.000 A 
ENDBRANCH  31  32
ENDBRANCH  28  31
ENDBRANCH  21  11
BRANCH   9   1
ATOM      1  S   UNL     1      11.140  10.304   7.236  0.00  0.00    +0.061 S 
ATOM      5  O   UNL     1      10.653   9.992   8.563  0.00  0.00    -0.153 OA
ATOM      6  O   UNL     1      11.493  11.661   6.873  0.00  0.00    -0.153 OA
BRANCH   1  23
ATOM     23  C   UNL     1      12.539   9.275   6.919  0.00  0.00    +0.106 A 
ATOM     24  C   UNL     1      13.759   9.861   6.629  0.00  0.00    +0.041 A 
ATOM     25  C   UNL     1      12.391   7.898   6.966  0.00  0.00    +0.028 A 
ATOM     26  C   UNL     1      14.864   9.047   6.376  0.00  0.00    +0.057 A 
ATOM     27  C   UNL     1      13.495   7.084   6.713  0.00  0.00    +0.002 A 
ATOM     29  C   UNL     1      14.731   7.659   6.419  0.00  0.00    +0.012 A 
BRANCH  26  30
ATOM      2  F   UNL     1      17.242   8.817   6.260  0.00  0.00    -0.166 F 
ATOM      3  F   UNL     1      16.300  10.073   4.764  0.00  0.00    -0.166 F 
ATOM      4  F   UNL     1      16.449  10.762   6.820  0.00  0.00    -0.166 F 
ATOM     30  C   UNL     1      16.186   9.660   6.060  0.00  0.00    +0.417 C 
ENDBRANCH  26  30
ENDBRANCH   1  23
ENDBRANCH   9   1
TORSDOF 6
ENDMDL
MODEL 7
REMARK VINA RESULT:      -6.6     28.188     30.720
REMARK  Name = 11884672
REMARK  6 active torsions:
REMARK  status: ('A' for Active; 'I' for Inactive)
REMARK    1  A    between atoms: S_1  and  N_9
REMARK    2  A    between atoms: S_1  and  C_23
REMARK    3  A    between atoms: N_11  and  C_21
REMARK    4  A    between atoms: C_26  and  C_30
REMARK    5  A    between atoms: C_28  and  C_31
REMARK    6  A    between atoms: C_31  and  C_32
REMARK                            x       y       z     vdW  Elec       q    Type
REMARK                         _______ _______ _______ _____ _____    ______ ____
ROOT
ATOM      7  O   UNL     1      17.503   9.539  21.523  0.00  0.00    -0.266 OA
ATOM      9  N   UNL     1      12.895   8.406  20.003  0.00  0.00    -0.176 NA
ATOM     10  N   UNL     1      16.048   8.630  19.936  0.00  0.00    -0.310 N 
ATOM     12  C   UNL     1      14.286  10.025  18.708  0.00  0.00    +0.025 C 
ATOM     13  C   UNL     1      14.473   7.620  18.249  0.00  0.00    +0.052 C 
ATOM     14  C   UNL     1      14.454   8.999  17.595  0.00  0.00    +0.017 C 
ATOM     15  C   UNL     1      12.967   9.794  19.462  0.00  0.00    +0.114 C 
ATOM     16  C   UNL     1      13.129   7.367  18.957  0.00  0.00    +0.119 C 
ATOM     17  C   UNL     1      15.508   9.963  19.633  0.00  0.00    +0.130 C 
ATOM     18  C   UNL     1      15.620   7.498  19.234  0.00  0.00    +0.026 A 
ATOM     19  C   UNL     1      16.207   6.309  19.448  0.00  0.00    +0.024 A 
ATOM     20  C   UNL     1      17.083   8.569  20.892  0.00  0.00    +0.273 A 
ATOM     21  C   UNL     1      17.695   7.221  21.118  0.00  0.00    +0.099 A 
ATOM     22  C   UNL     1      17.264   6.170  20.410  0.00  0.00    +0.030 A 
ENDROOT
BRANCH  21  11
ATOM      8  O   UNL     1      20.507   7.368  20.611  0.00  0.00    -0.275 OA
ATOM     11  N   UNL     1      18.690   7.116  22.044  0.00  0.00    -0.281 N 
ATOM     28  C   UNL     1      20.043   7.196  21.735  0.00  0.00    +0.222 C 
ATOM     38  H   UNL     1      18.423   6.741  22.951  0.00  0.00    +0.155 HD
BRANCH  28  31
ATOM     31  C   UNL     1      20.901   7.044  22.977  0.00  0.00    +0.131 C 
BRANCH  31  32
ATOM     32  C   UNL     1      21.905   5.926  22.874  0.00  0.00    -0.039 A 
ATOM     33  C   UNL     1      23.196   6.122  23.345  0.00  0.00    +0.004 A 
ATOM     34  C   UNL     1      21.527   4.717  22.308  0.00  0.00    +0.004 A 
ATOM     35  C   UNL     1      24.126   5.087  23.250  0.00  0.00    +0.000 A 
ATOM     36  C   UNL     1      22.457   3.682  22.212  0.00  0.00    +0.000 A 
ATOM     37  C   UNL     1      23.757   3.867  22.683  0.00  0.00    +0.000 A 
ENDBRANCH  31  32
ENDBRANCH  28  31
ENDBRANCH  21  11
BRANCH   9   1
ATOM      1  S   UNL     1      11.599   8.097  21.076  0.00  0.00    +0.061 S 
ATOM      5  O   UNL     1      11.887   6.898  21.834  0.00  0.00    -0.153 OA
ATOM      6  O   UNL     1      10.349   8.242  20.359  0.00  0.00    -0.153 OA
BRANCH   1  23
ATOM     23  C   UNL     1      11.762   9.475  22.167  0.00  0.00    +0.106 A 
ATOM     24  C   UNL     1      13.022   9.987  22.428  0.00  0.00    +0.041 A 
ATOM     25  C   UNL     1      10.626  10.020  22.744  0.00  0.00    +0.028 A 
ATOM     26  C   UNL     1      13.151  11.076  23.292  0.00  0.00    +0.057 A 
ATOM     27  C   UNL     1      10.755  11.108  23.608  0.00  0.00    +0.002 A 
ATOM     29  C   UNL     1      12.017  11.636  23.881  0.00  0.00    +0.012 A 
BRANCH  26  30
ATOM      2  F   UNL     1      15.395  11.471  22.567  0.00  0.00    -0.166 F 
ATOM      3  F   UNL     1      14.488  12.982  23.832  0.00  0.00    -0.166 F 
ATOM      4  F   UNL     1      15.080  11.070  24.681  0.00  0.00    -0.166 F 
ATOM     30  C   UNL     1      14.499  11.640  23.585  0.00  0.00    +0.417 C 
ENDBRANCH  26  30
ENDBRANCH   1  23
ENDBRANCH   9   1
TORSDOF 6
ENDMDL
MODEL 8
REMARK VINA RESULT:      -6.4     28.450     30.994
REMARK  Name = 11884672
REMARK  6 active torsions:
REMARK  status: ('A' for Active; 'I' for Inactive)
REMARK    1  A    between atoms: S_1  and  N_9
REMARK    2  A    between atoms: S_1  and  C_23
REMARK    3  A    between atoms: N_11  and  C_21
REMARK    4  A    between atoms: C_26  and  C_30
REMARK    5  A    between atoms: C_28  and  C_31
REMARK    6  A    between atoms: C_31  and  C_32
REMARK                            x       y       z     vdW  Elec       q    Type
REMARK                         _______ _______ _______ _____ _____    ______ ____
ROOT
ATOM      7  O   UNL     1      17.376  10.379  20.849  0.00  0.00    -0.266 OA
ATOM      9  N   UNL     1      12.842   8.425  20.184  0.00  0.00    -0.176 NA
ATOM     10  N   UNL     1      15.973   8.766  19.909  0.00  0.00    -0.310 N 
ATOM     12  C   UNL     1      14.115   9.342  18.242  0.00  0.00    +0.025 C 
ATOM     13  C   UNL     1      14.455   7.008  18.929  0.00  0.00    +0.052 C 
ATOM     14  C   UNL     1      14.342   7.929  17.718  0.00  0.00    +0.017 C 
ATOM     15  C   UNL     1      12.819   9.411  19.065  0.00  0.00    +0.114 C 
ATOM     16  C   UNL     1      13.136   7.035  19.722  0.00  0.00    +0.119 C 
ATOM     17  C   UNL     1      15.345   9.778  19.049  0.00  0.00    +0.130 C 
ATOM     18  C   UNL     1      15.614   7.416  19.818  0.00  0.00    +0.026 A 
ATOM     19  C   UNL     1      16.279   6.492  20.532  0.00  0.00    +0.024 A 
ATOM     20  C   UNL     1      17.016   9.206  20.748  0.00  0.00    +0.273 A 
ATOM     21  C   UNL     1      17.715   8.149  21.545  0.00  0.00    +0.099 A 
ATOM     22  C   UNL     1      17.349   6.869  21.413  0.00  0.00    +0.030 A 
ENDROOT
BRANCH  21  11
ATOM      8  O   UNL     1      20.523   7.887  21.054  0.00  0.00    -0.275 OA
ATOM     11  N   UNL     1      18.721   8.536  22.379  0.00  0.00    -0.281 N 
ATOM     28  C   UNL     1      20.071   8.381  22.084  0.00  0.00    +0.222 C 
ATOM     38  H   UNL     1      18.458   8.734  23.341  0.00  0.00    +0.155 HD
BRANCH  28  31
ATOM     31  C   UNL     1      20.944   8.908  23.208  0.00  0.00    +0.131 C 
BRANCH  31  32
ATOM     32  C   UNL     1      21.200   7.893  24.290  0.00  0.00    -0.039 A 
ATOM     33  C   UNL     1      22.169   6.917  24.097  0.00  0.00    +0.004 A 
ATOM     34  C   UNL     1      20.463   7.944  25.465  0.00  0.00    +0.004 A 
ATOM     35  C   UNL     1      22.406   5.977  25.099  0.00  0.00    +0.000 A 
ATOM     36  C   UNL     1      20.700   7.004  26.466  0.00  0.00    +0.000 A 
ATOM     37  C   UNL     1      21.671   6.019  26.284  0.00  0.00    +0.000 A 
ENDBRANCH  31  32
ENDBRANCH  28  31
ENDBRANCH  21  11
BRANCH   9   1
ATOM      1  S   UNL     1      11.575   8.572  21.326  0.00  0.00    +0.061 S 
ATOM      5  O   UNL     1      11.500   7.358  22.110  0.00  0.00    -0.153 OA
ATOM      6  O   UNL     1      10.403   9.104  20.662  0.00  0.00    -0.153 OA
BRANCH   1  23
ATOM     23  C   UNL     1      12.236   9.841  22.360  0.00  0.00    +0.106 A 
ATOM     24  C   UNL     1      11.374  10.618  23.114  0.00  0.00    +0.041 A 
ATOM     25  C   UNL     1      13.607  10.038  22.398  0.00  0.00    +0.028 A 
ATOM     26  C   UNL     1      11.896  11.623  23.930  0.00  0.00    +0.057 A 
ATOM     27  C   UNL     1      14.130  11.042  23.213  0.00  0.00    +0.002 A 
ATOM     29  C   UNL     1      13.274  11.834  23.979  0.00  0.00    +0.012 A 
BRANCH  26  30
ATOM      2  F   UNL     1      11.552  13.639  25.170  0.00  0.00    -0.166 F 
ATOM      3  F   UNL     1       9.848  12.845  24.088  0.00  0.00    -0.166 F 
ATOM      4  F   UNL     1      10.556  11.841  25.882  0.00  0.00    -0.166 F 
ATOM     30  C   UNL     1      10.982  12.471  24.748  0.00  0.00    +0.417 C 
ENDBRANCH  26  30
ENDBRANCH   1  23
ENDBRANCH   9   1
TORSDOF 6
ENDMDL
MODEL 9
REMARK VINA RESULT:      -6.4      3.011      3.677
REMARK  Name = 11884672
REMARK  6 active torsions:
REMARK  status: ('A' for Active; 'I' for Inactive)
REMARK    1  A    between atoms: S_1  and  N_9
REMARK    2  A    between atoms: S_1  and  C_23
REMARK    3  A    between atoms: N_11  and  C_21
REMARK    4  A    between atoms: C_26  and  C_30
REMARK    5  A    between atoms: C_28  and  C_31
REMARK    6  A    between atoms: C_31  and  C_32
REMARK                            x       y       z     vdW  Elec       q    Type
REMARK                         _______ _______ _______ _____ _____    ______ ____
ROOT
ATOM      7  O   UNL     1      -7.260 -11.989  15.699  0.00  0.00    -0.266 OA
ATOM      9  N   UNL     1     -11.046 -11.789  18.931  0.00  0.00    -0.176 NA
ATOM     10  N   UNL     1      -8.278 -12.674  17.687  0.00  0.00    -0.310 N 
ATOM     12  C   UNL     1     -10.515 -13.919  17.743  0.00  0.00    +0.025 C 
ATOM     13  C   UNL     1      -9.368 -13.380  19.847  0.00  0.00    +0.052 C 
ATOM     14  C   UNL     1      -9.988 -14.518  19.041  0.00  0.00    +0.017 C 
ATOM     15  C   UNL     1     -11.582 -12.852  18.034  0.00  0.00    +0.114 C 
ATOM     16  C   UNL     1     -10.450 -12.338  20.185  0.00  0.00    +0.119 C 
ATOM     17  C   UNL     1      -9.335 -13.363  16.935  0.00  0.00    +0.130 C 
ATOM     18  C   UNL     1      -8.229 -12.729  19.084  0.00  0.00    +0.026 A 
ATOM     19  C   UNL     1      -7.192 -12.188  19.745  0.00  0.00    +0.024 A 
ATOM     20  C   UNL     1      -7.268 -12.048  16.929  0.00  0.00    +0.273 A 
ATOM     21  C   UNL     1      -6.141 -11.438  17.705  0.00  0.00    +0.099 A 
ATOM     22  C   UNL     1      -6.130 -11.529  19.039  0.00  0.00    +0.030 A 
ENDROOT
BRANCH  21  11
ATOM      8  O   UNL     1      -4.032 -12.702  16.242  0.00  0.00    -0.275 OA
ATOM     11  N   UNL     1      -5.151 -10.811  17.009  0.00  0.00    -0.281 N 
ATOM     28  C   UNL     1      -4.150 -11.482  16.317  0.00  0.00    +0.222 C 
ATOM     38  H   UNL     1      -5.023  -9.820  17.202  0.00  0.00    +0.155 HD
BRANCH  28  31
ATOM     31  C   UNL     1      -3.198 -10.510  15.645  0.00  0.00    +0.131 C 
BRANCH  31  32
ATOM     32  C   UNL     1      -3.221 -10.596  14.141  0.00  0.00    -0.039 A 
ATOM     33  C   UNL     1      -4.438 -10.587  13.475  0.00  0.00    +0.004 A 
ATOM     34  C   UNL     1      -2.025 -10.686  13.443  0.00  0.00    +0.004 A 
ATOM     35  C   UNL     1      -4.459 -10.666  12.082  0.00  0.00    +0.000 A 
ATOM     36  C   UNL     1      -2.046 -10.766  12.052  0.00  0.00    +0.000 A 
ATOM     37  C   UNL     1      -3.263 -10.756  11.370  0.00  0.00    +0.000 A 
ENDBRANCH  31  32
ENDBRANCH  28  31
ENDBRANCH  21  11
BRANCH   9   1
ATOM      1  S   UNL     1     -12.045 -10.413  19.128  0.00  0.00    +0.061 S 
ATOM      5  O   UNL     1     -11.896  -9.908  20.476  0.00  0.00    -0.153 OA
ATOM      6  O   UNL     1     -13.355 -10.701  18.581  0.00  0.00    -0.153 OA
BRANCH   1  23
ATOM     23  C   UNL     1     -11.237  -9.284  18.037  0.00  0.00    +0.106 A 
ATOM     24  C   UNL     1     -11.999  -8.415  17.276  0.00  0.00    +0.041 A 
ATOM     25  C   UNL     1      -9.853  -9.288  17.962  0.00  0.00    +0.028 A 
ATOM     26  C   UNL     1     -11.360  -7.524  16.412  0.00  0.00    +0.057 A 
ATOM     27  C   UNL     1      -9.215  -8.398  17.099  0.00  0.00    +0.002 A 
ATOM     29  C   UNL     1      -9.968  -7.516  16.325  0.00  0.00    +0.012 A 
BRANCH  26  30
ATOM      2  F   UNL     1     -12.519  -7.091  14.365  0.00  0.00    -0.166 F 
ATOM      3  F   UNL     1     -13.340  -6.207  16.168  0.00  0.00    -0.166 F 
ATOM      4  F   UNL     1     -11.502  -5.420  15.315  0.00  0.00    -0.166 F 
ATOM     30  C   UNL     1     -12.165  -6.582  15.583  0.00  0.00    +0.417 C 
ENDBRANCH  26  30
ENDBRANCH   1  23
ENDBRANCH   9   1
TORSDOF 6
ENDMDL
MODEL 10
REMARK VINA RESULT:      -6.3     21.730     24.611
REMARK  Name = 11884672
REMARK  6 active torsions:
REMARK  status: ('A' for Active; 'I' for Inactive)
REMARK    1  A    between atoms: S_1  and  N_9
REMARK    2  A    between atoms: S_1  and  C_23
REMARK    3  A    between atoms: N_11  and  C_21
REMARK    4  A    between atoms: C_26  and  C_30
REMARK    5  A    between atoms: C_28  and  C_31
REMARK    6  A    between atoms: C_31  and  C_32
REMARK                            x       y       z     vdW  Elec       q    Type
REMARK                         _______ _______ _______ _____ _____    ______ ____
ROOT
ATOM      7  O   UNL     1      -6.610   9.765   4.717  0.00  0.00    -0.266 OA
ATOM      9  N   UNL     1      -1.718  10.652   4.402  0.00  0.00    -0.176 NA
ATOM     10  N   UNL     1      -4.430   9.451   5.495  0.00  0.00    -0.310 N 
ATOM     12  C   UNL     1      -2.999  11.360   6.424  0.00  0.00    +0.025 C 
ATOM     13  C   UNL     1      -2.071   9.090   6.305  0.00  0.00    +0.052 C 
ATOM     14  C   UNL     1      -2.323  10.267   7.242  0.00  0.00    +0.017 C 
ATOM     15  C   UNL     1      -2.093  11.808   5.266  0.00  0.00    +0.114 C 
ATOM     16  C   UNL     1      -1.118   9.524   5.176  0.00  0.00    +0.119 C 
ATOM     17  C   UNL     1      -4.361  10.850   5.938  0.00  0.00    +0.130 C 
ATOM     18  C   UNL     1      -3.371   8.565   5.726  0.00  0.00    +0.026 A 
ATOM     19  C   UNL     1      -3.499   7.265   5.414  0.00  0.00    +0.024 A 
ATOM     20  C   UNL     1      -5.647   9.027   4.924  0.00  0.00    +0.273 A 
ATOM     21  C   UNL     1      -5.741   7.575   4.570  0.00  0.00    +0.099 A 
ATOM     22  C   UNL     1      -4.708   6.763   4.824  0.00  0.00    +0.030 A 
ENDROOT
BRANCH  21  11
ATOM      8  O   UNL     1      -7.624   5.773   5.750  0.00  0.00    -0.275 OA
ATOM     11  N   UNL     1      -6.896   7.127   4.002  0.00  0.00    -0.281 N 
ATOM     28  C   UNL     1      -7.774   6.249   4.628  0.00  0.00    +0.222 C 
ATOM     38  H   UNL     1      -6.991   7.271   3.000  0.00  0.00    +0.155 HD
BRANCH  28  31
ATOM     31  C   UNL     1      -8.967   5.940   3.744  0.00  0.00    +0.131 C 
BRANCH  31  32
ATOM     32  C   UNL     1     -10.288   6.091   4.451  0.00  0.00    -0.039 A 
ATOM     33  C   UNL     1     -11.191   5.037   4.447  0.00  0.00    +0.004 A 
ATOM     34  C   UNL     1     -10.586   7.284   5.095  0.00  0.00    +0.004 A 
ATOM     35  C   UNL     1     -12.414   5.177   5.102  0.00  0.00    +0.000 A 
ATOM     36  C   UNL     1     -11.810   7.425   5.749  0.00  0.00    +0.000 A 
ATOM     37  C   UNL     1     -12.724   6.372   5.752  0.00  0.00    +0.000 A 
ENDBRANCH  31  32
ENDBRANCH  28  31
ENDBRANCH  21  11
BRANCH   9   1
ATOM      1  S   UNL     1      -0.924  11.049   2.939  0.00  0.00    +0.061 S 
ATOM      5  O   UNL     1       0.186  10.142   2.740  0.00  0.00    -0.153 OA
ATOM      6  O   UNL     1      -0.734  12.483   2.881  0.00  0.00    -0.153 OA
BRANCH   1  23
ATOM     23  C   UNL     1      -2.183  10.621   1.777  0.00  0.00    +0.106 A 
ATOM     24  C   UNL     1      -1.869  10.559   0.430  0.00  0.00    +0.041 A 
ATOM     25  C   UNL     1      -3.465  10.357   2.234  0.00  0.00    +0.028 A 
ATOM     26  C   UNL     1      -2.865  10.223  -0.488  0.00  0.00    +0.057 A 
ATOM     27  C   UNL     1      -4.460  10.021   1.317  0.00  0.00    +0.002 A 
ATOM     29  C   UNL     1      -4.160   9.954  -0.044  0.00  0.00    +0.012 A 
BRANCH  26  30
ATOM      2  F   UNL     1      -3.637   9.920  -2.731  0.00  0.00    -0.166 F 
ATOM      3  F   UNL     1      -1.986  11.295  -2.435  0.00  0.00    -0.166 F 
ATOM      4  F   UNL     1      -1.663   9.154  -2.239  0.00  0.00    -0.166 F 
ATOM     30  C   UNL     1      -2.546  10.152  -1.942  0.00  0.00    +0.417 C 
ENDBRANCH  26  30
ENDBRANCH   1  23
ENDBRANCH   9   1
TORSDOF 6
ENDMDL
