MODEL 1
REMARK VINA RESULT:      -6.3      0.000      0.000
REMARK  Name = 75537140
REMARK  6 active torsions:
REMARK  status: ('A' for Active; 'I' for Inactive)
REMARK    1  A    between atoms: O_2  and  C_21
REMARK    2  A    between atoms: O_2  and  C_23
REMARK    3  A    between atoms: N_4  and  C_9
REMARK    4  A    between atoms: N_6  and  C_19
REMARK    5  A    between atoms: C_19  and  C_21
REMARK    6  A    between atoms: C_20  and  C_22
REMARK                            x       y       z     vdW  Elec       q    Type
REMARK                         _______ _______ _______ _____ _____    ______ ____
ROOT
ATOM      1  O   UNL     1      12.125   6.964  18.597  0.00  0.00    -0.252 OA
ATOM      4  N   UNL     1      16.823   7.205  20.504  0.00  0.00    -0.296 NA
ATOM      5  N   UNL     1      14.167   7.500  19.630  0.00  0.00    -0.278 N 
ATOM      6  N   UNL     1      12.263   7.957  20.732  0.00  0.00    -0.281 N 
ATOM      8  C   UNL     1      14.596   8.203  20.821  0.00  0.00    +0.109 C 
ATOM     10  C   UNL     1      15.753   7.459  21.489  0.00  0.00    +0.108 C 
ATOM     11  C   UNL     1      16.322   6.386  19.381  0.00  0.00    +0.104 C 
ATOM     12  C   UNL     1      15.156   7.071  18.664  0.00  0.00    +0.125 C 
ATOM     13  C   UNL     1      13.325   8.301  21.663  0.00  0.00    +0.133 C 
ATOM     16  C   UNL     1      12.771   7.420  19.532  0.00  0.00    +0.305 C 
ENDROOT
BRANCH   4   9
ATOM      3  O   UNL     1      22.701   7.495  22.286  0.00  0.00    -0.276 OA
ATOM      7  N   UNL     1      20.810   6.332  21.597  0.00  0.00    -0.302 N 
ATOM      9  C   UNL     1      17.959   6.548  21.146  0.00  0.00    +0.060 C 
ATOM     14  C   UNL     1      18.711   7.548  22.034  0.00  0.00    +0.038 C 
ATOM     15  C   UNL     1      18.899   5.964  20.083  0.00  0.00    +0.038 C 
ATOM     17  C   UNL     1      19.959   6.907  22.641  0.00  0.00    +0.109 C 
ATOM     18  C   UNL     1      20.144   5.355  20.727  0.00  0.00    +0.109 C 
ATOM     20  C   UNL     1      22.155   6.697  21.520  0.00  0.00    +0.212 C 
ATOM     22  C   UNL     1      22.963   6.063  20.417  0.00  0.00    +0.109 C 
ENDBRANCH   4   9
BRANCH   6  19
ATOM     19  C   UNL     1      10.867   8.033  21.101  0.00  0.00    +0.137 C 
BRANCH  19  21
ATOM     21  C   UNL     1      10.684   8.681  22.462  0.00  0.00    +0.178 C 
BRANCH  21   2
ATOM      2  O   UNL     1      10.739  10.095  22.323  0.00  0.00    -0.381 OA
ATOM     23  C   UNL     1      10.870  10.738  23.584  0.00  0.00    +0.194 C 
ENDBRANCH  21   2
ENDBRANCH  19  21
ENDBRANCH   6  19
TORSDOF 4
ENDMDL
MODEL 2
REMARK VINA RESULT:      -5.9      1.774      8.627
REMARK  Name = 75537140
REMARK  6 active torsions:
REMARK  status: ('A' for Active; 'I' for Inactive)
REMARK    1  A    between atoms: O_2  and  C_21
REMARK    2  A    between atoms: O_2  and  C_23
REMARK    3  A    between atoms: N_4  and  C_9
REMARK    4  A    between atoms: N_6  and  C_19
REMARK    5  A    between atoms: C_19  and  C_21
REMARK    6  A    between atoms: C_20  and  C_22
REMARK                            x       y       z     vdW  Elec       q    Type
REMARK                         _______ _______ _______ _____ _____    ______ ____
ROOT
ATOM      1  O   UNL     1      20.650   8.931  23.089  0.00  0.00    -0.252 OA
ATOM      4  N   UNL     1      16.539   7.536  20.457  0.00  0.00    -0.296 NA
ATOM      5  N   UNL     1      19.059   8.116  21.562  0.00  0.00    -0.278 N 
ATOM      6  N   UNL     1      20.817   6.811  22.066  0.00  0.00    -0.281 N 
ATOM      8  C   UNL     1      18.923   6.971  20.688  0.00  0.00    +0.109 C 
ATOM     10  C   UNL     1      17.490   6.439  20.726  0.00  0.00    +0.108 C 
ATOM     11  C   UNL     1      16.671   8.608  21.465  0.00  0.00    +0.104 C 
ATOM     12  C   UNL     1      18.088   9.188  21.484  0.00  0.00    +0.125 C 
ATOM     13  C   UNL     1      19.983   5.997  21.198  0.00  0.00    +0.133 C 
ATOM     16  C   UNL     1      20.230   8.065  22.331  0.00  0.00    +0.305 C 
ENDROOT
BRANCH   4   9
ATOM      3  O   UNL     1      10.604   8.568  19.224  0.00  0.00    -0.276 OA
ATOM      7  N   UNL     1      12.314   7.498  20.378  0.00  0.00    -0.302 N 
ATOM      9  C   UNL     1      15.170   7.027  20.432  0.00  0.00    +0.060 C 
ATOM     14  C   UNL     1      14.457   7.501  19.159  0.00  0.00    +0.038 C 
ATOM     15  C   UNL     1      14.410   7.499  21.679  0.00  0.00    +0.038 C 
ATOM     17  C   UNL     1      12.993   7.059  19.157  0.00  0.00    +0.109 C 
ATOM     18  C   UNL     1      12.947   7.058  21.628  0.00  0.00    +0.109 C 
ATOM     20  C   UNL     1      11.136   8.240  20.287  0.00  0.00    +0.212 C 
ATOM     22  C   UNL     1      10.499   8.656  21.589  0.00  0.00    +0.109 C 
ENDBRANCH   4   9
BRANCH   6  19
ATOM     19  C   UNL     1      22.020   6.294  22.678  0.00  0.00    +0.137 C 
BRANCH  19  21
ATOM     21  C   UNL     1      22.216   4.822  22.366  0.00  0.00    +0.178 C 
BRANCH  21   2
ATOM      2  O   UNL     1      22.048   4.060  23.555  0.00  0.00    -0.381 OA
ATOM     23  C   UNL     1      23.275   3.910  24.257  0.00  0.00    +0.194 C 
ENDBRANCH  21   2
ENDBRANCH  19  21
ENDBRANCH   6  19
TORSDOF 4
ENDMDL
MODEL 3
REMARK VINA RESULT:      -5.8     31.440     33.472
REMARK  Name = 75537140
REMARK  6 active torsions:
REMARK  status: ('A' for Active; 'I' for Inactive)
REMARK    1  A    between atoms: O_2  and  C_21
REMARK    2  A    between atoms: O_2  and  C_23
REMARK    3  A    between atoms: N_4  and  C_9
REMARK    4  A    between atoms: N_6  and  C_19
REMARK    5  A    between atoms: C_19  and  C_21
REMARK    6  A    between atoms: C_20  and  C_22
REMARK                            x       y       z     vdW  Elec       q    Type
REMARK                         _______ _______ _______ _____ _____    ______ ____
ROOT
ATOM      1  O   UNL     1     -15.659  -0.287  30.120  0.00  0.00    -0.252 OA
ATOM      4  N   UNL     1     -17.465   3.068  26.766  0.00  0.00    -0.296 NA
ATOM      5  N   UNL     1     -16.486   1.564  28.931  0.00  0.00    -0.278 N 
ATOM      6  N   UNL     1     -14.746   1.880  30.316  0.00  0.00    -0.281 N 
ATOM      8  C   UNL     1     -16.260   2.994  28.910  0.00  0.00    +0.109 C 
ATOM     10  C   UNL     1     -16.245   3.509  27.471  0.00  0.00    +0.108 C 
ATOM     11  C   UNL     1     -17.554   1.594  26.738  0.00  0.00    +0.104 C 
ATOM     12  C   UNL     1     -17.571   1.006  28.151  0.00  0.00    +0.125 C 
ATOM     13  C   UNL     1     -14.944   3.164  29.667  0.00  0.00    +0.133 C 
ATOM     16  C   UNL     1     -15.637   0.903  29.829  0.00  0.00    +0.305 C 
ENDROOT
BRANCH   4   9
ATOM      3  O   UNL     1     -14.348   4.572  21.684  0.00  0.00    -0.276 OA
ATOM      7  N   UNL     1     -16.129   4.814  23.157  0.00  0.00    -0.302 N 
ATOM      9  C   UNL     1     -17.490   3.606  25.408  0.00  0.00    +0.060 C 
ATOM     14  C   UNL     1     -16.555   2.793  24.503  0.00  0.00    +0.038 C 
ATOM     15  C   UNL     1     -17.076   5.083  25.418  0.00  0.00    +0.038 C 
ATOM     17  C   UNL     1     -16.493   3.397  23.100  0.00  0.00    +0.109 C 
ATOM     18  C   UNL     1     -17.003   5.641  23.997  0.00  0.00    +0.109 C 
ATOM     20  C   UNL     1     -15.047   5.282  22.411  0.00  0.00    +0.212 C 
ATOM     22  C   UNL     1     -14.735   6.753  22.525  0.00  0.00    +0.109 C 
ENDBRANCH   4   9
BRANCH   6  19
ATOM     19  C   UNL     1     -13.653   1.646  31.234  0.00  0.00    +0.137 C 
BRANCH  19  21
ATOM     21  C   UNL     1     -13.450   2.822  32.172  0.00  0.00    +0.178 C 
BRANCH  21   2
ATOM      2  O   UNL     1     -14.476   2.825  33.156  0.00  0.00    -0.381 OA
ATOM     23  C   UNL     1     -14.574   1.567  33.811  0.00  0.00    +0.194 C 
ENDBRANCH  21   2
ENDBRANCH  19  21
ENDBRANCH   6  19
TORSDOF 4
ENDMDL
MODEL 4
REMARK VINA RESULT:      -5.8      1.922      3.019
REMARK  Name = 75537140
REMARK  6 active torsions:
REMARK  status: ('A' for Active; 'I' for Inactive)
REMARK    1  A    between atoms: O_2  and  C_21
REMARK    2  A    between atoms: O_2  and  C_23
REMARK    3  A    between atoms: N_4  and  C_9
REMARK    4  A    between atoms: N_6  and  C_19
REMARK    5  A    between atoms: C_19  and  C_21
REMARK    6  A    between atoms: C_20  and  C_22
REMARK                            x       y       z     vdW  Elec       q    Type
REMARK                         _______ _______ _______ _____ _____    ______ ____
ROOT
ATOM      1  O   UNL     1      14.428   6.403  19.603  0.00  0.00    -0.252 OA
ATOM      4  N   UNL     1      19.441   6.567  20.384  0.00  0.00    -0.296 NA
ATOM      5  N   UNL     1      16.688   6.945  19.956  0.00  0.00    -0.278 N 
ATOM      6  N   UNL     1      15.129   8.078  21.109  0.00  0.00    -0.281 N 
ATOM      8  C   UNL     1      17.432   7.958  20.674  0.00  0.00    +0.109 C 
ATOM     10  C   UNL     1      18.648   7.337  21.362  0.00  0.00    +0.108 C 
ATOM     11  C   UNL     1      18.634   5.484  19.786  0.00  0.00    +0.104 C 
ATOM     12  C   UNL     1      17.393   6.035  19.078  0.00  0.00    +0.125 C 
ATOM     13  C   UNL     1      16.399   8.565  21.621  0.00  0.00    +0.133 C 
ATOM     16  C   UNL     1      15.305   7.061  20.149  0.00  0.00    +0.305 C 
ENDROOT
BRANCH   4   9
ATOM      3  O   UNL     1      25.426   5.221  19.962  0.00  0.00    -0.276 OA
ATOM      7  N   UNL     1      23.292   4.881  20.816  0.00  0.00    -0.302 N 
ATOM      9  C   UNL     1      20.638   6.019  21.018  0.00  0.00    +0.060 C 
ATOM     14  C   UNL     1      21.859   6.881  20.670  0.00  0.00    +0.038 C 
ATOM     15  C   UNL     1      20.859   4.570  20.563  0.00  0.00    +0.038 C 
ATOM     17  C   UNL     1      23.138   6.273  21.245  0.00  0.00    +0.109 C 
ATOM     18  C   UNL     1      22.158   4.007  21.139  0.00  0.00    +0.109 C 
ATOM     20  C   UNL     1      24.472   4.475  20.191  0.00  0.00    +0.212 C 
ATOM     22  C   UNL     1      24.552   3.027  19.779  0.00  0.00    +0.109 C 
ENDBRANCH   4   9
BRANCH   6  19
ATOM     19  C   UNL     1      13.864   8.510  21.662  0.00  0.00    +0.137 C 
BRANCH  19  21
ATOM     21  C   UNL     1      13.200   9.555  20.784  0.00  0.00    +0.178 C 
BRANCH  21   2
ATOM      2  O   UNL     1      11.792   9.508  20.976  0.00  0.00    -0.381 OA
ATOM     23  C   UNL     1      11.167   8.636  20.044  0.00  0.00    +0.194 C 
ENDBRANCH  21   2
ENDBRANCH  19  21
ENDBRANCH   6  19
TORSDOF 4
ENDMDL
MODEL 5
REMARK VINA RESULT:      -5.7     26.813     30.040
REMARK  Name = 75537140
REMARK  6 active torsions:
REMARK  status: ('A' for Active; 'I' for Inactive)
REMARK    1  A    between atoms: O_2  and  C_21
REMARK    2  A    between atoms: O_2  and  C_23
REMARK    3  A    between atoms: N_4  and  C_9
REMARK    4  A    between atoms: N_6  and  C_19
REMARK    5  A    between atoms: C_19  and  C_21
REMARK    6  A    between atoms: C_20  and  C_22
REMARK                            x       y       z     vdW  Elec       q    Type
REMARK                         _______ _______ _______ _____ _____    ______ ____
ROOT
ATOM      1  O   UNL     1     -17.323   7.349  22.029  0.00  0.00    -0.252 OA
ATOM      4  N   UNL     1     -12.398   7.992  20.982  0.00  0.00    -0.296 NA
ATOM      5  N   UNL     1     -14.975   7.374  21.921  0.00  0.00    -0.278 N 
ATOM      6  N   UNL     1     -16.002   5.416  22.318  0.00  0.00    -0.281 N 
ATOM      8  C   UNL     1     -13.896   6.442  22.169  0.00  0.00    +0.109 C 
ATOM     10  C   UNL     1     -12.816   6.581  21.096  0.00  0.00    +0.108 C 
ATOM     11  C   UNL     1     -13.541   8.853  20.615  0.00  0.00    +0.104 C 
ATOM     12  C   UNL     1     -14.666   8.762  21.649  0.00  0.00    +0.125 C 
ATOM     13  C   UNL     1     -14.592   5.083  22.208  0.00  0.00    +0.133 C 
ATOM     16  C   UNL     1     -16.237   6.786  22.086  0.00  0.00    +0.305 C 
ENDROOT
BRANCH   4   9
ATOM      3  O   UNL     1     -10.127  10.950  16.093  0.00  0.00    -0.276 OA
ATOM      7  N   UNL     1     -10.363   9.070  17.438  0.00  0.00    -0.302 N 
ATOM      9  C   UNL     1     -11.324   8.127  20.001  0.00  0.00    +0.060 C 
ATOM     14  C   UNL     1     -11.022   9.610  19.752  0.00  0.00    +0.038 C 
ATOM     15  C   UNL     1     -11.717   7.432  18.690  0.00  0.00    +0.038 C 
ATOM     17  C   UNL     1      -9.967   9.776  18.659  0.00  0.00    +0.109 C 
ATOM     18  C   UNL     1     -10.648   7.641  17.618  0.00  0.00    +0.109 C 
ATOM     20  C   UNL     1     -10.406   9.756  16.224  0.00  0.00    +0.212 C 
ATOM     22  C   UNL     1     -10.825   8.960  15.015  0.00  0.00    +0.109 C 
ENDBRANCH   4   9
BRANCH   6  19
ATOM     19  C   UNL     1     -17.017   4.401  22.494  0.00  0.00    +0.137 C 
BRANCH  19  21
ATOM     21  C   UNL     1     -16.510   3.244  23.335  0.00  0.00    +0.178 C 
BRANCH  21   2
ATOM      2  O   UNL     1     -16.770   2.020  22.660  0.00  0.00    -0.381 OA
ATOM     23  C   UNL     1     -18.038   1.487  23.018  0.00  0.00    +0.194 C 
ENDBRANCH  21   2
ENDBRANCH  19  21
ENDBRANCH   6  19
TORSDOF 4
ENDMDL
MODEL 6
REMARK VINA RESULT:      -5.7      2.318      8.395
REMARK  Name = 75537140
REMARK  6 active torsions:
REMARK  status: ('A' for Active; 'I' for Inactive)
REMARK    1  A    between atoms: O_2  and  C_21
REMARK    2  A    between atoms: O_2  and  C_23
REMARK    3  A    between atoms: N_4  and  C_9
REMARK    4  A    between atoms: N_6  and  C_19
REMARK    5  A    between atoms: C_19  and  C_21
REMARK    6  A    between atoms: C_20  and  C_22
REMARK                            x       y       z     vdW  Elec       q    Type
REMARK                         _______ _______ _______ _____ _____    ______ ____
ROOT
ATOM      1  O   UNL     1      19.380   5.584  20.346  0.00  0.00    -0.252 OA
ATOM      4  N   UNL     1      14.990   8.095  20.776  0.00  0.00    -0.296 NA
ATOM      5  N   UNL     1      17.543   6.928  20.932  0.00  0.00    -0.278 N 
ATOM      6  N   UNL     1      19.600   7.823  21.057  0.00  0.00    -0.281 N 
ATOM      8  C   UNL     1      17.335   8.240  21.508  0.00  0.00    +0.109 C 
ATOM     10  C   UNL     1      16.188   8.957  20.795  0.00  0.00    +0.108 C 
ATOM     11  C   UNL     1      15.263   6.827  20.069  0.00  0.00    +0.104 C 
ATOM     12  C   UNL     1      16.408   6.053  20.729  0.00  0.00    +0.125 C 
ATOM     13  C   UNL     1      18.697   8.916  21.373  0.00  0.00    +0.133 C 
ATOM     16  C   UNL     1      18.901   6.642  20.734  0.00  0.00    +0.305 C 
ENDROOT
BRANCH   4   9
ATOM      3  O   UNL     1      10.449   8.032  16.630  0.00  0.00    -0.276 OA
ATOM      7  N   UNL     1      12.029   9.121  17.940  0.00  0.00    -0.302 N 
ATOM      9  C   UNL     1      13.870   8.795  20.150  0.00  0.00    +0.060 C 
ATOM     14  C   UNL     1      12.703   7.824  19.925  0.00  0.00    +0.038 C 
ATOM     15  C   UNL     1      14.314   9.416  18.819  0.00  0.00    +0.038 C 
ATOM     17  C   UNL     1      11.556   8.512  19.186  0.00  0.00    +0.109 C 
ATOM     18  C   UNL     1      13.135  10.072  18.101  0.00  0.00    +0.109 C 
ATOM     20  C   UNL     1      11.401   8.808  16.734  0.00  0.00    +0.212 C 
ATOM     22  C   UNL     1      11.948   9.475  15.497  0.00  0.00    +0.109 C 
ENDBRANCH   4   9
BRANCH   6  19
ATOM     19  C   UNL     1      21.029   8.015  20.951  0.00  0.00    +0.137 C 
BRANCH  19  21
ATOM     21  C   UNL     1      21.745   7.590  22.221  0.00  0.00    +0.178 C 
BRANCH  21   2
ATOM      2  O   UNL     1      23.010   7.033  21.887  0.00  0.00    -0.381 OA
ATOM     23  C   UNL     1      22.903   6.099  20.821  0.00  0.00    +0.194 C 
ENDBRANCH  21   2
ENDBRANCH  19  21
ENDBRANCH   6  19
TORSDOF 4
ENDMDL
MODEL 7
REMARK VINA RESULT:      -5.6     26.828     29.410
REMARK  Name = 75537140
REMARK  6 active torsions:
REMARK  status: ('A' for Active; 'I' for Inactive)
REMARK    1  A    between atoms: O_2  and  C_21
REMARK    2  A    between atoms: O_2  and  C_23
REMARK    3  A    between atoms: N_4  and  C_9
REMARK    4  A    between atoms: N_6  and  C_19
REMARK    5  A    between atoms: C_19  and  C_21
REMARK    6  A    between atoms: C_20  and  C_22
REMARK                            x       y       z     vdW  Elec       q    Type
REMARK                         _______ _______ _______ _____ _____    ______ ____
ROOT
ATOM      1  O   UNL     1      -9.409 -10.662  20.090  0.00  0.00    -0.252 OA
ATOM      4  N   UNL     1      -5.750 -12.527  17.108  0.00  0.00    -0.296 NA
ATOM      5  N   UNL     1      -8.063 -11.586  18.400  0.00  0.00    -0.278 N 
ATOM      6  N   UNL     1      -9.583 -10.036  17.822  0.00  0.00    -0.281 N 
ATOM      8  C   UNL     1      -7.995 -11.531  16.954  0.00  0.00    +0.109 C 
ATOM     10  C   UNL     1      -6.540 -11.441  16.494  0.00  0.00    +0.108 C 
ATOM     11  C   UNL     1      -5.783 -12.436  18.582  0.00  0.00    +0.104 C 
ATOM     12  C   UNL     1      -7.216 -12.517  19.115  0.00  0.00    +0.125 C 
ATOM     13  C   UNL     1      -8.857 -10.323  16.596  0.00  0.00    +0.133 C 
ATOM     16  C   UNL     1      -9.064 -10.754  18.918  0.00  0.00    +0.305 C 
ENDROOT
BRANCH   4   9
ATOM      3  O   UNL     1      -1.408  -9.549  13.931  0.00  0.00    -0.276 OA
ATOM      7  N   UNL     1      -2.380 -11.481  14.782  0.00  0.00    -0.302 N 
ATOM      9  C   UNL     1      -4.370 -12.487  16.627  0.00  0.00    +0.060 C 
ATOM     14  C   UNL     1      -3.815 -11.062  16.742  0.00  0.00    +0.038 C 
ATOM     15  C   UNL     1      -4.305 -12.972  15.172  0.00  0.00    +0.038 C 
ATOM     17  C   UNL     1      -2.406 -10.977  16.157  0.00  0.00    +0.109 C 
ATOM     18  C   UNL     1      -2.886 -12.849  14.617  0.00  0.00    +0.109 C 
ATOM     20  C   UNL     1      -1.861 -10.684  13.761  0.00  0.00    +0.212 C 
ATOM     22  C   UNL     1      -1.872 -11.273  12.374  0.00  0.00    +0.109 C 
ENDBRANCH   4   9
BRANCH   6  19
ATOM     19  C   UNL     1     -10.605  -9.015  17.886  0.00  0.00    +0.137 C 
BRANCH  19  21
ATOM     21  C   UNL     1     -10.179  -7.752  17.160  0.00  0.00    +0.178 C 
BRANCH  21   2
ATOM      2  O   UNL     1     -11.326  -6.965  16.868  0.00  0.00    -0.381 OA
ATOM     23  C   UNL     1     -11.121  -6.150  15.722  0.00  0.00    +0.194 C 
ENDBRANCH  21   2
ENDBRANCH  19  21
ENDBRANCH   6  19
TORSDOF 4
ENDMDL
MODEL 8
REMARK VINA RESULT:      -5.6     31.318     32.972
REMARK  Name = 75537140
REMARK  6 active torsions:
REMARK  status: ('A' for Active; 'I' for Inactive)
REMARK    1  A    between atoms: O_2  and  C_21
REMARK    2  A    between atoms: O_2  and  C_23
REMARK    3  A    between atoms: N_4  and  C_9
REMARK    4  A    between atoms: N_6  and  C_19
REMARK    5  A    between atoms: C_19  and  C_21
REMARK    6  A    between atoms: C_20  and  C_22
REMARK                            x       y       z     vdW  Elec       q    Type
REMARK                         _______ _______ _______ _____ _____    ______ ____
ROOT
ATOM      1  O   UNL     1     -12.409   7.057  36.600  0.00  0.00    -0.252 OA
ATOM      4  N   UNL     1     -14.922   5.095  32.651  0.00  0.00    -0.296 NA
ATOM      5  N   UNL     1     -13.793   6.564  34.766  0.00  0.00    -0.278 N 
ATOM      6  N   UNL     1     -12.793   8.574  34.835  0.00  0.00    -0.281 N 
ATOM      8  C   UNL     1     -14.329   7.276  33.624  0.00  0.00    +0.109 C 
ATOM     10  C   UNL     1     -14.277   6.395  32.376  0.00  0.00    +0.108 C 
ATOM     11  C   UNL     1     -14.239   4.389  33.754  0.00  0.00    +0.104 C 
ATOM     12  C   UNL     1     -14.250   5.218  35.041  0.00  0.00    +0.125 C 
ATOM     13  C   UNL     1     -13.476   8.541  33.553  0.00  0.00    +0.133 C 
ATOM     16  C   UNL     1     -12.936   7.361  35.537  0.00  0.00    +0.305 C 
ENDROOT
BRANCH   4   9
ATOM      3  O   UNL     1     -15.946  -0.404  30.098  0.00  0.00    -0.276 OA
ATOM      7  N   UNL     1     -14.887   1.662  30.187  0.00  0.00    -0.302 N 
ATOM      9  C   UNL     1     -14.932   4.268  31.446  0.00  0.00    +0.060 C 
ATOM     14  C   UNL     1     -16.164   3.353  31.448  0.00  0.00    +0.038 C 
ATOM     15  C   UNL     1     -13.646   3.435  31.369  0.00  0.00    +0.038 C 
ATOM     17  C   UNL     1     -16.144   2.411  30.244  0.00  0.00    +0.109 C 
ATOM     18  C   UNL     1     -13.676   2.491  30.167  0.00  0.00    +0.109 C 
ATOM     20  C   UNL     1     -14.913   0.269  30.116  0.00  0.00    +0.212 C 
ATOM     22  C   UNL     1     -13.578  -0.429  30.062  0.00  0.00    +0.109 C 
ENDBRANCH   4   9
BRANCH   6  19
ATOM     19  C   UNL     1     -11.954   9.685  35.227  0.00  0.00    +0.137 C 
BRANCH  19  21
ATOM     21  C   UNL     1     -12.758  10.964  35.377  0.00  0.00    +0.178 C 
BRANCH  21   2
ATOM      2  O   UNL     1     -12.008  12.056  34.859  0.00  0.00    -0.381 OA
ATOM     23  C   UNL     1     -11.451  11.749  33.588  0.00  0.00    +0.194 C 
ENDBRANCH  21   2
ENDBRANCH  19  21
ENDBRANCH   6  19
TORSDOF 4
ENDMDL
MODEL 9
REMARK VINA RESULT:      -5.5     25.662     28.895
REMARK  Name = 75537140
REMARK  6 active torsions:
REMARK  status: ('A' for Active; 'I' for Inactive)
REMARK    1  A    between atoms: O_2  and  C_21
REMARK    2  A    between atoms: O_2  and  C_23
REMARK    3  A    between atoms: N_4  and  C_9
REMARK    4  A    between atoms: N_6  and  C_19
REMARK    5  A    between atoms: C_19  and  C_21
REMARK    6  A    between atoms: C_20  and  C_22
REMARK                            x       y       z     vdW  Elec       q    Type
REMARK                         _______ _______ _______ _____ _____    ______ ____
ROOT
ATOM      1  O   UNL     1     -10.451   9.475  15.231  0.00  0.00    -0.252 OA
ATOM      4  N   UNL     1     -11.279   8.002  20.017  0.00  0.00    -0.296 NA
ATOM      5  N   UNL     1     -10.475   9.079  17.547  0.00  0.00    -0.278 N 
ATOM      6  N   UNL     1     -10.252  11.197  16.832  0.00  0.00    -0.281 N 
ATOM      8  C   UNL     1     -10.256   9.849  18.754  0.00  0.00    +0.109 C 
ATOM     10  C   UNL     1     -11.279   9.465  19.823  0.00  0.00    +0.108 C 
ATOM     11  C   UNL     1     -11.624   7.303  18.762  0.00  0.00    +0.104 C 
ATOM     12  C   UNL     1     -10.638   7.643  17.642  0.00  0.00    +0.125 C 
ATOM     13  C   UNL     1     -10.336  11.298  18.278  0.00  0.00    +0.133 C 
ATOM     16  C   UNL     1     -10.395   9.866  16.390  0.00  0.00    +0.305 C 
ENDROOT
BRANCH   4   9
ATOM      3  O   UNL     1     -15.877   4.382  21.904  0.00  0.00    -0.276 OA
ATOM      7  N   UNL     1     -14.669   6.366  21.939  0.00  0.00    -0.302 N 
ATOM      9  C   UNL     1     -12.210   7.630  21.080  0.00  0.00    +0.060 C 
ATOM     14  C   UNL     1     -12.349   6.103  21.146  0.00  0.00    +0.038 C 
ATOM     15  C   UNL     1     -13.577   8.282  20.835  0.00  0.00    +0.038 C 
ATOM     17  C   UNL     1     -13.391   5.696  22.188  0.00  0.00    +0.109 C 
ATOM     18  C   UNL     1     -14.595   7.831  21.882  0.00  0.00    +0.109 C 
ATOM     20  C   UNL     1     -15.836   5.611  21.817  0.00  0.00    +0.212 C 
ATOM     22  C   UNL     1     -17.109   6.376  21.559  0.00  0.00    +0.109 C 
ENDBRANCH   4   9
BRANCH   6  19
ATOM     19  C   UNL     1     -10.183  12.366  15.984  0.00  0.00    +0.137 C 
BRANCH  19  21
ATOM     21  C   UNL     1      -8.759  12.875  15.850  0.00  0.00    +0.178 C 
BRANCH  21   2
ATOM      2  O   UNL     1      -8.299  13.331  17.115  0.00  0.00    -0.381 OA
ATOM     23  C   UNL     1      -7.398  14.422  16.979  0.00  0.00    +0.194 C 
ENDBRANCH  21   2
ENDBRANCH  19  21
ENDBRANCH   6  19
TORSDOF 4
ENDMDL
MODEL 10
REMARK VINA RESULT:      -5.4     26.588     29.519
REMARK  Name = 75537140
REMARK  6 active torsions:
REMARK  status: ('A' for Active; 'I' for Inactive)
REMARK    1  A    between atoms: O_2  and  C_21
REMARK    2  A    between atoms: O_2  and  C_23
REMARK    3  A    between atoms: N_4  and  C_9
REMARK    4  A    between atoms: N_6  and  C_19
REMARK    5  A    between atoms: C_19  and  C_21
REMARK    6  A    between atoms: C_20  and  C_22
REMARK                            x       y       z     vdW  Elec       q    Type
REMARK                         _______ _______ _______ _____ _____    ______ ____
ROOT
ATOM      1  O   UNL     1      -1.045  -9.843  14.839  0.00  0.00    -0.252 OA
ATOM      4  N   UNL     1      -3.586 -10.178  10.458  0.00  0.00    -0.296 NA
ATOM      5  N   UNL     1      -2.360 -10.415  12.977  0.00  0.00    -0.278 N 
ATOM      6  N   UNL     1      -3.197 -10.790  15.028  0.00  0.00    -0.281 N 
ATOM      8  C   UNL     1      -3.612 -11.102  12.739  0.00  0.00    +0.109 C 
ATOM     10  C   UNL     1      -4.419 -10.378  11.661  0.00  0.00    +0.108 C 
ATOM     11  C   UNL     1      -2.390  -9.371  10.772  0.00  0.00    +0.104 C 
ATOM     12  C   UNL     1      -1.532 -10.038  11.851  0.00  0.00    +0.125 C 
ATOM     13  C   UNL     1      -4.272 -11.143  14.116  0.00  0.00    +0.133 C 
ATOM     16  C   UNL     1      -2.069 -10.296  14.343  0.00  0.00    +0.305 C 
ENDROOT
BRANCH   4   9
ATOM      3  O   UNL     1      -9.111  -8.971   8.044  0.00  0.00    -0.276 OA
ATOM      7  N   UNL     1      -6.818  -9.305   7.878  0.00  0.00    -0.302 N 
ATOM      9  C   UNL     1      -4.367  -9.541   9.400  0.00  0.00    +0.060 C 
ATOM     14  C   UNL     1      -5.621  -8.887   9.992  0.00  0.00    +0.038 C 
ATOM     15  C   UNL     1      -4.754 -10.576   8.335  0.00  0.00    +0.038 C 
ATOM     17  C   UNL     1      -6.500  -8.296   8.891  0.00  0.00    +0.109 C 
ATOM     18  C   UNL     1      -5.651  -9.952   7.266  0.00  0.00    +0.109 C 
ATOM     20  C   UNL     1      -8.149  -9.553   7.540  0.00  0.00    +0.212 C 
ATOM     22  C   UNL     1      -8.392 -10.608   6.491  0.00  0.00    +0.109 C 
ENDBRANCH   4   9
BRANCH   6  19
ATOM     19  C   UNL     1      -3.371 -10.816  16.463  0.00  0.00    +0.137 C 
BRANCH  19  21
ATOM     21  C   UNL     1      -4.714 -10.237  16.873  0.00  0.00    +0.178 C 
BRANCH  21   2
ATOM      2  O   UNL     1      -5.410 -11.181  17.676  0.00  0.00    -0.381 OA
ATOM     23  C   UNL     1      -6.317 -10.542  18.564  0.00  0.00    +0.194 C 
ENDBRANCH  21   2
ENDBRANCH  19  21
ENDBRANCH   6  19
TORSDOF 4
ENDMDL
