MODEL 1
REMARK VINA RESULT:      -6.4      0.000      0.000
REMARK  Name = 40780260
REMARK  8 active torsions:
REMARK  status: ('A' for Active; 'I' for Inactive)
REMARK    1  A    between atoms: O_1  and  C_20
REMARK    2  A    between atoms: O_1  and  C_22
REMARK    3  A    between atoms: N_4  and  C_14
REMARK    4  A    between atoms: N_5  and  C_15
REMARK    5  A    between atoms: N_6  and  C_23
REMARK    6  A    between atoms: C_8  and  C_14
REMARK    7  A    between atoms: C_10  and  C_15
REMARK    8  A    between atoms: C_16  and  C_20
REMARK                            x       y       z     vdW  Elec       q    Type
REMARK                         _______ _______ _______ _____ _____    ______ ____
ROOT
ATOM      3  N   UNL     1      13.796   8.298  21.793  0.00  0.00    -0.298 NA
ATOM      7  C   UNL     1      13.951   7.075  19.502  0.00  0.00    -0.003 C 
ATOM      8  C   UNL     1      14.249   8.584  19.343  0.00  0.00    +0.020 C 
ATOM      9  C   UNL     1      12.558   6.895  20.133  0.00  0.00    +0.024 C 
ATOM     10  C   UNL     1      12.557   7.510  21.551  0.00  0.00    +0.074 C 
ATOM     11  C   UNL     1      14.002   9.280  20.700  0.00  0.00    +0.089 C 
ATOM     12  C   UNL     1      14.982   6.518  20.503  0.00  0.00    +0.019 C 
ATOM     13  C   UNL     1      14.943   7.359  21.791  0.00  0.00    +0.085 C 
ENDROOT
BRANCH   8  14
ATOM     14  C   UNL     1      13.451   9.240  18.219  0.00  0.00    +0.089 C 
BRANCH  14   4
ATOM      4  N   UNL     1      14.333   9.934  17.288  0.00  0.00    -0.297 NA
ATOM     16  C   UNL     1      13.985  11.349  17.101  0.00  0.00    +0.082 C 
ATOM     17  C   UNL     1      14.262   9.348  15.946  0.00  0.00    +0.085 C 
ATOM     18  C   UNL     1      14.743  11.715  15.823  0.00  0.00    +0.022 C 
ATOM     19  C   UNL     1      14.917  10.401  15.068  0.00  0.00    +0.017 C 
BRANCH  16  20
ATOM     20  C   UNL     1      14.395  12.232  18.273  0.00  0.00    +0.178 C 
BRANCH  20   1
ATOM      1  O   UNL     1      13.228  12.621  18.977  0.00  0.00    -0.381 OA
ATOM     22  C   UNL     1      13.536  13.112  20.276  0.00  0.00    +0.194 C 
ENDBRANCH  20   1
ENDBRANCH  16  20
ENDBRANCH  14   4
ENDBRANCH   8  14
BRANCH  10  15
ATOM     15  C   UNL     1      11.287   8.323  21.816  0.00  0.00    +0.124 C 
BRANCH  15   5
ATOM      2  O   UNL     1      11.400  11.154  22.234  0.00  0.00    -0.253 OA
ATOM      5  N   UNL     1      11.369   8.999  23.075  0.00  0.00    -0.298 N 
ATOM      6  N   UNL     1      11.498  10.771  24.548  0.00  0.00    -0.269 N 
ATOM     21  C   UNL     1      11.422  10.399  23.203  0.00  0.00    +0.304 C 
ATOM     29  H   UNL     1      11.395   8.438  23.921  0.00  0.00    +0.150 HD
ATOM     30  H   UNL     1      11.508  10.017  25.229  0.00  0.00    +0.156 HD
BRANCH   6  23
ATOM     23  C   UNL     1      11.566  12.078  25.084  0.00  0.00    +0.035 A 
ATOM     24  C   UNL     1      10.441  12.902  25.056  0.00  0.00    +0.023 A 
ATOM     25  C   UNL     1      12.757  12.543  25.641  0.00  0.00    +0.023 A 
ATOM     26  C   UNL     1      10.507  14.192  25.584  0.00  0.00    +0.002 A 
ATOM     27  C   UNL     1      12.824  13.833  26.169  0.00  0.00    +0.002 A 
ATOM     28  C   UNL     1      11.698  14.657  26.140  0.00  0.00    +0.000 A 
ENDBRANCH   6  23
ENDBRANCH  15   5
ENDBRANCH  10  15
TORSDOF 7
ENDMDL
MODEL 2
REMARK VINA RESULT:      -6.3      2.271      7.738
REMARK  Name = 40780260
REMARK  8 active torsions:
REMARK  status: ('A' for Active; 'I' for Inactive)
REMARK    1  A    between atoms: O_1  and  C_20
REMARK    2  A    between atoms: O_1  and  C_22
REMARK    3  A    between atoms: N_4  and  C_14
REMARK    4  A    between atoms: N_5  and  C_15
REMARK    5  A    between atoms: N_6  and  C_23
REMARK    6  A    between atoms: C_8  and  C_14
REMARK    7  A    between atoms: C_10  and  C_15
REMARK    8  A    between atoms: C_16  and  C_20
REMARK                            x       y       z     vdW  Elec       q    Type
REMARK                         _______ _______ _______ _____ _____    ______ ____
ROOT
ATOM      3  N   UNL     1      11.534   7.409  19.983  0.00  0.00    -0.298 NA
ATOM      7  C   UNL     1      13.344   8.927  21.074  0.00  0.00    -0.003 C 
ATOM      8  C   UNL     1      11.924   9.369  21.499  0.00  0.00    +0.020 C 
ATOM      9  C   UNL     1      13.448   8.957  19.538  0.00  0.00    +0.024 C 
ATOM     10  C   UNL     1      12.456   7.934  18.940  0.00  0.00    +0.074 C 
ATOM     11  C   UNL     1      10.891   8.530  20.713  0.00  0.00    +0.089 C 
ATOM     12  C   UNL     1      13.506   7.460  21.515  0.00  0.00    +0.019 C 
ATOM     13  C   UNL     1      12.339   6.629  20.954  0.00  0.00    +0.085 C 
ENDROOT
BRANCH   8  14
ATOM     14  C   UNL     1      11.682  10.866  21.326  0.00  0.00    +0.089 C 
BRANCH  14   4
ATOM      4  N   UNL     1      11.586  11.533  22.619  0.00  0.00    -0.297 NA
ATOM     16  C   UNL     1      12.891  11.774  23.249  0.00  0.00    +0.082 C 
ATOM     17  C   UNL     1      10.844  10.721  23.588  0.00  0.00    +0.085 C 
ATOM     18  C   UNL     1      12.514  12.070  24.702  0.00  0.00    +0.022 C 
ATOM     19  C   UNL     1      11.175  11.374  24.920  0.00  0.00    +0.017 C 
BRANCH  16  20
ATOM     20  C   UNL     1      13.662  12.928  22.619  0.00  0.00    +0.178 C 
BRANCH  20   1
ATOM      1  O   UNL     1      14.741  12.395  21.870  0.00  0.00    -0.381 OA
ATOM     22  C   UNL     1      15.539  11.513  22.651  0.00  0.00    +0.194 C 
ENDBRANCH  20   1
ENDBRANCH  16  20
ENDBRANCH  14   4
ENDBRANCH   8  14
BRANCH  10  15
ATOM     15  C   UNL     1      11.707   8.508  17.735  0.00  0.00    +0.124 C 
BRANCH  15   5
ATOM      2  O   UNL     1      12.870   8.878  15.144  0.00  0.00    -0.253 OA
ATOM      5  N   UNL     1      12.351   9.688  17.248  0.00  0.00    -0.298 N 
ATOM      6  N   UNL     1      13.465  11.063  15.765  0.00  0.00    -0.269 N 
ATOM     21  C   UNL     1      12.902   9.798  15.958  0.00  0.00    +0.304 C 
ATOM     29  H   UNL     1      12.418  10.489  17.868  0.00  0.00    +0.150 HD
ATOM     30  H   UNL     1      13.407  11.711  16.545  0.00  0.00    +0.156 HD
BRANCH   6  23
ATOM     23  C   UNL     1      14.110  11.558  14.608  0.00  0.00    +0.035 A 
ATOM     24  C   UNL     1      13.395  12.319  13.683  0.00  0.00    +0.023 A 
ATOM     25  C   UNL     1      15.460  11.285  14.391  0.00  0.00    +0.023 A 
ATOM     26  C   UNL     1      14.031  12.807  12.541  0.00  0.00    +0.002 A 
ATOM     27  C   UNL     1      16.096  11.772  13.249  0.00  0.00    +0.002 A 
ATOM     28  C   UNL     1      15.381  12.534  12.324  0.00  0.00    +0.000 A 
ENDBRANCH   6  23
ENDBRANCH  15   5
ENDBRANCH  10  15
TORSDOF 7
ENDMDL
MODEL 3
REMARK VINA RESULT:      -6.2     28.396     30.798
REMARK  Name = 40780260
REMARK  8 active torsions:
REMARK  status: ('A' for Active; 'I' for Inactive)
REMARK    1  A    between atoms: O_1  and  C_20
REMARK    2  A    between atoms: O_1  and  C_22
REMARK    3  A    between atoms: N_4  and  C_14
REMARK    4  A    between atoms: N_5  and  C_15
REMARK    5  A    between atoms: N_6  and  C_23
REMARK    6  A    between atoms: C_8  and  C_14
REMARK    7  A    between atoms: C_10  and  C_15
REMARK    8  A    between atoms: C_16  and  C_20
REMARK                            x       y       z     vdW  Elec       q    Type
REMARK                         _______ _______ _______ _____ _____    ______ ____
ROOT
ATOM      3  N   UNL     1     -11.431  -9.169  16.849  0.00  0.00    -0.298 NA
ATOM      7  C   UNL     1      -9.342  -9.990  15.533  0.00  0.00    -0.003 C 
ATOM      8  C   UNL     1      -9.084 -10.028  17.058  0.00  0.00    +0.020 C 
ATOM      9  C   UNL     1      -9.731  -8.559  15.119  0.00  0.00    +0.024 C 
ATOM     10  C   UNL     1     -11.055  -8.169  15.813  0.00  0.00    +0.074 C 
ATOM     11  C   UNL     1     -10.297  -9.398  17.778  0.00  0.00    +0.089 C 
ATOM     12  C   UNL     1     -10.561 -10.892  15.263  0.00  0.00    +0.019 C 
ATOM     13  C   UNL     1     -11.729 -10.448  16.161  0.00  0.00    +0.085 C 
ENDROOT
BRANCH   8  14
ATOM     14  C   UNL     1      -7.776  -9.356  17.465  0.00  0.00    +0.089 C 
BRANCH  14   4
ATOM      4  N   UNL     1      -6.653 -10.279  17.343  0.00  0.00    -0.297 NA
ATOM     16  C   UNL     1      -5.920 -10.473  18.601  0.00  0.00    +0.082 C 
ATOM     17  C   UNL     1      -5.651  -9.782  16.395  0.00  0.00    +0.085 C 
ATOM     18  C   UNL     1      -4.608 -11.104  18.131  0.00  0.00    +0.022 C 
ATOM     19  C   UNL     1      -4.435 -10.644  16.687  0.00  0.00    +0.017 C 
BRANCH  16  20
ATOM     20  C   UNL     1      -6.652 -11.366  19.595  0.00  0.00    +0.178 C 
BRANCH  20   1
ATOM      1  O   UNL     1      -7.240 -12.445  18.887  0.00  0.00    -0.381 OA
ATOM     22  C   UNL     1      -8.237 -13.101  19.662  0.00  0.00    +0.194 C 
ENDBRANCH  20   1
ENDBRANCH  16  20
ENDBRANCH  14   4
ENDBRANCH   8  14
BRANCH  10  15
ATOM     15  C   UNL     1     -11.007  -6.744  16.370  0.00  0.00    +0.124 C 
BRANCH  15   5
ATOM      2  O   UNL     1     -13.225  -6.163  14.654  0.00  0.00    -0.253 OA
ATOM      5  N   UNL     1     -11.040  -5.782  15.311  0.00  0.00    -0.298 N 
ATOM      6  N   UNL     1     -11.909  -4.557  13.558  0.00  0.00    -0.269 N 
ATOM     21  C   UNL     1     -12.170  -5.550  14.507  0.00  0.00    +0.304 C 
ATOM     29  H   UNL     1     -10.202  -5.239  15.129  0.00  0.00    +0.150 HD
ATOM     30  H   UNL     1     -10.978  -4.150  13.570  0.00  0.00    +0.156 HD
BRANCH   6  23
ATOM     23  C   UNL     1     -12.786  -4.045  12.574  0.00  0.00    +0.035 A 
ATOM     24  C   UNL     1     -12.383  -3.995  11.239  0.00  0.00    +0.023 A 
ATOM     25  C   UNL     1     -14.053  -3.589  12.937  0.00  0.00    +0.023 A 
ATOM     26  C   UNL     1     -13.247  -3.489  10.268  0.00  0.00    +0.002 A 
ATOM     27  C   UNL     1     -14.917  -3.083  11.966  0.00  0.00    +0.002 A 
ATOM     28  C   UNL     1     -14.514  -3.033  10.631  0.00  0.00    +0.000 A 
ENDBRANCH   6  23
ENDBRANCH  15   5
ENDBRANCH  10  15
TORSDOF 7
ENDMDL
MODEL 4
REMARK VINA RESULT:      -6.0     28.483     30.890
REMARK  Name = 40780260
REMARK  8 active torsions:
REMARK  status: ('A' for Active; 'I' for Inactive)
REMARK    1  A    between atoms: O_1  and  C_20
REMARK    2  A    between atoms: O_1  and  C_22
REMARK    3  A    between atoms: N_4  and  C_14
REMARK    4  A    between atoms: N_5  and  C_15
REMARK    5  A    between atoms: N_6  and  C_23
REMARK    6  A    between atoms: C_8  and  C_14
REMARK    7  A    between atoms: C_10  and  C_15
REMARK    8  A    between atoms: C_16  and  C_20
REMARK                            x       y       z     vdW  Elec       q    Type
REMARK                         _______ _______ _______ _____ _____    ______ ____
ROOT
ATOM      3  N   UNL     1     -12.524  -8.829  14.766  0.00  0.00    -0.298 NA
ATOM      7  C   UNL     1     -13.185  -6.546  15.825  0.00  0.00    -0.003 C 
ATOM      8  C   UNL     1     -13.343  -6.508  14.287  0.00  0.00    +0.020 C 
ATOM      9  C   UNL     1     -11.735  -6.922  16.178  0.00  0.00    +0.024 C 
ATOM     10  C   UNL     1     -11.433  -8.344  15.655  0.00  0.00    +0.074 C 
ATOM     11  C   UNL     1     -12.802  -7.832  13.703  0.00  0.00    +0.089 C 
ATOM     12  C   UNL     1     -14.089  -7.683  16.339  0.00  0.00    +0.019 C 
ATOM     13  C   UNL     1     -13.749  -8.982  15.588  0.00  0.00    +0.085 C 
ENDROOT
BRANCH   8  14
ATOM     14  C   UNL     1     -12.677  -5.295  13.643  0.00  0.00    +0.089 C 
BRANCH  14   4
ATOM      4  N   UNL     1     -13.497  -4.759  12.564  0.00  0.00    -0.297 NA
ATOM     16  C   UNL     1     -12.736  -3.956  11.597  0.00  0.00    +0.082 C 
ATOM     17  C   UNL     1     -14.531  -3.853  13.075  0.00  0.00    +0.085 C 
ATOM     18  C   UNL     1     -13.835  -3.193  10.854  0.00  0.00    +0.022 C 
ATOM     19  C   UNL     1     -15.006  -3.125  11.829  0.00  0.00    +0.017 C 
BRANCH  16  20
ATOM     20  C   UNL     1     -11.891  -4.796  10.647  0.00  0.00    +0.178 C 
BRANCH  20   1
ATOM      1  O   UNL     1     -11.102  -3.926   9.854  0.00  0.00    -0.381 OA
ATOM     22  C   UNL     1     -10.341  -4.641   8.887  0.00  0.00    +0.194 C 
ENDBRANCH  20   1
ENDBRANCH  16  20
ENDBRANCH  14   4
ENDBRANCH   8  14
BRANCH  10  15
ATOM     15  C   UNL     1     -10.058  -8.425  14.988  0.00  0.00    +0.124 C 
BRANCH  15   5
ATOM      2  O   UNL     1      -8.463 -10.656  15.813  0.00  0.00    -0.253 OA
ATOM      5  N   UNL     1      -9.015  -8.415  15.967  0.00  0.00    -0.298 N 
ATOM      6  N   UNL     1      -7.324  -9.243  17.302  0.00  0.00    -0.269 N 
ATOM     21  C   UNL     1      -8.271  -9.555  16.322  0.00  0.00    +0.304 C 
ATOM     29  H   UNL     1      -8.802  -7.538  16.433  0.00  0.00    +0.150 HD
ATOM     30  H   UNL     1      -7.297  -8.278  17.619  0.00  0.00    +0.156 HD
BRANCH   6  23
ATOM     23  C   UNL     1      -6.391 -10.112  17.915  0.00  0.00    +0.035 A 
ATOM     24  C   UNL     1      -5.225 -10.471  17.238  0.00  0.00    +0.023 A 
ATOM     25  C   UNL     1      -6.637 -10.610  19.194  0.00  0.00    +0.023 A 
ATOM     26  C   UNL     1      -4.305 -11.328  17.841  0.00  0.00    +0.002 A 
ATOM     27  C   UNL     1      -5.717 -11.467  19.797  0.00  0.00    +0.002 A 
ATOM     28  C   UNL     1      -4.550 -11.827  19.121  0.00  0.00    +0.000 A 
ENDBRANCH   6  23
ENDBRANCH  15   5
ENDBRANCH  10  15
TORSDOF 7
ENDMDL
MODEL 5
REMARK VINA RESULT:      -6.0     26.891     29.382
REMARK  Name = 40780260
REMARK  8 active torsions:
REMARK  status: ('A' for Active; 'I' for Inactive)
REMARK    1  A    between atoms: O_1  and  C_20
REMARK    2  A    between atoms: O_1  and  C_22
REMARK    3  A    between atoms: N_4  and  C_14
REMARK    4  A    between atoms: N_5  and  C_15
REMARK    5  A    between atoms: N_6  and  C_23
REMARK    6  A    between atoms: C_8  and  C_14
REMARK    7  A    between atoms: C_10  and  C_15
REMARK    8  A    between atoms: C_16  and  C_20
REMARK                            x       y       z     vdW  Elec       q    Type
REMARK                         _______ _______ _______ _____ _____    ______ ____
ROOT
ATOM      3  N   UNL     1      -6.963 -10.573  18.335  0.00  0.00    -0.298 NA
ATOM      7  C   UNL     1      -4.987 -12.256  18.506  0.00  0.00    -0.003 C 
ATOM      8  C   UNL     1      -4.668 -11.131  17.494  0.00  0.00    +0.020 C 
ATOM      9  C   UNL     1      -6.285 -12.967  18.085  0.00  0.00    +0.024 C 
ATOM     10  C   UNL     1      -7.458 -11.962  18.137  0.00  0.00    +0.074 C 
ATOM     11  C   UNL     1      -5.924 -10.248  17.326  0.00  0.00    +0.089 C 
ATOM     12  C   UNL     1      -5.259 -11.574  19.861  0.00  0.00    +0.019 C 
ATOM     13  C   UNL     1      -6.341 -10.496  19.679  0.00  0.00    +0.085 C 
ENDROOT
BRANCH   8  14
ATOM     14  C   UNL     1      -4.163 -11.654  16.152  0.00  0.00    +0.089 C 
BRANCH  14   4
ATOM      4  N   UNL     1      -3.257 -10.699  15.525  0.00  0.00    -0.297 NA
ATOM     16  C   UNL     1      -2.968 -11.008  14.118  0.00  0.00    +0.082 C 
ATOM     17  C   UNL     1      -1.948 -10.689  16.186  0.00  0.00    +0.085 C 
ATOM     18  C   UNL     1      -1.727 -10.159  13.836  0.00  0.00    +0.022 C 
ATOM     19  C   UNL     1      -1.060  -9.957  15.193  0.00  0.00    +0.017 C 
BRANCH  16  20
ATOM     20  C   UNL     1      -4.115 -10.662  13.176  0.00  0.00    +0.178 C 
BRANCH  20   1
ATOM      1  O   UNL     1      -3.571 -10.265  11.928  0.00  0.00    -0.381 OA
ATOM     22  C   UNL     1      -4.484  -9.461  11.189  0.00  0.00    +0.194 C 
ENDBRANCH  20   1
ENDBRANCH  16  20
ENDBRANCH  14   4
ENDBRANCH   8  14
BRANCH  10  15
ATOM     15  C   UNL     1      -8.370 -12.088  16.914  0.00  0.00    +0.124 C 
BRANCH  15   5
ATOM      2  O   UNL     1      -8.928  -9.681  15.464  0.00  0.00    -0.253 OA
ATOM      5  N   UNL     1      -9.525 -11.255  17.052  0.00  0.00    -0.298 N 
ATOM      6  N   UNL     1     -10.943  -9.478  16.651  0.00  0.00    -0.269 N 
ATOM     21  C   UNL     1      -9.731 -10.082  16.303  0.00  0.00    +0.304 C 
ATOM     29  H   UNL     1     -10.232 -11.522  17.729  0.00  0.00    +0.150 HD
ATOM     30  H   UNL     1     -11.493  -9.941  17.369  0.00  0.00    +0.156 HD
BRANCH   6  23
ATOM     23  C   UNL     1     -11.504  -8.291  16.126  0.00  0.00    +0.035 A 
ATOM     24  C   UNL     1     -11.011  -7.049  16.529  0.00  0.00    +0.023 A 
ATOM     25  C   UNL     1     -12.548  -8.361  15.204  0.00  0.00    +0.023 A 
ATOM     26  C   UNL     1     -11.565  -5.878  16.011  0.00  0.00    +0.002 A 
ATOM     27  C   UNL     1     -13.101  -7.190  14.686  0.00  0.00    +0.002 A 
ATOM     28  C   UNL     1     -12.609  -5.948  15.090  0.00  0.00    +0.000 A 
ENDBRANCH   6  23
ENDBRANCH  15   5
ENDBRANCH  10  15
TORSDOF 7
ENDMDL
MODEL 6
REMARK VINA RESULT:      -6.0     27.988     30.879
REMARK  Name = 40780260
REMARK  8 active torsions:
REMARK  status: ('A' for Active; 'I' for Inactive)
REMARK    1  A    between atoms: O_1  and  C_20
REMARK    2  A    between atoms: O_1  and  C_22
REMARK    3  A    between atoms: N_4  and  C_14
REMARK    4  A    between atoms: N_5  and  C_15
REMARK    5  A    between atoms: N_6  and  C_23
REMARK    6  A    between atoms: C_8  and  C_14
REMARK    7  A    between atoms: C_10  and  C_15
REMARK    8  A    between atoms: C_16  and  C_20
REMARK                            x       y       z     vdW  Elec       q    Type
REMARK                         _______ _______ _______ _____ _____    ______ ____
ROOT
ATOM      3  N   UNL     1     -17.677   3.817  26.836  0.00  0.00    -0.298 NA
ATOM      7  C   UNL     1     -17.527   2.149  28.827  0.00  0.00    -0.003 C 
ATOM      8  C   UNL     1     -16.402   3.206  28.907  0.00  0.00    +0.020 C 
ATOM      9  C   UNL     1     -17.438   1.412  27.478  0.00  0.00    +0.024 C 
ATOM     10  C   UNL     1     -17.677   2.418  26.330  0.00  0.00    +0.074 C 
ATOM     11  C   UNL     1     -16.452   4.076  27.631  0.00  0.00    +0.089 C 
ATOM     12  C   UNL     1     -18.863   2.916  28.841  0.00  0.00    +0.019 C 
ATOM     13  C   UNL     1     -18.850   3.980  27.729  0.00  0.00    +0.085 C 
ENDROOT
BRANCH   8  14
ATOM     14  C   UNL     1     -15.018   2.599  29.120  0.00  0.00    +0.089 C 
BRANCH  14   4
ATOM      4  N   UNL     1     -14.700   2.507  30.540  0.00  0.00    -0.297 NA
ATOM     16  C   UNL     1     -14.864   1.153  31.087  0.00  0.00    +0.082 C 
ATOM     17  C   UNL     1     -15.589   3.350  31.345  0.00  0.00    +0.085 C 
ATOM     18  C   UNL     1     -14.890   1.402  32.597  0.00  0.00    +0.022 C 
ATOM     19  C   UNL     1     -15.370   2.841  32.759  0.00  0.00    +0.017 C 
BRANCH  16  20
ATOM     20  C   UNL     1     -13.743   0.201  30.691  0.00  0.00    +0.178 C 
BRANCH  20   1
ATOM      1  O   UNL     1     -14.243  -0.709  29.726  0.00  0.00    -0.381 OA
ATOM     22  C   UNL     1     -13.191  -1.397  29.057  0.00  0.00    +0.194 C 
ENDBRANCH  20   1
ENDBRANCH  16  20
ENDBRANCH  14   4
ENDBRANCH   8  14
BRANCH  10  15
ATOM     15  C   UNL     1     -16.688   2.214  25.180  0.00  0.00    +0.124 C 
BRANCH  15   5
ATOM      2  O   UNL     1     -15.940   3.471  22.717  0.00  0.00    -0.253 OA
ATOM      5  N   UNL     1     -15.843   3.358  25.026  0.00  0.00    -0.298 N 
ATOM      6  N   UNL     1     -14.676   5.027  23.939  0.00  0.00    -0.269 N 
ATOM     21  C   UNL     1     -15.518   3.922  23.779  0.00  0.00    +0.304 C 
ATOM     29  H   UNL     1     -15.454   3.784  25.861  0.00  0.00    +0.150 HD
ATOM     30  H   UNL     1     -14.418   5.269  24.891  0.00  0.00    +0.156 HD
BRANCH   6  23
ATOM     23  C   UNL     1     -14.134   5.858  22.931  0.00  0.00    +0.035 A 
ATOM     24  C   UNL     1     -13.024   5.432  22.200  0.00  0.00    +0.023 A 
ATOM     25  C   UNL     1     -14.707   7.101  22.667  0.00  0.00    +0.023 A 
ATOM     26  C   UNL     1     -12.487   6.251  21.206  0.00  0.00    +0.002 A 
ATOM     27  C   UNL     1     -14.171   7.920  21.673  0.00  0.00    +0.002 A 
ATOM     28  C   UNL     1     -13.061   7.495  20.942  0.00  0.00    +0.000 A 
ENDBRANCH   6  23
ENDBRANCH  15   5
ENDBRANCH  10  15
TORSDOF 7
ENDMDL
MODEL 7
REMARK VINA RESULT:      -6.0      1.668      2.380
REMARK  Name = 40780260
REMARK  8 active torsions:
REMARK  status: ('A' for Active; 'I' for Inactive)
REMARK    1  A    between atoms: O_1  and  C_20
REMARK    2  A    between atoms: O_1  and  C_22
REMARK    3  A    between atoms: N_4  and  C_14
REMARK    4  A    between atoms: N_5  and  C_15
REMARK    5  A    between atoms: N_6  and  C_23
REMARK    6  A    between atoms: C_8  and  C_14
REMARK    7  A    between atoms: C_10  and  C_15
REMARK    8  A    between atoms: C_16  and  C_20
REMARK                            x       y       z     vdW  Elec       q    Type
REMARK                         _______ _______ _______ _____ _____    ______ ____
ROOT
ATOM      3  N   UNL     1      14.627   7.549  21.105  0.00  0.00    -0.298 NA
ATOM      7  C   UNL     1      14.354   7.612  18.518  0.00  0.00    -0.003 C 
ATOM      8  C   UNL     1      14.588   9.032  19.084  0.00  0.00    +0.020 C 
ATOM      9  C   UNL     1      13.115   6.994  19.191  0.00  0.00    +0.024 C 
ATOM     10  C   UNL     1      13.379   6.843  20.706  0.00  0.00    +0.074 C 
ATOM     11  C   UNL     1      14.598   8.953  20.627  0.00  0.00    +0.089 C 
ATOM     12  C   UNL     1      15.570   6.761  18.931  0.00  0.00    +0.019 C 
ATOM     13  C   UNL     1      15.768   6.863  20.453  0.00  0.00    +0.085 C 
ENDROOT
BRANCH   8  14
ATOM     14  C   UNL     1      13.574  10.056  18.579  0.00  0.00    +0.089 C 
BRANCH  14   4
ATOM      4  N   UNL     1      14.234  11.122  17.834  0.00  0.00    -0.297 NA
ATOM     16  C   UNL     1      14.741  10.690  16.525  0.00  0.00    +0.082 C 
ATOM     17  C   UNL     1      15.412  11.626  18.548  0.00  0.00    +0.085 C 
ATOM     18  C   UNL     1      15.714  11.811  16.155  0.00  0.00    +0.022 C 
ATOM     19  C   UNL     1      16.154  12.417  17.484  0.00  0.00    +0.017 C 
BRANCH  16  20
ATOM     20  C   UNL     1      13.646  10.524  15.478  0.00  0.00    +0.178 C 
BRANCH  20   1
ATOM      1  O   UNL     1      14.072  11.143  14.276  0.00  0.00    -0.381 OA
ATOM     22  C   UNL     1      13.124  12.096  13.810  0.00  0.00    +0.194 C 
ENDBRANCH  20   1
ENDBRANCH  16  20
ENDBRANCH  14   4
ENDBRANCH   8  14
BRANCH  10  15
ATOM     15  C   UNL     1      12.172   7.277  21.540  0.00  0.00    +0.124 C 
BRANCH  15   5
ATOM      2  O   UNL     1      10.332   9.365  22.219  0.00  0.00    -0.253 OA
ATOM      5  N   UNL     1      12.463   8.467  22.279  0.00  0.00    -0.298 N 
ATOM      6  N   UNL     1      12.078  10.498  23.306  0.00  0.00    -0.269 N 
ATOM     21  C   UNL     1      11.505   9.453  22.575  0.00  0.00    +0.304 C 
ATOM     29  H   UNL     1      13.414   8.609  22.604  0.00  0.00    +0.150 HD
ATOM     30  H   UNL     1      13.068  10.415  23.518  0.00  0.00    +0.156 HD
BRANCH   6  23
ATOM     23  C   UNL     1      11.445  11.666  23.790  0.00  0.00    +0.035 A 
ATOM     24  C   UNL     1      11.013  12.647  22.896  0.00  0.00    +0.023 A 
ATOM     25  C   UNL     1      11.253  11.839  25.161  0.00  0.00    +0.023 A 
ATOM     26  C   UNL     1      10.390  13.800  23.373  0.00  0.00    +0.002 A 
ATOM     27  C   UNL     1      10.630  12.992  25.638  0.00  0.00    +0.002 A 
ATOM     28  C   UNL     1      10.198  13.973  24.744  0.00  0.00    +0.000 A 
ENDBRANCH   6  23
ENDBRANCH  15   5
ENDBRANCH  10  15
TORSDOF 7
ENDMDL
MODEL 8
REMARK VINA RESULT:      -5.9      2.095      7.170
REMARK  Name = 40780260
REMARK  8 active torsions:
REMARK  status: ('A' for Active; 'I' for Inactive)
REMARK    1  A    between atoms: O_1  and  C_20
REMARK    2  A    between atoms: O_1  and  C_22
REMARK    3  A    between atoms: N_4  and  C_14
REMARK    4  A    between atoms: N_5  and  C_15
REMARK    5  A    between atoms: N_6  and  C_23
REMARK    6  A    between atoms: C_8  and  C_14
REMARK    7  A    between atoms: C_10  and  C_15
REMARK    8  A    between atoms: C_16  and  C_20
REMARK                            x       y       z     vdW  Elec       q    Type
REMARK                         _______ _______ _______ _____ _____    ______ ____
ROOT
ATOM      3  N   UNL     1      13.204  12.684  23.734  0.00  0.00    -0.298 NA
ATOM      7  C   UNL     1      10.919  11.712  22.955  0.00  0.00    -0.003 C 
ATOM      8  C   UNL     1      12.025  10.633  22.902  0.00  0.00    +0.020 C 
ATOM      9  C   UNL     1      11.337  12.912  22.085  0.00  0.00    +0.024 C 
ATOM     10  C   UNL     1      12.619  13.545  22.670  0.00  0.00    +0.074 C 
ATOM     11  C   UNL     1      13.379  11.298  23.234  0.00  0.00    +0.089 C 
ATOM     12  C   UNL     1      10.848  12.208  24.413  0.00  0.00    +0.019 C 
ATOM     13  C   UNL     1      12.250  12.648  24.868  0.00  0.00    +0.085 C 
ENDROOT
BRANCH   8  14
ATOM     14  C   UNL     1      12.075   9.887  21.572  0.00  0.00    +0.089 C 
BRANCH  14   4
ATOM      4  N   UNL     1      12.035   8.444  21.779  0.00  0.00    -0.297 NA
ATOM     16  C   UNL     1      12.584   7.678  20.651  0.00  0.00    +0.082 C 
ATOM     17  C   UNL     1      10.659   7.961  21.929  0.00  0.00    +0.085 C 
ATOM     18  C   UNL     1      12.056   6.267  20.916  0.00  0.00    +0.022 C 
ATOM     19  C   UNL     1      10.793   6.458  21.749  0.00  0.00    +0.017 C 
BRANCH  16  20
ATOM     20  C   UNL     1      14.105   7.709  20.583  0.00  0.00    +0.178 C 
BRANCH  20   1
ATOM      1  O   UNL     1      14.559   6.482  20.037  0.00  0.00    -0.381 OA
ATOM     22  C   UNL     1      15.952   6.517  19.750  0.00  0.00    +0.194 C 
ENDBRANCH  20   1
ENDBRANCH  16  20
ENDBRANCH  14   4
ENDBRANCH   8  14
BRANCH  10  15
ATOM     15  C   UNL     1      13.632  13.891  21.577  0.00  0.00    +0.124 C 
BRANCH  15   5
ATOM      2  O   UNL     1      14.881  11.773  20.107  0.00  0.00    -0.253 OA
ATOM      5  N   UNL     1      13.217  13.367  20.312  0.00  0.00    -0.298 N 
ATOM      6  N   UNL     1      13.251  12.023  18.436  0.00  0.00    -0.269 N 
ATOM     21  C   UNL     1      13.882  12.322  19.647  0.00  0.00    +0.304 C 
ATOM     29  H   UNL     1      12.399  13.774  19.869  0.00  0.00    +0.150 HD
ATOM     30  H   UNL     1      12.431  12.576  18.201  0.00  0.00    +0.156 HD
BRANCH   6  23
ATOM     23  C   UNL     1      13.615  11.040  17.487  0.00  0.00    +0.035 A 
ATOM     24  C   UNL     1      14.438  11.380  16.412  0.00  0.00    +0.023 A 
ATOM     25  C   UNL     1      13.153   9.732  17.625  0.00  0.00    +0.023 A 
ATOM     26  C   UNL     1      14.797  10.411  15.475  0.00  0.00    +0.002 A 
ATOM     27  C   UNL     1      13.512   8.762  16.688  0.00  0.00    +0.002 A 
ATOM     28  C   UNL     1      14.334   9.102  15.613  0.00  0.00    +0.000 A 
ENDBRANCH   6  23
ENDBRANCH  15   5
ENDBRANCH  10  15
TORSDOF 7
ENDMDL
MODEL 9
REMARK VINA RESULT:      -5.9      2.273      6.918
REMARK  Name = 40780260
REMARK  8 active torsions:
REMARK  status: ('A' for Active; 'I' for Inactive)
REMARK    1  A    between atoms: O_1  and  C_20
REMARK    2  A    between atoms: O_1  and  C_22
REMARK    3  A    between atoms: N_4  and  C_14
REMARK    4  A    between atoms: N_5  and  C_15
REMARK    5  A    between atoms: N_6  and  C_23
REMARK    6  A    between atoms: C_8  and  C_14
REMARK    7  A    between atoms: C_10  and  C_15
REMARK    8  A    between atoms: C_16  and  C_20
REMARK                            x       y       z     vdW  Elec       q    Type
REMARK                         _______ _______ _______ _____ _____    ______ ____
ROOT
ATOM      3  N   UNL     1      13.225  11.412  23.626  0.00  0.00    -0.298 NA
ATOM      7  C   UNL     1      10.809  11.925  22.810  0.00  0.00    -0.003 C 
ATOM      8  C   UNL     1      11.068  10.401  22.843  0.00  0.00    +0.020 C 
ATOM      9  C   UNL     1      11.855  12.599  21.904  0.00  0.00    +0.024 C 
ATOM     10  C   UNL     1      13.263  12.391  22.506  0.00  0.00    +0.074 C 
ATOM     11  C   UNL     1      12.553  10.161  23.194  0.00  0.00    +0.089 C 
ATOM     12  C   UNL     1      11.038  12.449  24.241  0.00  0.00    +0.019 C 
ATOM     13  C   UNL     1      12.428  12.006  24.727  0.00  0.00    +0.085 C 
ENDROOT
BRANCH   8  14
ATOM     14  C   UNL     1      10.674   9.694  21.549  0.00  0.00    +0.089 C 
BRANCH  14   4
ATOM      4  N   UNL     1      11.610   8.622  21.232  0.00  0.00    -0.297 NA
ATOM     16  C   UNL     1      11.661   8.298  19.800  0.00  0.00    +0.082 C 
ATOM     17  C   UNL     1      11.232   7.368  21.890  0.00  0.00    +0.085 C 
ATOM     18  C   UNL     1      12.349   6.931  19.789  0.00  0.00    +0.022 C 
ATOM     19  C   UNL     1      12.060   6.325  21.159  0.00  0.00    +0.017 C 
BRANCH  16  20
ATOM     20  C   UNL     1      12.429   9.324  18.976  0.00  0.00    +0.178 C 
BRANCH  20   1
ATOM      1  O   UNL     1      13.544   8.682  18.380  0.00  0.00    -0.381 OA
ATOM     22  C   UNL     1      14.214   9.537  17.461  0.00  0.00    +0.194 C 
ENDBRANCH  20   1
ENDBRANCH  16  20
ENDBRANCH  14   4
ENDBRANCH   8  14
BRANCH  10  15
ATOM     15  C   UNL     1      14.289  12.013  21.436  0.00  0.00    +0.124 C 
BRANCH  15   5
ATOM      2  O   UNL     1      16.576  10.603  20.442  0.00  0.00    -0.253 OA
ATOM      5  N   UNL     1      14.455  10.594  21.367  0.00  0.00    -0.298 N 
ATOM      6  N   UNL     1      15.488   8.578  20.921  0.00  0.00    -0.269 N 
ATOM     21  C   UNL     1      15.611   9.970  20.864  0.00  0.00    +0.304 C 
ATOM     29  H   UNL     1      13.697  10.005  21.696  0.00  0.00    +0.150 HD
ATOM     30  H   UNL     1      14.619   8.213  21.299  0.00  0.00    +0.156 HD
BRANCH   6  23
ATOM     23  C   UNL     1      16.431   7.607  20.512  0.00  0.00    +0.035 A 
ATOM     24  C   UNL     1      17.634   7.467  21.207  0.00  0.00    +0.023 A 
ATOM     25  C   UNL     1      16.160   6.789  19.416  0.00  0.00    +0.023 A 
ATOM     26  C   UNL     1      18.565   6.510  20.804  0.00  0.00    +0.002 A 
ATOM     27  C   UNL     1      17.091   5.831  19.013  0.00  0.00    +0.002 A 
ATOM     28  C   UNL     1      18.293   5.691  19.707  0.00  0.00    +0.000 A 
ENDBRANCH   6  23
ENDBRANCH  15   5
ENDBRANCH  10  15
TORSDOF 7
ENDMDL
MODEL 10
REMARK VINA RESULT:      -5.8     28.506     30.985
REMARK  Name = 40780260
REMARK  8 active torsions:
REMARK  status: ('A' for Active; 'I' for Inactive)
REMARK    1  A    between atoms: O_1  and  C_20
REMARK    2  A    between atoms: O_1  and  C_22
REMARK    3  A    between atoms: N_4  and  C_14
REMARK    4  A    between atoms: N_5  and  C_15
REMARK    5  A    between atoms: N_6  and  C_23
REMARK    6  A    between atoms: C_8  and  C_14
REMARK    7  A    between atoms: C_10  and  C_15
REMARK    8  A    between atoms: C_16  and  C_20
REMARK                            x       y       z     vdW  Elec       q    Type
REMARK                         _______ _______ _______ _____ _____    ______ ____
ROOT
ATOM      3  N   UNL     1      -5.513 -12.302  16.807  0.00  0.00    -0.298 NA
ATOM      7  C   UNL     1      -5.776 -11.423  19.242  0.00  0.00    -0.003 C 
ATOM      8  C   UNL     1      -7.009 -12.255  18.819  0.00  0.00    +0.020 C 
ATOM      9  C   UNL     1      -5.582 -10.261  18.251  0.00  0.00    +0.024 C 
ATOM     10  C   UNL     1      -5.285 -10.832  16.846  0.00  0.00    +0.074 C 
ATOM     11  C   UNL     1      -6.864 -12.627  17.327  0.00  0.00    +0.089 C 
ATOM     12  C   UNL     1      -4.548 -12.345  19.111  0.00  0.00    +0.019 C 
ATOM     13  C   UNL     1      -4.512 -12.943  17.693  0.00  0.00    +0.085 C 
ENDROOT
BRANCH   8  14
ATOM     14  C   UNL     1      -8.335 -11.552  19.098  0.00  0.00    +0.089 C 
BRANCH  14   4
ATOM      4  N   UNL     1      -9.366 -12.511  19.478  0.00  0.00    -0.297 NA
ATOM     16  C   UNL     1     -10.440 -11.921  20.287  0.00  0.00    +0.082 C 
ATOM     17  C   UNL     1      -8.817 -13.588  20.308  0.00  0.00    +0.085 C 
ATOM     18  C   UNL     1     -11.124 -13.151  20.886  0.00  0.00    +0.022 C 
ATOM     19  C   UNL     1     -10.055 -14.239  20.901  0.00  0.00    +0.017 C 
BRANCH  16  20
ATOM     20  C   UNL     1     -11.412 -11.073  19.475  0.00  0.00    +0.178 C 
BRANCH  20   1
ATOM      1  O   UNL     1     -11.666  -9.872  20.184  0.00  0.00    -0.381 OA
ATOM     22  C   UNL     1     -13.057  -9.682  20.415  0.00  0.00    +0.194 C 
ENDBRANCH  20   1
ENDBRANCH  16  20
ENDBRANCH  14   4
ENDBRANCH   8  14
BRANCH  10  15
ATOM     15  C   UNL     1      -6.064 -10.092  15.756  0.00  0.00    +0.124 C 
BRANCH  15   5
ATOM      2  O   UNL     1      -8.715  -9.610  14.783  0.00  0.00    -0.253 OA
ATOM      5  N   UNL     1      -7.039  -9.218  16.330  0.00  0.00    -0.298 N 
ATOM      6  N   UNL     1      -9.057  -8.120  16.565  0.00  0.00    -0.269 N 
ATOM     21  C   UNL     1      -8.327  -9.030  15.795  0.00  0.00    +0.304 C 
ATOM     29  H   UNL     1      -6.788  -8.702  17.167  0.00  0.00    +0.150 HD
ATOM     30  H   UNL     1      -8.585  -7.728  17.375  0.00  0.00    +0.156 HD
BRANCH   6  23
ATOM     23  C   UNL     1     -10.382  -7.672  16.355  0.00  0.00    +0.035 A 
ATOM     24  C   UNL     1     -10.613  -6.453  15.717  0.00  0.00    +0.023 A 
ATOM     25  C   UNL     1     -11.457  -8.449  16.787  0.00  0.00    +0.023 A 
ATOM     26  C   UNL     1     -11.920  -6.011  15.511  0.00  0.00    +0.002 A 
ATOM     27  C   UNL     1     -12.764  -8.006  16.581  0.00  0.00    +0.002 A 
ATOM     28  C   UNL     1     -12.995  -6.787  15.942  0.00  0.00    +0.000 A 
ENDBRANCH   6  23
ENDBRANCH  15   5
ENDBRANCH  10  15
TORSDOF 7
ENDMDL
