MODEL 1
REMARK VINA RESULT:      -7.0      0.000      0.000
REMARK  Name = 9424347
REMARK  5 active torsions:
REMARK  status: ('A' for Active; 'I' for Inactive)
REMARK    1  A    between atoms: O_4  and  C_27
REMARK    2  A    between atoms: C_15  and  C_20
REMARK    3  A    between atoms: C_17  and  C_21
REMARK    4  A    between atoms: C_21  and  C_22
REMARK    5  A    between atoms: C_22  and  C_27
REMARK                            x       y       z     vdW  Elec       q    Type
REMARK                         _______ _______ _______ _____ _____    ______ ____
ROOT
ATOM      2  O   UNL     1      11.062   5.916  20.842  0.00  0.00    -0.268 OA
ATOM      3  O   UNL     1      16.236   6.487  20.039  0.00  0.00    -0.276 OA
ATOM      6  N   UNL     1      15.119   8.401  19.343  0.00  0.00    -0.301 N 
ATOM      7  N   UNL     1      12.068   7.894  20.093  0.00  0.00    -0.311 N 
ATOM      8  C   UNL     1      13.201   8.036  17.797  0.00  0.00    +0.027 C 
ATOM      9  C   UNL     1      13.203   9.989  19.289  0.00  0.00    +0.054 C 
ATOM     10  C   UNL     1      12.855   9.514  17.880  0.00  0.00    +0.018 C 
ATOM     11  C   UNL     1      14.696   7.808  18.076  0.00  0.00    +0.113 C 
ATOM     12  C   UNL     1      12.313   7.274  18.783  0.00  0.00    +0.130 C 
ATOM     13  C   UNL     1      14.714   9.799  19.537  0.00  0.00    +0.117 C 
ATOM     14  C   UNL     1      12.393   9.240  20.352  0.00  0.00    +0.034 A 
ATOM     15  C   UNL     1      12.012   9.814  21.522  0.00  0.00    +0.005 A 
ATOM     16  C   UNL     1      11.382   7.091  21.022  0.00  0.00    +0.252 A 
ATOM     17  C   UNL     1      15.908   7.662  20.224  0.00  0.00    +0.216 C 
ATOM     18  C   UNL     1      11.305   9.016  22.507  0.00  0.00    +0.015 A 
ATOM     19  C   UNL     1      11.011   7.732  22.303  0.00  0.00    +0.071 A 
ENDROOT
BRANCH  15  20
ATOM      1  F   UNL     1      14.359  10.610  22.878  0.00  0.00    -0.205 F 
ATOM     20  C   UNL     1      12.314  11.229  21.832  0.00  0.00    +0.019 A 
ATOM     23  C   UNL     1      13.488  11.559  22.504  0.00  0.00    +0.131 A 
ATOM     24  C   UNL     1      11.418  12.223  21.449  0.00  0.00    +0.011 A 
ATOM     25  C   UNL     1      13.768  12.894  22.794  0.00  0.00    +0.039 A 
ATOM     26  C   UNL     1      11.697  13.558  21.740  0.00  0.00    +0.001 A 
ATOM     28  C   UNL     1      12.873  13.894  22.412  0.00  0.00    +0.003 A 
ENDBRANCH  15  20
BRANCH  17  21
ATOM     21  C   UNL     1      16.365   8.365  21.476  0.00  0.00    +0.107 C 
BRANCH  21  22
ATOM     22  C   UNL     1      17.737   8.970  21.257  0.00  0.00    +0.129 C 
BRANCH  22  27
ATOM      5  O   UNL     1      19.290   7.124  21.130  0.00  0.00    -0.251 OA
ATOM     27  C   UNL     1      18.823   8.059  21.768  0.00  0.00    +0.305 C 
BRANCH  27   4
ATOM      4  O   UNL     1      19.216   8.371  23.028  0.00  0.00    -0.481 OA
ATOM     29  H   UNL     1      18.825   9.216  23.335  0.00  0.00    +0.295 HD
ENDBRANCH  27   4
ENDBRANCH  22  27
ENDBRANCH  21  22
ENDBRANCH  17  21
TORSDOF 5
ENDMDL
MODEL 2
REMARK VINA RESULT:      -6.7      2.623      4.639
REMARK  Name = 9424347
REMARK  5 active torsions:
REMARK  status: ('A' for Active; 'I' for Inactive)
REMARK    1  A    between atoms: O_4  and  C_27
REMARK    2  A    between atoms: C_15  and  C_20
REMARK    3  A    between atoms: C_17  and  C_21
REMARK    4  A    between atoms: C_21  and  C_22
REMARK    5  A    between atoms: C_22  and  C_27
REMARK                            x       y       z     vdW  Elec       q    Type
REMARK                         _______ _______ _______ _____ _____    ______ ____
ROOT
ATOM      2  O   UNL     1      16.577   8.315  21.802  0.00  0.00    -0.268 OA
ATOM      3  O   UNL     1      13.724   7.707  17.416  0.00  0.00    -0.276 OA
ATOM      6  N   UNL     1      12.324   8.227  19.196  0.00  0.00    -0.301 N 
ATOM      7  N   UNL     1      14.275   8.723  21.661  0.00  0.00    -0.311 N 
ATOM      8  C   UNL     1      12.600   6.828  21.237  0.00  0.00    +0.027 C 
ATOM      9  C   UNL     1      11.805   9.144  21.450  0.00  0.00    +0.054 C 
ATOM     10  C   UNL     1      11.621   7.723  21.980  0.00  0.00    +0.018 C 
ATOM     11  C   UNL     1      12.333   6.864  19.724  0.00  0.00    +0.113 C 
ATOM     12  C   UNL     1      14.023   7.278  21.576  0.00  0.00    +0.130 C 
ATOM     13  C   UNL     1      11.486   9.175  19.941  0.00  0.00    +0.117 C 
ATOM     14  C   UNL     1      13.224   9.661  21.702  0.00  0.00    +0.034 A 
ATOM     15  C   UNL     1      13.496  10.972  21.933  0.00  0.00    +0.005 A 
ATOM     16  C   UNL     1      15.623   9.093  21.816  0.00  0.00    +0.252 A 
ATOM     17  C   UNL     1      13.025   8.521  18.026  0.00  0.00    +0.216 C 
ATOM     18  C   UNL     1      14.876  11.392  22.095  0.00  0.00    +0.015 A 
ATOM     19  C   UNL     1      15.893  10.533  22.030  0.00  0.00    +0.071 A 
ENDROOT
BRANCH  15  20
ATOM      1  F   UNL     1      12.767  12.574  19.724  0.00  0.00    -0.205 F 
ATOM     20  C   UNL     1      12.426  11.990  22.005  0.00  0.00    +0.019 A 
ATOM     23  C   UNL     1      12.111  12.750  20.881  0.00  0.00    +0.131 A 
ATOM     24  C   UNL     1      11.739  12.182  23.199  0.00  0.00    +0.011 A 
ATOM     25  C   UNL     1      11.102  13.709  20.953  0.00  0.00    +0.039 A 
ATOM     26  C   UNL     1      10.729  13.142  23.273  0.00  0.00    +0.001 A 
ATOM     28  C   UNL     1      10.410  13.905  22.150  0.00  0.00    +0.003 A 
ENDBRANCH  15  20
BRANCH  17  21
ATOM     21  C   UNL     1      12.910   9.930  17.504  0.00  0.00    +0.107 C 
BRANCH  21  22
ATOM     22  C   UNL     1      14.198  10.330  16.811  0.00  0.00    +0.129 C 
BRANCH  22  27
ATOM      5  O   UNL     1      14.916  10.572  14.518  0.00  0.00    -0.251 OA
ATOM     27  C   UNL     1      14.001  10.451  15.321  0.00  0.00    +0.305 C 
BRANCH  27   4
ATOM      4  O   UNL     1      12.692  10.435  14.965  0.00  0.00    -0.481 OA
ATOM     29  H   UNL     1      12.119  10.827  15.657  0.00  0.00    +0.295 HD
ENDBRANCH  27   4
ENDBRANCH  22  27
ENDBRANCH  21  22
ENDBRANCH  17  21
TORSDOF 5
ENDMDL
MODEL 3
REMARK VINA RESULT:      -6.7     14.471     17.286
REMARK  Name = 9424347
REMARK  5 active torsions:
REMARK  status: ('A' for Active; 'I' for Inactive)
REMARK    1  A    between atoms: O_4  and  C_27
REMARK    2  A    between atoms: C_15  and  C_20
REMARK    3  A    between atoms: C_17  and  C_21
REMARK    4  A    between atoms: C_21  and  C_22
REMARK    5  A    between atoms: C_22  and  C_27
REMARK                            x       y       z     vdW  Elec       q    Type
REMARK                         _______ _______ _______ _____ _____    ______ ____
ROOT
ATOM      2  O   UNL     1      10.903   5.548   8.661  0.00  0.00    -0.268 OA
ATOM      3  O   UNL     1      10.889  10.583   7.112  0.00  0.00    -0.276 OA
ATOM      6  N   UNL     1      12.019   9.285   5.551  0.00  0.00    -0.301 N 
ATOM      7  N   UNL     1      11.734   6.295   6.603  0.00  0.00    -0.311 N 
ATOM      8  C   UNL     1      13.802   7.804   6.459  0.00  0.00    +0.027 C 
ATOM      9  C   UNL     1      12.612   7.155   4.409  0.00  0.00    +0.054 C 
ATOM     10  C   UNL     1      13.982   7.181   5.084  0.00  0.00    +0.018 C 
ATOM     11  C   UNL     1      13.246   9.232   6.343  0.00  0.00    +0.113 C 
ATOM     12  C   UNL     1      12.886   6.900   7.286  0.00  0.00    +0.130 C 
ATOM     13  C   UNL     1      12.089   8.598   4.255  0.00  0.00    +0.117 C 
ATOM     14  C   UNL     1      11.610   6.309   5.199  0.00  0.00    +0.034 A 
ATOM     15  C   UNL     1      10.611   5.609   4.602  0.00  0.00    +0.005 A 
ATOM     16  C   UNL     1      10.833   5.604   7.433  0.00  0.00    +0.252 A 
ATOM     17  C   UNL     1      10.924  10.013   6.018  0.00  0.00    +0.216 C 
ATOM     18  C   UNL     1       9.660   4.886   5.427  0.00  0.00    +0.015 A 
ATOM     19  C   UNL     1       9.733   4.880   6.757  0.00  0.00    +0.071 A 
ENDROOT
BRANCH  15  20
ATOM      1  F   UNL     1      11.368   3.386   3.033  0.00  0.00    -0.205 F 
ATOM     20  C   UNL     1      10.450   5.578   3.132  0.00  0.00    +0.019 A 
ATOM     23  C   UNL     1      10.843   4.452   2.412  0.00  0.00    +0.131 A 
ATOM     24  C   UNL     1       9.907   6.679   2.476  0.00  0.00    +0.011 A 
ATOM     25  C   UNL     1      10.691   4.428   1.026  0.00  0.00    +0.039 A 
ATOM     26  C   UNL     1       9.755   6.655   1.090  0.00  0.00    +0.001 A 
ATOM     28  C   UNL     1      10.146   5.530   0.365  0.00  0.00    +0.003 A 
ENDBRANCH  15  20
BRANCH  17  21
ATOM     21  C   UNL     1       9.720  10.080   5.113  0.00  0.00    +0.107 C 
BRANCH  21  22
ATOM     22  C   UNL     1       8.453   9.913   5.928  0.00  0.00    +0.129 C 
BRANCH  22  27
ATOM      5  O   UNL     1       8.308   7.940   7.313  0.00  0.00    -0.251 OA
ATOM     27  C   UNL     1       8.176   8.459   6.212  0.00  0.00    +0.305 C 
BRANCH  27   4
ATOM      4  O   UNL     1       7.783   7.777   5.108  0.00  0.00    -0.481 OA
ATOM     29  H   UNL     1       8.071   6.840   5.135  0.00  0.00    +0.295 HD
ENDBRANCH  27   4
ENDBRANCH  22  27
ENDBRANCH  21  22
ENDBRANCH  17  21
TORSDOF 5
ENDMDL
MODEL 4
REMARK VINA RESULT:      -6.6     15.156     18.029
REMARK  Name = 9424347
REMARK  5 active torsions:
REMARK  status: ('A' for Active; 'I' for Inactive)
REMARK    1  A    between atoms: O_4  and  C_27
REMARK    2  A    between atoms: C_15  and  C_20
REMARK    3  A    between atoms: C_17  and  C_21
REMARK    4  A    between atoms: C_21  and  C_22
REMARK    5  A    between atoms: C_22  and  C_27
REMARK                            x       y       z     vdW  Elec       q    Type
REMARK                         _______ _______ _______ _____ _____    ______ ____
ROOT
ATOM      2  O   UNL     1       7.670   8.956   2.559  0.00  0.00    -0.268 OA
ATOM      3  O   UNL     1      10.850   9.641   6.703  0.00  0.00    -0.276 OA
ATOM      6  N   UNL     1      10.789   7.392   6.124  0.00  0.00    -0.301 N 
ATOM      7  N   UNL     1       8.973   7.260   3.514  0.00  0.00    -0.311 N 
ATOM      8  C   UNL     1       8.520   6.395   5.885  0.00  0.00    +0.027 C 
ATOM      9  C   UNL     1      10.392   5.480   4.581  0.00  0.00    +0.054 C 
ATOM     10  C   UNL     1       9.143   5.104   5.376  0.00  0.00    +0.018 C 
ATOM     11  C   UNL     1       9.505   7.160   6.783  0.00  0.00    +0.113 C 
ATOM     12  C   UNL     1       8.079   7.229   4.680  0.00  0.00    +0.130 C 
ATOM     13  C   UNL     1      11.392   6.203   5.507  0.00  0.00    +0.117 C 
ATOM     14  C   UNL     1      10.051   6.362   3.377  0.00  0.00    +0.034 A 
ATOM     15  C   UNL     1      10.756   6.326   2.218  0.00  0.00    +0.005 A 
ATOM     16  C   UNL     1       8.608   8.162   2.498  0.00  0.00    +0.252 A 
ATOM     17  C   UNL     1      11.376   8.656   6.177  0.00  0.00    +0.216 C 
ATOM     18  C   UNL     1      10.411   7.243   1.147  0.00  0.00    +0.015 A 
ATOM     19  C   UNL     1       9.418   8.124   1.259  0.00  0.00    +0.071 A 
ENDROOT
BRANCH  15  20
ATOM      1  F   UNL     1      10.377   3.578   1.682  0.00  0.00    -0.205 F 
ATOM     20  C   UNL     1      11.883   5.388   2.020  0.00  0.00    +0.019 A 
ATOM     23  C   UNL     1      11.633   4.043   1.759  0.00  0.00    +0.131 A 
ATOM     24  C   UNL     1      13.191   5.859   2.097  0.00  0.00    +0.011 A 
ATOM     25  C   UNL     1      12.699   3.163   1.574  0.00  0.00    +0.039 A 
ATOM     26  C   UNL     1      14.257   4.979   1.913  0.00  0.00    +0.001 A 
ATOM     28  C   UNL     1      14.011   3.631   1.650  0.00  0.00    +0.003 A 
ENDBRANCH  15  20
BRANCH  17  21
ATOM     21  C   UNL     1      12.733   8.800   5.537  0.00  0.00    +0.107 C 
BRANCH  21  22
ATOM     22  C   UNL     1      13.816   8.667   6.589  0.00  0.00    +0.129 C 
BRANCH  22  27
ATOM      5  O   UNL     1      15.409   7.207   5.508  0.00  0.00    -0.251 OA
ATOM     27  C   UNL     1      14.599   7.391   6.407  0.00  0.00    +0.305 C 
BRANCH  27   4
ATOM      4  O   UNL     1      14.293   6.454   7.338  0.00  0.00    -0.481 OA
ATOM     29  H   UNL     1      15.056   6.255   7.922  0.00  0.00    +0.295 HD
ENDBRANCH  27   4
ENDBRANCH  22  27
ENDBRANCH  21  22
ENDBRANCH  17  21
TORSDOF 5
ENDMDL
MODEL 5
REMARK VINA RESULT:      -6.4     14.853     17.231
REMARK  Name = 9424347
REMARK  5 active torsions:
REMARK  status: ('A' for Active; 'I' for Inactive)
REMARK    1  A    between atoms: O_4  and  C_27
REMARK    2  A    between atoms: C_15  and  C_20
REMARK    3  A    between atoms: C_17  and  C_21
REMARK    4  A    between atoms: C_21  and  C_22
REMARK    5  A    between atoms: C_22  and  C_27
REMARK                            x       y       z     vdW  Elec       q    Type
REMARK                         _______ _______ _______ _____ _____    ______ ____
ROOT
ATOM      2  O   UNL     1       8.778  10.308   3.151  0.00  0.00    -0.268 OA
ATOM      3  O   UNL     1      12.946   7.443   1.678  0.00  0.00    -0.276 OA
ATOM      6  N   UNL     1      12.858   7.565   3.997  0.00  0.00    -0.301 N 
ATOM      7  N   UNL     1      10.185   9.170   4.637  0.00  0.00    -0.311 N 
ATOM      8  C   UNL     1      12.636   9.853   4.955  0.00  0.00    +0.027 C 
ATOM      9  C   UNL     1      11.729   7.928   6.186  0.00  0.00    +0.054 C 
ATOM     10  C   UNL     1      12.472   9.254   6.343  0.00  0.00    +0.018 C 
ATOM     11  C   UNL     1      13.435   8.908   4.043  0.00  0.00    +0.113 C 
ATOM     12  C   UNL     1      11.247  10.155   4.389  0.00  0.00    +0.130 C 
ATOM     13  C   UNL     1      12.565   6.972   5.308  0.00  0.00    +0.117 C 
ATOM     14  C   UNL     1      10.340   8.129   5.575  0.00  0.00    +0.034 A 
ATOM     15  C   UNL     1       9.282   7.334   5.883  0.00  0.00    +0.005 A 
ATOM     16  C   UNL     1       8.971   9.407   3.967  0.00  0.00    +0.252 A 
ATOM     17  C   UNL     1      12.692   6.924   2.769  0.00  0.00    +0.216 C 
ATOM     18  C   UNL     1       8.014   7.548   5.209  0.00  0.00    +0.015 A 
ATOM     19  C   UNL     1       7.846   8.504   4.296  0.00  0.00    +0.071 A 
ENDROOT
BRANCH  15  20
ATOM      1  F   UNL     1       8.714   7.702   8.625  0.00  0.00    -0.205 F 
ATOM     20  C   UNL     1       9.390   6.241   6.874  0.00  0.00    +0.019 A 
ATOM     23  C   UNL     1       9.097   6.484   8.214  0.00  0.00    +0.131 A 
ATOM     24  C   UNL     1       9.786   4.974   6.459  0.00  0.00    +0.011 A 
ATOM     25  C   UNL     1       9.200   5.451   9.144  0.00  0.00    +0.039 A 
ATOM     26  C   UNL     1       9.891   3.940   7.389  0.00  0.00    +0.001 A 
ATOM     28  C   UNL     1       9.597   4.178   8.732  0.00  0.00    +0.003 A 
ENDBRANCH  15  20
BRANCH  17  21
ATOM     21  C   UNL     1      12.159   5.515   2.808  0.00  0.00    +0.107 C 
BRANCH  21  22
ATOM     22  C   UNL     1      10.662   5.523   2.571  0.00  0.00    +0.129 C 
BRANCH  22  27
ATOM      5  O   UNL     1       9.855   3.992   0.886  0.00  0.00    -0.251 OA
ATOM     27  C   UNL     1      10.330   5.085   1.167  0.00  0.00    +0.305 C 
BRANCH  27   4
ATOM      4  O   UNL     1      10.635   6.027   0.240  0.00  0.00    -0.481 OA
ATOM     29  H   UNL     1       9.833   6.379  -0.202  0.00  0.00    +0.295 HD
ENDBRANCH  27   4
ENDBRANCH  22  27
ENDBRANCH  21  22
ENDBRANCH  17  21
TORSDOF 5
ENDMDL
MODEL 6
REMARK VINA RESULT:      -6.4     14.370     17.209
REMARK  Name = 9424347
REMARK  5 active torsions:
REMARK  status: ('A' for Active; 'I' for Inactive)
REMARK    1  A    between atoms: O_4  and  C_27
REMARK    2  A    between atoms: C_15  and  C_20
REMARK    3  A    between atoms: C_17  and  C_21
REMARK    4  A    between atoms: C_21  and  C_22
REMARK    5  A    between atoms: C_22  and  C_27
REMARK                            x       y       z     vdW  Elec       q    Type
REMARK                         _______ _______ _______ _____ _____    ______ ____
ROOT
ATOM      2  O   UNL     1       7.254   9.186   4.378  0.00  0.00    -0.268 OA
ATOM      3  O   UNL     1      11.511   9.899   7.397  0.00  0.00    -0.276 OA
ATOM      6  N   UNL     1      11.278   7.643   6.891  0.00  0.00    -0.301 N 
ATOM      7  N   UNL     1       8.776   7.493   4.930  0.00  0.00    -0.311 N 
ATOM      8  C   UNL     1       9.036   6.657   7.340  0.00  0.00    +0.027 C 
ATOM      9  C   UNL     1      10.441   5.716   5.556  0.00  0.00    +0.054 C 
ATOM     10  C   UNL     1       9.479   5.357   6.687  0.00  0.00    +0.018 C 
ATOM     11  C   UNL     1      10.243   7.426   7.900  0.00  0.00    +0.113 C 
ATOM     12  C   UNL     1       8.264   7.481   6.307  0.00  0.00    +0.130 C 
ATOM     13  C   UNL     1      11.670   6.444   6.139  0.00  0.00    +0.117 C 
ATOM     14  C   UNL     1       9.764   6.587   4.494  0.00  0.00    +0.034 A 
ATOM     15  C   UNL     1      10.098   6.533   3.179  0.00  0.00    +0.005 A 
ATOM     16  C   UNL     1       8.131   8.385   4.054  0.00  0.00    +0.252 A 
ATOM     17  C   UNL     1      11.858   8.904   6.753  0.00  0.00    +0.216 C 
ATOM     18  C   UNL     1       9.456   7.441   2.246  0.00  0.00    +0.015 A 
ATOM     19  C   UNL     1       8.541   8.329   2.633  0.00  0.00    +0.071 A 
ENDROOT
BRANCH  15  20
ATOM      1  F   UNL     1      12.790   7.274   2.750  0.00  0.00    -0.205 F 
ATOM     20  C   UNL     1      11.115   5.587   2.671  0.00  0.00    +0.019 A 
ATOM     23  C   UNL     1      12.427   6.011   2.479  0.00  0.00    +0.131 A 
ATOM     24  C   UNL     1      10.751   4.274   2.387  0.00  0.00    +0.011 A 
ATOM     25  C   UNL     1      13.382   5.115   2.000  0.00  0.00    +0.039 A 
ATOM     26  C   UNL     1      11.705   3.378   1.906  0.00  0.00    +0.001 A 
ATOM     28  C   UNL     1      13.021   3.798   1.714  0.00  0.00    +0.003 A 
ENDBRANCH  15  20
BRANCH  17  21
ATOM     21  C   UNL     1      12.968   9.033   5.741  0.00  0.00    +0.107 C 
BRANCH  21  22
ATOM     22  C   UNL     1      14.309   9.059   6.447  0.00  0.00    +0.129 C 
BRANCH  22  27
ATOM      5  O   UNL     1      15.573  11.004   5.772  0.00  0.00    -0.251 OA
ATOM     27  C   UNL     1      14.826  10.469   6.581  0.00  0.00    +0.305 C 
BRANCH  27   4
ATOM      4  O   UNL     1      14.393  11.078   7.713  0.00  0.00    -0.481 OA
ATOM     29  H   UNL     1      13.426  11.240   7.695  0.00  0.00    +0.295 HD
ENDBRANCH  27   4
ENDBRANCH  22  27
ENDBRANCH  21  22
ENDBRANCH  17  21
TORSDOF 5
ENDMDL
MODEL 7
REMARK VINA RESULT:      -6.3     14.571     17.763
REMARK  Name = 9424347
REMARK  5 active torsions:
REMARK  status: ('A' for Active; 'I' for Inactive)
REMARK    1  A    between atoms: O_4  and  C_27
REMARK    2  A    between atoms: C_15  and  C_20
REMARK    3  A    between atoms: C_17  and  C_21
REMARK    4  A    between atoms: C_21  and  C_22
REMARK    5  A    between atoms: C_22  and  C_27
REMARK                            x       y       z     vdW  Elec       q    Type
REMARK                         _______ _______ _______ _____ _____    ______ ____
ROOT
ATOM      2  O   UNL     1      12.735  10.274   6.001  0.00  0.00    -0.268 OA
ATOM      3  O   UNL     1       8.293   7.944   7.609  0.00  0.00    -0.276 OA
ATOM      6  N   UNL     1       8.364   7.978   5.287  0.00  0.00    -0.301 N 
ATOM      7  N   UNL     1      11.191   9.251   4.568  0.00  0.00    -0.311 N 
ATOM      8  C   UNL     1       8.828  10.193   4.248  0.00  0.00    +0.027 C 
ATOM      9  C   UNL     1       9.498   8.139   3.077  0.00  0.00    +0.054 C 
ATOM     10  C   UNL     1       8.907   9.533   2.881  0.00  0.00    +0.018 C 
ATOM     11  C   UNL     1       7.941   9.374   5.200  0.00  0.00    +0.113 C 
ATOM     12  C   UNL     1      10.249  10.356   4.791  0.00  0.00    +0.130 C 
ATOM     13  C   UNL     1       8.573   7.313   3.994  0.00  0.00    +0.117 C 
ATOM     14  C   UNL     1      10.910   8.203   3.668  0.00  0.00    +0.034 A 
ATOM     15  C   UNL     1      11.868   7.285   3.378  0.00  0.00    +0.005 A 
ATOM     16  C   UNL     1      12.432   9.374   5.218  0.00  0.00    +0.252 A 
ATOM     17  C   UNL     1       8.473   7.364   6.535  0.00  0.00    +0.216 C 
ATOM     18  C   UNL     1      13.160   7.378   4.033  0.00  0.00    +0.015 A 
ATOM     19  C   UNL     1      13.445   8.339   4.911  0.00  0.00    +0.071 A 
ENDROOT
BRANCH  15  20
ATOM      1  F   UNL     1      10.918   4.754   4.194  0.00  0.00    -0.205 F 
ATOM     20  C   UNL     1      11.626   6.179   2.426  0.00  0.00    +0.019 A 
ATOM     23  C   UNL     1      11.157   4.952   2.889  0.00  0.00    +0.131 A 
ATOM     24  C   UNL     1      11.872   6.373   1.071  0.00  0.00    +0.011 A 
ATOM     25  C   UNL     1      10.931   3.912   1.988  0.00  0.00    +0.039 A 
ATOM     26  C   UNL     1      11.647   5.333   0.169  0.00  0.00    +0.001 A 
ATOM     28  C   UNL     1      11.176   4.103   0.628  0.00  0.00    +0.003 A 
ENDBRANCH  15  20
BRANCH  17  21
ATOM     21  C   UNL     1       8.845   5.903   6.540  0.00  0.00    +0.107 C 
BRANCH  21  22
ATOM     22  C   UNL     1      10.087   5.691   7.382  0.00  0.00    +0.129 C 
BRANCH  22  27
ATOM      5  O   UNL     1       9.165   5.199   9.560  0.00  0.00    -0.251 OA
ATOM     27  C   UNL     1       9.793   4.822   8.579  0.00  0.00    +0.305 C 
BRANCH  27   4
ATOM      4  O   UNL     1      10.320   3.578   8.464  0.00  0.00    -0.481 OA
ATOM     29  H   UNL     1      10.156   3.192   7.577  0.00  0.00    +0.295 HD
ENDBRANCH  27   4
ENDBRANCH  22  27
ENDBRANCH  21  22
ENDBRANCH  17  21
TORSDOF 5
ENDMDL
MODEL 8
REMARK VINA RESULT:      -6.1     27.801     29.536
REMARK  Name = 9424347
REMARK  5 active torsions:
REMARK  status: ('A' for Active; 'I' for Inactive)
REMARK    1  A    between atoms: O_4  and  C_27
REMARK    2  A    between atoms: C_15  and  C_20
REMARK    3  A    between atoms: C_17  and  C_21
REMARK    4  A    between atoms: C_21  and  C_22
REMARK    5  A    between atoms: C_22  and  C_27
REMARK                            x       y       z     vdW  Elec       q    Type
REMARK                         _______ _______ _______ _____ _____    ______ ____
ROOT
ATOM      2  O   UNL     1      -6.220 -15.122  16.715  0.00  0.00    -0.268 OA
ATOM      3  O   UNL     1      -8.215 -10.455  18.125  0.00  0.00    -0.276 OA
ATOM      6  N   UNL     1      -6.105 -10.159  17.199  0.00  0.00    -0.301 N 
ATOM      7  N   UNL     1      -5.198 -13.063  16.267  0.00  0.00    -0.311 N 
ATOM      8  C   UNL     1      -4.294 -11.577  18.151  0.00  0.00    +0.027 C 
ATOM      9  C   UNL     1      -4.146 -10.824  15.816  0.00  0.00    +0.054 C 
ATOM     10  C   UNL     1      -3.335 -11.063  17.089  0.00  0.00    +0.018 C 
ATOM     11  C   UNL     1      -5.409 -10.554  18.422  0.00  0.00    +0.113 C 
ATOM     12  C   UNL     1      -4.854 -12.924  17.689  0.00  0.00    +0.130 C 
ATOM     13  C   UNL     1      -5.229  -9.761  16.089  0.00  0.00    +0.117 C 
ATOM     14  C   UNL     1      -4.789 -12.117  15.306  0.00  0.00    +0.034 A 
ATOM     15  C   UNL     1      -4.997 -12.361  13.986  0.00  0.00    +0.005 A 
ATOM     16  C   UNL     1      -5.855 -14.258  15.919  0.00  0.00    +0.252 A 
ATOM     17  C   UNL     1      -7.499 -10.116  17.179  0.00  0.00    +0.216 C 
ATOM     18  C   UNL     1      -5.675 -13.582  13.589  0.00  0.00    +0.015 A 
ATOM     19  C   UNL     1      -6.100 -14.480  14.476  0.00  0.00    +0.071 A 
ENDROOT
BRANCH  15  20
ATOM      1  F   UNL     1      -6.710 -10.371  12.945  0.00  0.00    -0.205 F 
ATOM     20  C   UNL     1      -4.569 -11.408  12.940  0.00  0.00    +0.019 A 
ATOM     23  C   UNL     1      -5.460 -10.448  12.466  0.00  0.00    +0.131 A 
ATOM     24  C   UNL     1      -3.274 -11.478  12.434  0.00  0.00    +0.011 A 
ATOM     25  C   UNL     1      -5.052  -9.551  11.478  0.00  0.00    +0.039 A 
ATOM     26  C   UNL     1      -2.866 -10.582  11.446  0.00  0.00    +0.001 A 
ATOM     28  C   UNL     1      -3.755  -9.618  10.969  0.00  0.00    +0.003 A 
ENDBRANCH  15  20
BRANCH  17  21
ATOM     21  C   UNL     1      -8.143  -9.629  15.905  0.00  0.00    +0.107 C 
BRANCH  21  22
ATOM     22  C   UNL     1      -9.603  -9.306  16.156  0.00  0.00    +0.129 C 
BRANCH  22  27
ATOM      5  O   UNL     1     -10.043  -6.977  15.690  0.00  0.00    -0.251 OA
ATOM     27  C   UNL     1      -9.787  -7.852  16.507  0.00  0.00    +0.305 C 
BRANCH  27   4
ATOM      4  O   UNL     1      -9.614  -7.608  17.830  0.00  0.00    -0.481 OA
ATOM     29  H   UNL     1      -9.274  -6.703  17.995  0.00  0.00    +0.295 HD
ENDBRANCH  27   4
ENDBRANCH  22  27
ENDBRANCH  21  22
ENDBRANCH  17  21
TORSDOF 5
ENDMDL
MODEL 9
REMARK VINA RESULT:      -5.9     27.719     29.761
REMARK  Name = 9424347
REMARK  5 active torsions:
REMARK  status: ('A' for Active; 'I' for Inactive)
REMARK    1  A    between atoms: O_4  and  C_27
REMARK    2  A    between atoms: C_15  and  C_20
REMARK    3  A    between atoms: C_17  and  C_21
REMARK    4  A    between atoms: C_21  and  C_22
REMARK    5  A    between atoms: C_22  and  C_27
REMARK                            x       y       z     vdW  Elec       q    Type
REMARK                         _______ _______ _______ _____ _____    ______ ____
ROOT
ATOM      2  O   UNL     1      -6.968 -14.820  15.469  0.00  0.00    -0.268 OA
ATOM      3  O   UNL     1      -3.810 -11.857  18.467  0.00  0.00    -0.276 OA
ATOM      6  N   UNL     1      -4.742 -10.554  16.784  0.00  0.00    -0.301 N 
ATOM      7  N   UNL     1      -6.729 -12.502  15.239  0.00  0.00    -0.311 N 
ATOM      8  C   UNL     1      -4.520 -11.451  14.471  0.00  0.00    +0.027 C 
ATOM      9  C   UNL     1      -6.431 -10.013  15.038  0.00  0.00    +0.054 C 
ATOM     10  C   UNL     1      -5.403 -10.326  13.953  0.00  0.00    +0.018 C 
ATOM     11  C   UNL     1      -3.806 -11.032  15.767  0.00  0.00    +0.113 C 
ATOM     12  C   UNL     1      -5.387 -12.695  14.673  0.00  0.00    +0.130 C 
ATOM     13  C   UNL     1      -5.703  -9.547  16.317  0.00  0.00    +0.117 C 
ATOM     14  C   UNL     1      -7.316 -11.224  15.344  0.00  0.00    +0.034 A 
ATOM     15  C   UNL     1      -8.613 -11.106  15.731  0.00  0.00    +0.005 A 
ATOM     16  C   UNL     1      -7.427 -13.681  15.555  0.00  0.00    +0.252 A 
ATOM     17  C   UNL     1      -4.627 -11.009  18.097  0.00  0.00    +0.216 C 
ATOM     18  C   UNL     1      -9.364 -12.301  16.068  0.00  0.00    +0.015 A 
ATOM     19  C   UNL     1      -8.827 -13.520  16.008  0.00  0.00    +0.071 A 
ENDROOT
BRANCH  15  20
ATOM      1  F   UNL     1      -8.548  -9.553  18.089  0.00  0.00    -0.205 F 
ATOM     20  C   UNL     1      -9.278  -9.789  15.838  0.00  0.00    +0.019 A 
ATOM     23  C   UNL     1      -9.211  -9.070  17.028  0.00  0.00    +0.131 A 
ATOM     24  C   UNL     1      -9.969  -9.278  14.743  0.00  0.00    +0.011 A 
ATOM     25  C   UNL     1      -9.840  -7.829  17.124  0.00  0.00    +0.039 A 
ATOM     26  C   UNL     1     -10.600  -8.037  14.839  0.00  0.00    +0.001 A 
ATOM     28  C   UNL     1     -10.534  -7.313  16.029  0.00  0.00    +0.003 A 
ENDBRANCH  15  20
BRANCH  17  21
ATOM     21  C   UNL     1      -5.581 -10.417  19.104  0.00  0.00    +0.107 C 
BRANCH  21  22
ATOM     22  C   UNL     1      -5.967 -11.467  20.127  0.00  0.00    +0.129 C 
BRANCH  22  27
ATOM      5  O   UNL     1      -8.357 -11.815  20.073  0.00  0.00    -0.251 OA
ATOM     27  C   UNL     1      -7.238 -12.174  19.730  0.00  0.00    +0.305 C 
BRANCH  27   4
ATOM      4  O   UNL     1      -7.008 -13.270  18.965  0.00  0.00    -0.481 OA
ATOM     29  H   UNL     1      -6.100 -13.619  19.089  0.00  0.00    +0.295 HD
ENDBRANCH  27   4
ENDBRANCH  22  27
ENDBRANCH  21  22
ENDBRANCH  17  21
TORSDOF 5
ENDMDL
MODEL 10
REMARK VINA RESULT:      -5.8     14.946     17.918
REMARK  Name = 9424347
REMARK  5 active torsions:
REMARK  status: ('A' for Active; 'I' for Inactive)
REMARK    1  A    between atoms: O_4  and  C_27
REMARK    2  A    between atoms: C_15  and  C_20
REMARK    3  A    between atoms: C_17  and  C_21
REMARK    4  A    between atoms: C_21  and  C_22
REMARK    5  A    between atoms: C_22  and  C_27
REMARK                            x       y       z     vdW  Elec       q    Type
REMARK                         _______ _______ _______ _____ _____    ______ ____
ROOT
ATOM      2  O   UNL     1      14.566   7.793   2.851  0.00  0.00    -0.268 OA
ATOM      3  O   UNL     1       9.799   8.470   0.715  0.00  0.00    -0.276 OA
ATOM      6  N   UNL     1       9.736   6.709   2.229  0.00  0.00    -0.301 N 
ATOM      7  N   UNL     1      12.649   6.617   3.507  0.00  0.00    -0.311 N 
ATOM      8  C   UNL     1      11.486   4.962   1.932  0.00  0.00    +0.027 C 
ATOM      9  C   UNL     1      10.559   5.385   4.169  0.00  0.00    +0.054 C 
ATOM     10  C   UNL     1      11.027   4.287   3.215  0.00  0.00    +0.018 C 
ATOM     11  C   UNL     1      10.338   5.760   1.293  0.00  0.00    +0.113 C 
ATOM     12  C   UNL     1      12.689   5.851   2.254  0.00  0.00    +0.130 C 
ATOM     13  C   UNL     1       9.376   6.145   3.536  0.00  0.00    +0.117 C 
ATOM     14  C   UNL     1      11.692   6.357   4.509  0.00  0.00    +0.034 A 
ATOM     15  C   UNL     1      11.785   6.983   5.711  0.00  0.00    +0.005 A 
ATOM     16  C   UNL     1      13.697   7.538   3.686  0.00  0.00    +0.252 A 
ATOM     17  C   UNL     1       9.486   8.019   1.820  0.00  0.00    +0.216 C 
ATOM     18  C   UNL     1      12.852   7.943   5.930  0.00  0.00    +0.015 A 
ATOM     19  C   UNL     1      13.753   8.232   4.992  0.00  0.00    +0.071 A 
ENDROOT
BRANCH  15  20
ATOM      1  F   UNL     1       9.496   8.587   6.118  0.00  0.00    -0.205 F 
ATOM     20  C   UNL     1      10.816   6.729   6.799  0.00  0.00    +0.019 A 
ATOM     23  C   UNL     1       9.706   7.556   6.950  0.00  0.00    +0.131 A 
ATOM     24  C   UNL     1      11.023   5.663   7.669  0.00  0.00    +0.011 A 
ATOM     25  C   UNL     1       8.795   7.313   7.978  0.00  0.00    +0.039 A 
ATOM     26  C   UNL     1      10.114   5.420   8.698  0.00  0.00    +0.001 A 
ATOM     28  C   UNL     1       8.999   6.244   8.852  0.00  0.00    +0.003 A 
ENDBRANCH  15  20
BRANCH  17  21
ATOM     21  C   UNL     1       8.799   8.918   2.815  0.00  0.00    +0.107 C 
BRANCH  21  22
ATOM     22  C   UNL     1       7.385   9.212   2.354  0.00  0.00    +0.129 C 
BRANCH  22  27
ATOM      5  O   UNL     1       5.604  10.493   3.365  0.00  0.00    -0.251 OA
ATOM     27  C   UNL     1       6.531   9.705   3.495  0.00  0.00    +0.305 C 
BRANCH  27   4
ATOM      4  O   UNL     1       6.915   9.196   4.692  0.00  0.00    -0.481 OA
ATOM     29  H   UNL     1       6.344   9.513   5.424  0.00  0.00    +0.295 HD
ENDBRANCH  27   4
ENDBRANCH  22  27
ENDBRANCH  21  22
ENDBRANCH  17  21
TORSDOF 5
ENDMDL
