MODEL 1
REMARK VINA RESULT:      -6.8      0.000      0.000
REMARK  Name = 11943122
REMARK  6 active torsions:
REMARK  status: ('A' for Active; 'I' for Inactive)
REMARK    1  A    between atoms: O_1  and  C_13
REMARK    2  A    between atoms: O_1  and  C_15
REMARK    3  A    between atoms: N_4  and  C_16
REMARK    4  A    between atoms: C_6  and  C_12
REMARK    5  A    between atoms: C_8  and  C_13
REMARK    6  A    between atoms: C_12  and  C_14
REMARK                            x       y       z     vdW  Elec       q    Type
REMARK                         _______ _______ _______ _____ _____    ______ ____
ROOT
ATOM      2  O   UNL     1      -3.506 -12.343  14.543  0.00  0.00    -0.226 OA
ATOM      4  N   UNL     1      -3.508 -10.388  15.830  0.00  0.00    -0.251 N 
ATOM     15  C   UNL     1      -3.237 -11.162  14.718  0.00  0.00    +0.405 C 
ATOM     26  H   UNL     1      -3.191  -9.429  15.756  0.00  0.00    +0.158 HD
ENDROOT
BRANCH   4  16
ATOM     16  C   UNL     1      -4.160 -10.778  17.022  0.00  0.00    +0.044 A 
ATOM     17  C   UNL     1      -5.489 -10.423  17.272  0.00  0.00    +0.003 A 
ATOM     18  C   UNL     1      -3.422 -11.525  17.931  0.00  0.00    +0.024 A 
ATOM     19  C   UNL     1      -6.089 -10.841  18.484  0.00  0.00    -0.016 A 
ATOM     20  C   UNL     1      -6.241  -9.667  16.358  0.00  0.00    +0.010 A 
ATOM     21  C   UNL     1      -4.012 -11.936  19.122  0.00  0.00    +0.002 A 
ATOM     22  C   UNL     1      -5.337 -11.596  19.398  0.00  0.00    +0.008 A 
ATOM     23  C   UNL     1      -7.424 -10.491  18.746  0.00  0.00    +0.008 A 
ATOM     24  C   UNL     1      -7.566  -9.329  16.635  0.00  0.00    +0.001 A 
ATOM     25  C   UNL     1      -8.156  -9.739  17.827  0.00  0.00    +0.001 A 
ENDBRANCH   4  16
BRANCH  15   1
ATOM      1  O   UNL     1      -2.587 -10.396  13.776  0.00  0.00    -0.449 OA
BRANCH   1  13
ATOM     13  C   UNL     1      -2.738 -10.785  12.424  0.00  0.00    +0.252 C 
BRANCH  13   8
ATOM      3  N   UNL     1      -5.015  -9.994  11.730  0.00  0.00    -0.296 NA
ATOM      5  C   UNL     1      -4.274  -9.386   9.312  0.00  0.00    -0.004 C 
ATOM      6  C   UNL     1      -5.057 -10.719   9.330  0.00  0.00    +0.006 C 
ATOM      7  C   UNL     1      -3.060  -9.494  10.253  0.00  0.00    +0.026 C 
ATOM      8  C   UNL     1      -3.555  -9.712  11.701  0.00  0.00    +0.094 C 
ATOM      9  C   UNL     1      -5.344 -11.101  10.800  0.00  0.00    +0.088 C 
ATOM     10  C   UNL     1      -5.209  -8.309   9.896  0.00  0.00    +0.019 C 
ATOM     11  C   UNL     1      -5.725  -8.777  11.269  0.00  0.00    +0.085 C 
BRANCH   6  12
ATOM     12  C   UNL     1      -4.346 -11.845   8.583  0.00  0.00    +0.002 C 
ATOM     14  C   UNL     1      -4.104 -13.039   9.485  0.00  0.00    +0.004 C 
ENDBRANCH   6  12
ENDBRANCH  13   8
ENDBRANCH   1  13
ENDBRANCH  15   1
TORSDOF 5
ENDMDL
MODEL 2
REMARK VINA RESULT:      -6.6      1.571      2.480
REMARK  Name = 11943122
REMARK  6 active torsions:
REMARK  status: ('A' for Active; 'I' for Inactive)
REMARK    1  A    between atoms: O_1  and  C_13
REMARK    2  A    between atoms: O_1  and  C_15
REMARK    3  A    between atoms: N_4  and  C_16
REMARK    4  A    between atoms: C_6  and  C_12
REMARK    5  A    between atoms: C_8  and  C_13
REMARK    6  A    between atoms: C_12  and  C_14
REMARK                            x       y       z     vdW  Elec       q    Type
REMARK                         _______ _______ _______ _____ _____    ______ ____
ROOT
ATOM      2  O   UNL     1      -6.197 -11.330  13.647  0.00  0.00    -0.226 OA
ATOM      4  N   UNL     1      -5.595  -9.547  15.039  0.00  0.00    -0.251 N 
ATOM     15  C   UNL     1      -6.030 -10.137  13.869  0.00  0.00    +0.405 C 
ATOM     26  H   UNL     1      -5.529  -8.537  14.996  0.00  0.00    +0.158 HD
ENDROOT
BRANCH   4  16
ATOM     16  C   UNL     1      -5.243 -10.179  16.253  0.00  0.00    +0.044 A 
ATOM     17  C   UNL     1      -6.185 -10.385  17.265  0.00  0.00    +0.003 A 
ATOM     18  C   UNL     1      -3.922 -10.584  16.395  0.00  0.00    +0.024 A 
ATOM     19  C   UNL     1      -5.775 -11.024  18.459  0.00  0.00    -0.016 A 
ATOM     20  C   UNL     1      -7.523  -9.979  17.129  0.00  0.00    +0.010 A 
ATOM     21  C   UNL     1      -3.518 -11.211  17.570  0.00  0.00    +0.002 A 
ATOM     22  C   UNL     1      -4.438 -11.430  18.596  0.00  0.00    +0.008 A 
ATOM     23  C   UNL     1      -6.714 -11.236  19.482  0.00  0.00    +0.008 A 
ATOM     24  C   UNL     1      -8.441 -10.199  18.155  0.00  0.00    +0.001 A 
ATOM     25  C   UNL     1      -8.038 -10.825  19.330  0.00  0.00    +0.001 A 
ENDBRANCH   4  16
BRANCH  15   1
ATOM      1  O   UNL     1      -6.266  -9.162  12.926  0.00  0.00    -0.449 OA
BRANCH   1  13
ATOM     13  C   UNL     1      -7.117  -9.509  11.850  0.00  0.00    +0.252 C 
BRANCH  13   8
ATOM      3  N   UNL     1      -6.146 -10.488   9.755  0.00  0.00    -0.296 NA
ATOM      5  C   UNL     1      -3.937  -9.125   9.915  0.00  0.00    -0.004 C 
ATOM      6  C   UNL     1      -3.715 -10.588  10.361  0.00  0.00    +0.006 C 
ATOM      7  C   UNL     1      -5.043  -8.491  10.778  0.00  0.00    +0.026 C 
ATOM      8  C   UNL     1      -6.371  -9.246  10.540  0.00  0.00    +0.094 C 
ATOM      9  C   UNL     1      -5.082 -11.308  10.383  0.00  0.00    +0.088 C 
ATOM     10  C   UNL     1      -4.459  -9.172   8.466  0.00  0.00    +0.019 C 
ATOM     11  C   UNL     1      -5.687 -10.097   8.400  0.00  0.00    +0.085 C 
BRANCH   6  12
ATOM     12  C   UNL     1      -2.993 -10.707  11.701  0.00  0.00    +0.002 C 
ATOM     14  C   UNL     1      -1.696  -9.922  11.702  0.00  0.00    +0.004 C 
ENDBRANCH   6  12
ENDBRANCH  13   8
ENDBRANCH   1  13
ENDBRANCH  15   1
TORSDOF 5
ENDMDL
MODEL 3
REMARK VINA RESULT:      -6.5     22.418     25.113
REMARK  Name = 11943122
REMARK  6 active torsions:
REMARK  status: ('A' for Active; 'I' for Inactive)
REMARK    1  A    between atoms: O_1  and  C_13
REMARK    2  A    between atoms: O_1  and  C_15
REMARK    3  A    between atoms: N_4  and  C_16
REMARK    4  A    between atoms: C_6  and  C_12
REMARK    5  A    between atoms: C_8  and  C_13
REMARK    6  A    between atoms: C_12  and  C_14
REMARK                            x       y       z     vdW  Elec       q    Type
REMARK                         _______ _______ _______ _____ _____    ______ ____
ROOT
ATOM      2  O   UNL     1       8.661   7.324   2.980  0.00  0.00    -0.226 OA
ATOM      4  N   UNL     1      10.256   6.499   4.480  0.00  0.00    -0.251 N 
ATOM     15  C   UNL     1       9.669   6.681   3.243  0.00  0.00    +0.405 C 
ATOM     26  H   UNL     1      11.090   5.923   4.463  0.00  0.00    +0.158 HD
ENDROOT
BRANCH   4  16
ATOM     16  C   UNL     1       9.835   7.012   5.727  0.00  0.00    +0.044 A 
ATOM     17  C   UNL     1       9.682   6.180   6.840  0.00  0.00    +0.003 A 
ATOM     18  C   UNL     1       9.579   8.376   5.796  0.00  0.00    +0.024 A 
ATOM     19  C   UNL     1       9.256   6.750   8.064  0.00  0.00    -0.016 A 
ATOM     20  C   UNL     1       9.938   4.801   6.778  0.00  0.00    +0.010 A 
ATOM     21  C   UNL     1       9.160   8.935   6.999  0.00  0.00    +0.002 A 
ATOM     22  C   UNL     1       8.999   8.129   8.126  0.00  0.00    +0.008 A 
ATOM     23  C   UNL     1       9.100   5.924   9.189  0.00  0.00    +0.008 A 
ATOM     24  C   UNL     1       9.778   3.996   7.906  0.00  0.00    +0.001 A 
ATOM     25  C   UNL     1       9.358   4.555   9.109  0.00  0.00    +0.001 A 
ENDBRANCH   4  16
BRANCH  15   1
ATOM      1  O   UNL     1      10.398   6.010   2.287  0.00  0.00    -0.449 OA
BRANCH   1  13
ATOM     13  C   UNL     1      11.600   6.620   1.858  0.00  0.00    +0.252 C 
BRANCH  13   8
ATOM      3  N   UNL     1      13.813   5.811   0.999  0.00  0.00    -0.296 NA
ATOM      5  C   UNL     1      13.140   3.300   1.076  0.00  0.00    -0.004 C 
ATOM      6  C   UNL     1      13.097   3.838  -0.373  0.00  0.00    +0.006 C 
ATOM      7  C   UNL     1      12.212   4.150   1.963  0.00  0.00    +0.026 C 
ATOM      8  C   UNL     1      12.735   5.604   2.002  0.00  0.00    +0.094 C 
ATOM      9  C   UNL     1      13.363   5.360  -0.340  0.00  0.00    +0.088 C 
ATOM     10  C   UNL     1      14.578   3.507   1.588  0.00  0.00    +0.019 C 
ATOM     11  C   UNL     1      14.975   4.981   1.399  0.00  0.00    +0.085 C 
BRANCH   6  12
ATOM     12  C   UNL     1      11.794   3.509  -1.099  0.00  0.00    +0.002 C 
ATOM     14  C   UNL     1      11.995   2.407  -2.121  0.00  0.00    +0.004 C 
ENDBRANCH   6  12
ENDBRANCH  13   8
ENDBRANCH   1  13
ENDBRANCH  15   1
TORSDOF 5
ENDMDL
MODEL 4
REMARK VINA RESULT:      -6.5     22.269     25.927
REMARK  Name = 11943122
REMARK  6 active torsions:
REMARK  status: ('A' for Active; 'I' for Inactive)
REMARK    1  A    between atoms: O_1  and  C_13
REMARK    2  A    between atoms: O_1  and  C_15
REMARK    3  A    between atoms: N_4  and  C_16
REMARK    4  A    between atoms: C_6  and  C_12
REMARK    5  A    between atoms: C_8  and  C_13
REMARK    6  A    between atoms: C_12  and  C_14
REMARK                            x       y       z     vdW  Elec       q    Type
REMARK                         _______ _______ _______ _____ _____    ______ ____
ROOT
ATOM      2  O   UNL     1      10.902   7.625   1.814  0.00  0.00    -0.226 OA
ATOM      4  N   UNL     1      10.295   5.394   2.179  0.00  0.00    -0.251 N 
ATOM     15  C   UNL     1      10.214   6.763   2.345  0.00  0.00    +0.405 C 
ATOM     26  H   UNL     1       9.621   4.868   2.723  0.00  0.00    +0.158 HD
ENDROOT
BRANCH   4  16
ATOM     16  C   UNL     1      11.189   4.669   1.359  0.00  0.00    +0.044 A 
ATOM     17  C   UNL     1      10.987   4.567  -0.021  0.00  0.00    +0.003 A 
ATOM     18  C   UNL     1      12.272   4.065   1.984  0.00  0.00    +0.024 A 
ATOM     19  C   UNL     1      11.915   3.827  -0.792  0.00  0.00    -0.016 A 
ATOM     20  C   UNL     1       9.894   5.175  -0.660  0.00  0.00    +0.010 A 
ATOM     21  C   UNL     1      13.184   3.338   1.226  0.00  0.00    +0.002 A 
ATOM     22  C   UNL     1      13.008   3.218  -0.154  0.00  0.00    +0.008 A 
ATOM     23  C   UNL     1      11.723   3.718  -2.179  0.00  0.00    +0.008 A 
ATOM     24  C   UNL     1       9.720   5.056  -2.038  0.00  0.00    +0.001 A 
ATOM     25  C   UNL     1      10.631   4.328  -2.797  0.00  0.00    +0.001 A 
ENDBRANCH   4  16
BRANCH  15   1
ATOM      1  O   UNL     1       9.204   7.056   3.234  0.00  0.00    -0.449 OA
BRANCH   1  13
ATOM     13  C   UNL     1       9.234   6.382   4.478  0.00  0.00    +0.252 C 
BRANCH  13   8
ATOM      3  N   UNL     1      10.700   7.518   6.166  0.00  0.00    -0.296 NA
ATOM      5  C   UNL     1       8.941   7.367   8.076  0.00  0.00    -0.004 C 
ATOM      6  C   UNL     1      10.045   6.300   8.258  0.00  0.00    +0.006 C 
ATOM      7  C   UNL     1       8.280   7.186   6.697  0.00  0.00    +0.026 C 
ATOM      8  C   UNL     1       9.332   7.427   5.591  0.00  0.00    +0.094 C 
ATOM      9  C   UNL     1      10.976   6.341   7.025  0.00  0.00    +0.088 C 
ATOM     10  C   UNL     1       9.641   8.739   8.070  0.00  0.00    +0.019 C 
ATOM     11  C   UNL     1      10.760   8.733   7.014  0.00  0.00    +0.085 C 
BRANCH   6  12
ATOM     12  C   UNL     1       9.493   4.897   8.501  0.00  0.00    +0.002 C 
ATOM     14  C   UNL     1       9.231   4.655   9.975  0.00  0.00    +0.004 C 
ENDBRANCH   6  12
ENDBRANCH  13   8
ENDBRANCH   1  13
ENDBRANCH  15   1
TORSDOF 5
ENDMDL
MODEL 5
REMARK VINA RESULT:      -6.4     22.019     24.115
REMARK  Name = 11943122
REMARK  6 active torsions:
REMARK  status: ('A' for Active; 'I' for Inactive)
REMARK    1  A    between atoms: O_1  and  C_13
REMARK    2  A    between atoms: O_1  and  C_15
REMARK    3  A    between atoms: N_4  and  C_16
REMARK    4  A    between atoms: C_6  and  C_12
REMARK    5  A    between atoms: C_8  and  C_13
REMARK    6  A    between atoms: C_12  and  C_14
REMARK                            x       y       z     vdW  Elec       q    Type
REMARK                         _______ _______ _______ _____ _____    ______ ____
ROOT
ATOM      2  O   UNL     1     -13.741  10.400  22.978  0.00  0.00    -0.226 OA
ATOM      4  N   UNL     1     -11.973  11.850  23.479  0.00  0.00    -0.251 N 
ATOM     15  C   UNL     1     -12.672  10.936  22.714  0.00  0.00    +0.405 C 
ATOM     26  H   UNL     1     -11.104  12.162  23.062  0.00  0.00    +0.158 HD
ENDROOT
BRANCH   4  16
ATOM     16  C   UNL     1     -12.327  12.380  24.740  0.00  0.00    +0.044 A 
ATOM     17  C   UNL     1     -11.946  11.747  25.926  0.00  0.00    +0.003 A 
ATOM     18  C   UNL     1     -13.070  13.554  24.746  0.00  0.00    +0.024 A 
ATOM     19  C   UNL     1     -12.330  12.324  27.160  0.00  0.00    -0.016 A 
ATOM     20  C   UNL     1     -11.196  10.560  25.928  0.00  0.00    +0.010 A 
ATOM     21  C   UNL     1     -13.447  14.121  25.960  0.00  0.00    +0.002 A 
ATOM     22  C   UNL     1     -13.081  13.511  27.160  0.00  0.00    +0.008 A 
ATOM     23  C   UNL     1     -11.952  11.697  28.359  0.00  0.00    +0.008 A 
ATOM     24  C   UNL     1     -10.829   9.951  27.128  0.00  0.00    +0.001 A 
ATOM     25  C   UNL     1     -11.207  10.517  28.342  0.00  0.00    +0.001 A 
ENDBRANCH   4  16
BRANCH  15   1
ATOM      1  O   UNL     1     -11.978  10.687  21.551  0.00  0.00    -0.449 OA
BRANCH   1  13
ATOM     13  C   UNL     1     -12.553  11.166  20.351  0.00  0.00    +0.252 C 
BRANCH  13   8
ATOM      3  N   UNL     1     -12.560   9.808  18.242  0.00  0.00    -0.296 NA
ATOM      5  C   UNL     1     -10.358   8.550  18.819  0.00  0.00    -0.004 C 
ATOM      6  C   UNL     1     -11.589   7.649  19.066  0.00  0.00    +0.006 C 
ATOM      7  C   UNL     1     -10.495   9.838  19.652  0.00  0.00    +0.026 C 
ATOM      8  C   UNL     1     -11.738  10.624  19.175  0.00  0.00    +0.094 C 
ATOM      9  C   UNL     1     -12.867   8.489  18.846  0.00  0.00    +0.088 C 
ATOM     10  C   UNL     1     -10.393   8.961  17.335  0.00  0.00    +0.019 C 
ATOM     11  C   UNL     1     -11.764   9.579  17.012  0.00  0.00    +0.085 C 
BRANCH   6  12
ATOM     12  C   UNL     1     -11.582   6.981  20.439  0.00  0.00    +0.002 C 
ATOM     14  C   UNL     1     -12.845   7.302  21.216  0.00  0.00    +0.004 C 
ENDBRANCH   6  12
ENDBRANCH  13   8
ENDBRANCH   1  13
ENDBRANCH  15   1
TORSDOF 5
ENDMDL
MODEL 6
REMARK VINA RESULT:      -6.4      1.673      3.226
REMARK  Name = 11943122
REMARK  6 active torsions:
REMARK  status: ('A' for Active; 'I' for Inactive)
REMARK    1  A    between atoms: O_1  and  C_13
REMARK    2  A    between atoms: O_1  and  C_15
REMARK    3  A    between atoms: N_4  and  C_16
REMARK    4  A    between atoms: C_6  and  C_12
REMARK    5  A    between atoms: C_8  and  C_13
REMARK    6  A    between atoms: C_12  and  C_14
REMARK                            x       y       z     vdW  Elec       q    Type
REMARK                         _______ _______ _______ _____ _____    ______ ____
ROOT
ATOM      2  O   UNL     1      -6.758 -11.403  13.904  0.00  0.00    -0.226 OA
ATOM      4  N   UNL     1      -6.631  -9.477  15.226  0.00  0.00    -0.251 N 
ATOM     15  C   UNL     1      -6.574 -10.202  14.052  0.00  0.00    +0.405 C 
ATOM     26  H   UNL     1      -6.441  -8.488  15.114  0.00  0.00    +0.158 HD
ENDROOT
BRANCH   4  16
ATOM     16  C   UNL     1      -6.915  -9.949  16.528  0.00  0.00    +0.044 A 
ATOM     17  C   UNL     1      -5.930 -10.560  17.309  0.00  0.00    +0.003 A 
ATOM     18  C   UNL     1      -8.213  -9.781  16.992  0.00  0.00    +0.024 A 
ATOM     19  C   UNL     1      -6.273 -11.014  18.605  0.00  0.00    -0.016 A 
ATOM     20  C   UNL     1      -4.616 -10.735  16.846  0.00  0.00    +0.010 A 
ATOM     21  C   UNL     1      -8.550 -10.227  18.266  0.00  0.00    +0.002 A 
ATOM     22  C   UNL     1      -7.587 -10.841  19.068  0.00  0.00    +0.008 A 
ATOM     23  C   UNL     1      -5.291 -11.630  19.399  0.00  0.00    +0.008 A 
ATOM     24  C   UNL     1      -3.654 -11.347  17.650  0.00  0.00    +0.001 A 
ATOM     25  C   UNL     1      -3.991 -11.795  18.923  0.00  0.00    +0.001 A 
ENDBRANCH   4  16
BRANCH  15   1
ATOM      1  O   UNL     1      -6.266  -9.359  13.008  0.00  0.00    -0.449 OA
BRANCH   1  13
ATOM     13  C   UNL     1      -7.184  -9.315  11.933  0.00  0.00    +0.252 C 
BRANCH  13   8
ATOM      3  N   UNL     1      -6.276 -10.444   9.886  0.00  0.00    -0.296 NA
ATOM      5  C   UNL     1      -3.951  -9.288  10.048  0.00  0.00    -0.004 C 
ATOM      6  C   UNL     1      -3.875 -10.752  10.540  0.00  0.00    +0.006 C 
ATOM      7  C   UNL     1      -5.007  -8.528  10.872  0.00  0.00    +0.026 C 
ATOM      8  C   UNL     1      -6.396  -9.162  10.631  0.00  0.00    +0.094 C 
ATOM      9  C   UNL     1      -5.304 -11.340  10.558  0.00  0.00    +0.088 C 
ATOM     10  C   UNL     1      -4.452  -9.331   8.592  0.00  0.00    +0.019 C 
ATOM     11  C   UNL     1      -5.760 -10.138   8.530  0.00  0.00    +0.085 C 
BRANCH   6  12
ATOM     12  C   UNL     1      -3.189 -10.896  11.897  0.00  0.00    +0.002 C 
ATOM     14  C   UNL     1      -1.829 -10.227  11.903  0.00  0.00    +0.004 C 
ENDBRANCH   6  12
ENDBRANCH  13   8
ENDBRANCH   1  13
ENDBRANCH  15   1
TORSDOF 5
ENDMDL
MODEL 7
REMARK VINA RESULT:      -6.4      2.009      7.188
REMARK  Name = 11943122
REMARK  6 active torsions:
REMARK  status: ('A' for Active; 'I' for Inactive)
REMARK    1  A    between atoms: O_1  and  C_13
REMARK    2  A    between atoms: O_1  and  C_15
REMARK    3  A    between atoms: N_4  and  C_16
REMARK    4  A    between atoms: C_6  and  C_12
REMARK    5  A    between atoms: C_8  and  C_13
REMARK    6  A    between atoms: C_12  and  C_14
REMARK                            x       y       z     vdW  Elec       q    Type
REMARK                         _______ _______ _______ _____ _____    ______ ____
ROOT
ATOM      2  O   UNL     1      -5.838 -13.472  12.627  0.00  0.00    -0.226 OA
ATOM      4  N   UNL     1      -5.913 -11.291  13.471  0.00  0.00    -0.251 N 
ATOM     15  C   UNL     1      -5.956 -12.669  13.544  0.00  0.00    +0.405 C 
ATOM     26  H   UNL     1      -6.036 -10.824  14.362  0.00  0.00    +0.158 HD
ENDROOT
BRANCH   4  16
ATOM     16  C   UNL     1      -5.721 -10.486  12.326  0.00  0.00    +0.044 A 
ATOM     17  C   UNL     1      -4.439 -10.168  11.869  0.00  0.00    +0.003 A 
ATOM     18  C   UNL     1      -6.860 -10.026  11.678  0.00  0.00    +0.024 A 
ATOM     19  C   UNL     1      -4.308  -9.357  10.716  0.00  0.00    -0.016 A 
ATOM     20  C   UNL     1      -3.282 -10.628  12.519  0.00  0.00    +0.010 A 
ATOM     21  C   UNL     1      -6.731  -9.229  10.545  0.00  0.00    +0.002 A 
ATOM     22  C   UNL     1      -5.464  -8.895  10.066  0.00  0.00    +0.008 A 
ATOM     23  C   UNL     1      -3.024  -9.031  10.248  0.00  0.00    +0.008 A 
ATOM     24  C   UNL     1      -2.015 -10.295  12.039  0.00  0.00    +0.001 A 
ATOM     25  C   UNL     1      -1.886  -9.497  10.906  0.00  0.00    +0.001 A 
ENDBRANCH   4  16
BRANCH  15   1
ATOM      1  O   UNL     1      -6.162 -13.052  14.850  0.00  0.00    -0.449 OA
BRANCH   1  13
ATOM     13  C   UNL     1      -7.137 -12.332  15.579  0.00  0.00    +0.252 C 
BRANCH  13   8
ATOM      3  N   UNL     1      -6.451 -10.661  17.319  0.00  0.00    -0.296 NA
ATOM      5  C   UNL     1      -4.306 -11.966  17.998  0.00  0.00    -0.004 C 
ATOM      6  C   UNL     1      -3.954 -10.754  17.106  0.00  0.00    +0.006 C 
ATOM      7  C   UNL     1      -5.297 -12.878  17.252  0.00  0.00    +0.026 C 
ATOM      8  C   UNL     1      -6.610 -12.105  16.997  0.00  0.00    +0.094 C 
ATOM      9  C   UNL     1      -5.269 -10.106  16.617  0.00  0.00    +0.088 C 
ATOM     10  C   UNL     1      -5.038 -11.414  19.236  0.00  0.00    +0.019 C 
ATOM     11  C   UNL     1      -6.219 -10.541  18.779  0.00  0.00    +0.085 C 
BRANCH   6  12
ATOM     12  C   UNL     1      -3.034 -11.111  15.940  0.00  0.00    +0.002 C 
ATOM     14  C   UNL     1      -1.627 -10.593  16.169  0.00  0.00    +0.004 C 
ENDBRANCH   6  12
ENDBRANCH  13   8
ENDBRANCH   1  13
ENDBRANCH  15   1
TORSDOF 5
ENDMDL
MODEL 8
REMARK VINA RESULT:      -6.3      3.749      6.721
REMARK  Name = 11943122
REMARK  6 active torsions:
REMARK  status: ('A' for Active; 'I' for Inactive)
REMARK    1  A    between atoms: O_1  and  C_13
REMARK    2  A    between atoms: O_1  and  C_15
REMARK    3  A    between atoms: N_4  and  C_16
REMARK    4  A    between atoms: C_6  and  C_12
REMARK    5  A    between atoms: C_8  and  C_13
REMARK    6  A    between atoms: C_12  and  C_14
REMARK                            x       y       z     vdW  Elec       q    Type
REMARK                         _______ _______ _______ _____ _____    ______ ____
ROOT
ATOM      2  O   UNL     1      -7.785 -11.403  14.022  0.00  0.00    -0.226 OA
ATOM      4  N   UNL     1      -6.831  -9.595  15.162  0.00  0.00    -0.251 N 
ATOM     15  C   UNL     1      -7.745 -10.220  14.337  0.00  0.00    +0.405 C 
ATOM     26  H   UNL     1      -6.991  -8.602  15.282  0.00  0.00    +0.158 HD
ENDROOT
BRANCH   4  16
ATOM     16  C   UNL     1      -5.731 -10.172  15.836  0.00  0.00    +0.044 A 
ATOM     17  C   UNL     1      -5.807 -10.514  17.189  0.00  0.00    +0.003 A 
ATOM     18  C   UNL     1      -4.575 -10.380  15.095  0.00  0.00    +0.024 A 
ATOM     19  C   UNL     1      -4.673 -11.088  17.811  0.00  0.00    -0.016 A 
ATOM     20  C   UNL     1      -6.972 -10.305  17.945  0.00  0.00    +0.010 A 
ATOM     21  C   UNL     1      -3.460 -10.945  15.707  0.00  0.00    +0.002 A 
ATOM     22  C   UNL     1      -3.507 -11.297  17.057  0.00  0.00    +0.008 A 
ATOM     23  C   UNL     1      -4.737 -11.437  19.170  0.00  0.00    +0.008 A 
ATOM     24  C   UNL     1      -7.018 -10.658  19.293  0.00  0.00    +0.001 A 
ATOM     25  C   UNL     1      -5.903 -11.222  19.906  0.00  0.00    +0.001 A 
ENDBRANCH   4  16
BRANCH  15   1
ATOM      1  O   UNL     1      -8.660  -9.296  13.884  0.00  0.00    -0.449 OA
BRANCH   1  13
ATOM     13  C   UNL     1     -10.027  -9.620  14.048  0.00  0.00    +0.252 C 
BRANCH  13   8
ATOM      3  N   UNL     1      -9.990  -7.568  15.490  0.00  0.00    -0.296 NA
ATOM      5  C   UNL     1     -12.429  -7.887  16.336  0.00  0.00    -0.004 C 
ATOM      6  C   UNL     1     -11.410  -8.317  17.416  0.00  0.00    +0.006 C 
ATOM      7  C   UNL     1     -12.178  -8.695  15.049  0.00  0.00    +0.026 C 
ATOM      8  C   UNL     1     -10.771  -8.363  14.504  0.00  0.00    +0.094 C 
ATOM      9  C   UNL     1      -9.991  -8.243  16.810  0.00  0.00    +0.088 C 
ATOM     10  C   UNL     1     -12.141  -6.409  16.010  0.00  0.00    +0.019 C 
ATOM     11  C   UNL     1     -10.655  -6.252  15.644  0.00  0.00    +0.085 C 
BRANCH   6  12
ATOM     12  C   UNL     1     -11.701  -9.695  18.005  0.00  0.00    +0.002 C 
ATOM     14  C   UNL     1     -10.630 -10.697  17.621  0.00  0.00    +0.004 C 
ENDBRANCH   6  12
ENDBRANCH  13   8
ENDBRANCH   1  13
ENDBRANCH  15   1
TORSDOF 5
ENDMDL
MODEL 9
REMARK VINA RESULT:      -6.3      2.171      7.474
REMARK  Name = 11943122
REMARK  6 active torsions:
REMARK  status: ('A' for Active; 'I' for Inactive)
REMARK    1  A    between atoms: O_1  and  C_13
REMARK    2  A    between atoms: O_1  and  C_15
REMARK    3  A    between atoms: N_4  and  C_16
REMARK    4  A    between atoms: C_6  and  C_12
REMARK    5  A    between atoms: C_8  and  C_13
REMARK    6  A    between atoms: C_12  and  C_14
REMARK                            x       y       z     vdW  Elec       q    Type
REMARK                         _______ _______ _______ _____ _____    ______ ____
ROOT
ATOM      2  O   UNL     1      -7.627 -11.539  12.744  0.00  0.00    -0.226 OA
ATOM      4  N   UNL     1      -6.787  -9.365  12.957  0.00  0.00    -0.251 N 
ATOM     15  C   UNL     1      -7.550 -10.459  13.315  0.00  0.00    +0.405 C 
ATOM     26  H   UNL     1      -6.880  -8.571  13.579  0.00  0.00    +0.158 HD
ENDROOT
BRANCH   4  16
ATOM     16  C   UNL     1      -5.918  -9.237  11.850  0.00  0.00    +0.044 A 
ATOM     17  C   UNL     1      -4.591  -9.672  11.915  0.00  0.00    +0.003 A 
ATOM     18  C   UNL     1      -6.440  -8.659  10.700  0.00  0.00    +0.024 A 
ATOM     19  C   UNL     1      -3.766  -9.517  10.775  0.00  0.00    -0.016 A 
ATOM     20  C   UNL     1      -4.056 -10.256  13.075  0.00  0.00    +0.010 A 
ATOM     21  C   UNL     1      -5.629  -8.506   9.580  0.00  0.00    +0.002 A 
ATOM     22  C   UNL     1      -4.300  -8.931   9.616  0.00  0.00    +0.008 A 
ATOM     23  C   UNL     1      -2.432  -9.950  10.829  0.00  0.00    +0.008 A 
ATOM     24  C   UNL     1      -2.728 -10.682  13.109  0.00  0.00    +0.001 A 
ATOM     25  C   UNL     1      -1.917 -10.528  11.989  0.00  0.00    +0.001 A 
ENDBRANCH   4  16
BRANCH  15   1
ATOM      1  O   UNL     1      -8.256 -10.169  14.462  0.00  0.00    -0.449 OA
BRANCH   1  13
ATOM     13  C   UNL     1      -7.945 -10.932  15.611  0.00  0.00    +0.252 C 
BRANCH  13   8
ATOM      3  N   UNL     1      -5.983 -12.343  16.282  0.00  0.00    -0.296 NA
ATOM      5  C   UNL     1      -4.760 -10.398  17.502  0.00  0.00    -0.004 C 
ATOM      6  C   UNL     1      -5.429 -11.352  18.518  0.00  0.00    +0.006 C 
ATOM      7  C   UNL     1      -5.826  -9.860  16.530  0.00  0.00    +0.026 C 
ATOM      8  C   UNL     1      -6.423 -11.036  15.725  0.00  0.00    +0.094 C 
ATOM      9  C   UNL     1      -6.257 -12.399  17.739  0.00  0.00    +0.088 C 
ATOM     10  C   UNL     1      -3.774 -11.245  16.675  0.00  0.00    +0.019 C 
ATOM     11  C   UNL     1      -4.518 -12.455  16.083  0.00  0.00    +0.085 C 
BRANCH   6  12
ATOM     12  C   UNL     1      -6.277 -10.625  19.559  0.00  0.00    +0.002 C 
ATOM     14  C   UNL     1      -7.734 -11.036  19.470  0.00  0.00    +0.004 C 
ENDBRANCH   6  12
ENDBRANCH  13   8
ENDBRANCH   1  13
ENDBRANCH  15   1
TORSDOF 5
ENDMDL
MODEL 10
REMARK VINA RESULT:      -6.3     23.299     26.241
REMARK  Name = 11943122
REMARK  6 active torsions:
REMARK  status: ('A' for Active; 'I' for Inactive)
REMARK    1  A    between atoms: O_1  and  C_13
REMARK    2  A    between atoms: O_1  and  C_15
REMARK    3  A    between atoms: N_4  and  C_16
REMARK    4  A    between atoms: C_6  and  C_12
REMARK    5  A    between atoms: C_8  and  C_13
REMARK    6  A    between atoms: C_12  and  C_14
REMARK                            x       y       z     vdW  Elec       q    Type
REMARK                         _______ _______ _______ _____ _____    ______ ____
ROOT
ATOM      2  O   UNL     1      11.974   8.271   2.954  0.00  0.00    -0.226 OA
ATOM      4  N   UNL     1      12.152   6.023   3.582  0.00  0.00    -0.251 N 
ATOM     15  C   UNL     1      12.187   7.390   3.777  0.00  0.00    +0.405 C 
ATOM     26  H   UNL     1      12.364   5.479   4.410  0.00  0.00    +0.158 HD
ENDROOT
BRANCH   4  16
ATOM     16  C   UNL     1      11.861   5.322   2.390  0.00  0.00    +0.044 A 
ATOM     17  C   UNL     1      12.880   4.875   1.544  0.00  0.00    +0.003 A 
ATOM     18  C   UNL     1      10.521   5.101   2.098  0.00  0.00    +0.024 A 
ATOM     19  C   UNL     1      12.528   4.179   0.363  0.00  0.00    -0.016 A 
ATOM     20  C   UNL     1      14.236   5.096   1.832  0.00  0.00    +0.010 A 
ATOM     21  C   UNL     1      10.176   4.416   0.936  0.00  0.00    +0.002 A 
ATOM     22  C   UNL     1      11.172   3.958   0.073  0.00  0.00    +0.008 A 
ATOM     23  C   UNL     1      13.544   3.724  -0.495  0.00  0.00    +0.008 A 
ATOM     24  C   UNL     1      15.231   4.636   0.969  0.00  0.00    +0.001 A 
ATOM     25  C   UNL     1      14.886   3.953  -0.193  0.00  0.00    +0.001 A 
ENDBRANCH   4  16
BRANCH  15   1
ATOM      1  O   UNL     1      12.511   7.656   5.089  0.00  0.00    -0.449 OA
BRANCH   1  13
ATOM     13  C   UNL     1      12.411   6.580   6.001  0.00  0.00    +0.252 C 
BRANCH  13   8
ATOM      3  N   UNL     1      10.324   5.712   7.087  0.00  0.00    -0.296 NA
ATOM      5  C   UNL     1       8.976   7.899   6.683  0.00  0.00    -0.004 C 
ATOM      6  C   UNL     1       8.564   6.803   5.674  0.00  0.00    +0.006 C 
ATOM      7  C   UNL     1      10.490   8.152   6.571  0.00  0.00    +0.026 C 
ATOM      8  C   UNL     1      11.253   6.866   6.960  0.00  0.00    +0.094 C 
ATOM      9  C   UNL     1       9.493   5.583   5.866  0.00  0.00    +0.088 C 
ATOM     10  C   UNL     1       8.711   7.334   8.091  0.00  0.00    +0.019 C 
ATOM     11  C   UNL     1       9.421   5.976   8.234  0.00  0.00    +0.085 C 
BRANCH   6  12
ATOM     12  C   UNL     1       8.563   7.287   4.225  0.00  0.00    +0.002 C 
ATOM     14  C   UNL     1       7.781   8.578   4.075  0.00  0.00    +0.004 C 
ENDBRANCH   6  12
ENDBRANCH  13   8
ENDBRANCH   1  13
ENDBRANCH  15   1
TORSDOF 5
ENDMDL
