MODEL 1
REMARK VINA RESULT:      -7.4      0.000      0.000
REMARK  Name = 51136888
REMARK  8 active torsions:
REMARK  status: ('A' for Active; 'I' for Inactive)
REMARK    1  A    between atoms: O_3  and  C_33
REMARK    2  A    between atoms: O_3  and  C_34
REMARK    3  A    between atoms: N_4  and  C_14
REMARK    4  A    between atoms: N_9  and  C_26
REMARK    5  A    between atoms: C_10  and  C_15
REMARK    6  A    between atoms: C_14  and  C_16
REMARK    7  A    between atoms: C_17  and  C_20
REMARK    8  A    between atoms: C_27  and  C_28
REMARK                            x       y       z     vdW  Elec       q    Type
REMARK                         _______ _______ _______ _____ _____    ______ ____
ROOT
ATOM      8  N   UNL     1      18.952   8.428  21.672  0.00  0.00    -0.239 NA
ATOM     20  C   UNL     1      16.590   8.719  21.239  0.00  0.00    +0.041 A 
ATOM     23  C   UNL     1      16.471   7.366  20.941  0.00  0.00    +0.016 A 
ATOM     24  C   UNL     1      17.841   9.196  21.596  0.00  0.00    +0.124 A 
ATOM     25  C   UNL     1      17.591   6.543  21.007  0.00  0.00    +0.044 A 
ATOM     26  C   UNL     1      18.797   7.118  21.375  0.00  0.00    +0.125 A 
ENDROOT
BRANCH  20  17
ATOM      1  O   UNL     1      13.972  10.957  20.469  0.00  0.00    -0.336 OA
ATOM      5  N   UNL     1      14.660   9.810  22.265  0.00  0.00    -0.190 NA
ATOM      6  N   UNL     1      15.108  10.244  20.064  0.00  0.00    -0.056 NA
ATOM     15  C   UNL     1      13.778  10.645  21.777  0.00  0.00    +0.245 A 
ATOM     17  C   UNL     1      15.455   9.592  21.178  0.00  0.00    +0.204 A 
BRANCH  15  10
ATOM      4  N   UNL     1      11.701  10.316  23.108  0.00  0.00    -0.287 NA
ATOM     10  C   UNL     1      12.593  11.298  22.457  0.00  0.00    +0.146 C 
ATOM     11  C   UNL     1      13.010  12.257  23.587  0.00  0.00    +0.030 C 
ATOM     12  C   UNL     1      12.256  11.773  24.817  0.00  0.00    +0.017 C 
ATOM     13  C   UNL     1      11.083  11.007  24.240  0.00  0.00    +0.085 C 
BRANCH   4  14
ATOM     14  C   UNL     1      10.708   9.753  22.202  0.00  0.00    +0.121 C 
BRANCH  14  16
ATOM      7  N   UNL     1      11.681   7.845  19.080  0.00  0.00    -0.263 NA
ATOM     16  C   UNL     1      11.300   8.692  21.312  0.00  0.00    -0.015 A 
ATOM     18  C   UNL     1      11.991   7.611  21.848  0.00  0.00    +0.008 A 
ATOM     19  C   UNL     1      11.174   8.763  19.934  0.00  0.00    +0.115 A 
ATOM     21  C   UNL     1      12.527   6.646  21.001  0.00  0.00    +0.020 A 
ATOM     22  C   UNL     1      12.345   6.809  19.637  0.00  0.00    +0.111 A 
ENDBRANCH  14  16
ENDBRANCH   4  14
ENDBRANCH  15  10
ENDBRANCH  20  17
BRANCH  26   9
ATOM      2  O   UNL     1      20.471   6.297  23.722  0.00  0.00    -0.270 OA
ATOM      9  N   UNL     1      19.917   6.282  21.439  0.00  0.00    -0.266 N 
ATOM     27  C   UNL     1      20.665   5.931  22.567  0.00  0.00    +0.249 C 
ATOM     35  H   UNL     1      20.155   5.874  20.539  0.00  0.00    +0.157 HD
BRANCH  27  28
ATOM     28  C   UNL     1      21.791   4.994  22.316  0.00  0.00    +0.037 A 
ATOM     29  C   UNL     1      21.615   3.904  21.464  0.00  0.00    +0.016 A 
ATOM     30  C   UNL     1      23.023   5.205  22.934  0.00  0.00    +0.016 A 
ATOM     31  C   UNL     1      22.672   3.025  21.230  0.00  0.00    +0.046 A 
ATOM     32  C   UNL     1      24.081   4.325  22.700  0.00  0.00    +0.046 A 
ATOM     33  C   UNL     1      23.904   3.235  21.847  0.00  0.00    +0.120 A 
BRANCH  33   3
ATOM      3  O   UNL     1      24.936   2.376  21.619  0.00  0.00    -0.495 OA
ATOM     34  C   UNL     1      24.615   0.990  21.518  0.00  0.00    +0.277 C 
ENDBRANCH  33   3
ENDBRANCH  27  28
ENDBRANCH  26   9
TORSDOF 7
ENDMDL
MODEL 2
REMARK VINA RESULT:      -7.3      1.715      3.846
REMARK  Name = 51136888
REMARK  8 active torsions:
REMARK  status: ('A' for Active; 'I' for Inactive)
REMARK    1  A    between atoms: O_3  and  C_33
REMARK    2  A    between atoms: O_3  and  C_34
REMARK    3  A    between atoms: N_4  and  C_14
REMARK    4  A    between atoms: N_9  and  C_26
REMARK    5  A    between atoms: C_10  and  C_15
REMARK    6  A    between atoms: C_14  and  C_16
REMARK    7  A    between atoms: C_17  and  C_20
REMARK    8  A    between atoms: C_27  and  C_28
REMARK                            x       y       z     vdW  Elec       q    Type
REMARK                         _______ _______ _______ _____ _____    ______ ____
ROOT
ATOM      8  N   UNL     1      19.128   4.977  19.713  0.00  0.00    -0.239 NA
ATOM     20  C   UNL     1      17.597   6.779  20.222  0.00  0.00    +0.041 A 
ATOM     23  C   UNL     1      18.561   7.381  21.023  0.00  0.00    +0.016 A 
ATOM     24  C   UNL     1      17.927   5.588  19.595  0.00  0.00    +0.124 A 
ATOM     25  C   UNL     1      19.808   6.782  21.171  0.00  0.00    +0.044 A 
ATOM     26  C   UNL     1      20.039   5.592  20.500  0.00  0.00    +0.125 A 
ENDROOT
BRANCH  20  17
ATOM      1  O   UNL     1      14.697   8.780  20.017  0.00  0.00    -0.336 OA
ATOM      5  N   UNL     1      15.238   6.647  19.602  0.00  0.00    -0.190 NA
ATOM      6  N   UNL     1      16.059   8.657  20.322  0.00  0.00    -0.056 NA
ATOM     15  C   UNL     1      14.292   7.552  19.600  0.00  0.00    +0.245 A 
ATOM     17  C   UNL     1      16.303   7.371  20.052  0.00  0.00    +0.204 A 
BRANCH  15  10
ATOM      4  N   UNL     1      12.017   8.559  19.669  0.00  0.00    -0.287 NA
ATOM     10  C   UNL     1      12.836   7.420  19.205  0.00  0.00    +0.146 C 
ATOM     11  C   UNL     1      12.635   7.389  17.679  0.00  0.00    +0.030 C 
ATOM     12  C   UNL     1      11.643   8.505  17.386  0.00  0.00    +0.017 C 
ATOM     13  C   UNL     1      10.924   8.700  18.706  0.00  0.00    +0.085 C 
BRANCH   4  14
ATOM     14  C   UNL     1      11.529   8.397  21.032  0.00  0.00    +0.121 C 
BRANCH  14  16
ATOM      7  N   UNL     1      10.768  10.949  23.722  0.00  0.00    -0.263 NA
ATOM     16  C   UNL     1      11.440   9.714  21.755  0.00  0.00    -0.015 A 
ATOM     18  C   UNL     1      11.920  10.884  21.177  0.00  0.00    +0.008 A 
ATOM     19  C   UNL     1      10.878   9.799  23.019  0.00  0.00    +0.115 A 
ATOM     21  C   UNL     1      11.824  12.087  21.869  0.00  0.00    +0.020 A 
ATOM     22  C   UNL     1      11.245  12.065  23.127  0.00  0.00    +0.111 A 
ENDBRANCH  14  16
ENDBRANCH   4  14
ENDBRANCH  15  10
ENDBRANCH  20  17
BRANCH  26   9
ATOM      2  O   UNL     1      21.471   4.710  22.981  0.00  0.00    -0.270 OA
ATOM      9  N   UNL     1      21.297   4.998  20.656  0.00  0.00    -0.266 N 
ATOM     27  C   UNL     1      21.920   4.605  21.844  0.00  0.00    +0.249 C 
ATOM     35  H   UNL     1      21.758   4.815  19.770  0.00  0.00    +0.157 HD
BRANCH  27  28
ATOM     28  C   UNL     1      23.254   3.972  21.682  0.00  0.00    +0.037 A 
ATOM     29  C   UNL     1      24.412   4.723  21.886  0.00  0.00    +0.016 A 
ATOM     30  C   UNL     1      23.349   2.627  21.326  0.00  0.00    +0.016 A 
ATOM     31  C   UNL     1      25.664   4.129  21.733  0.00  0.00    +0.046 A 
ATOM     32  C   UNL     1      24.602   2.032  21.172  0.00  0.00    +0.046 A 
ATOM     33  C   UNL     1      25.759   2.784  21.376  0.00  0.00    +0.120 A 
BRANCH  33   3
ATOM      3  O   UNL     1      26.983   2.204  21.226  0.00  0.00    -0.495 OA
ATOM     34  C   UNL     1      27.548   1.576  22.375  0.00  0.00    +0.277 C 
ENDBRANCH  33   3
ENDBRANCH  27  28
ENDBRANCH  26   9
TORSDOF 7
ENDMDL
MODEL 3
REMARK VINA RESULT:      -7.1      6.933      9.794
REMARK  Name = 51136888
REMARK  8 active torsions:
REMARK  status: ('A' for Active; 'I' for Inactive)
REMARK    1  A    between atoms: O_3  and  C_33
REMARK    2  A    between atoms: O_3  and  C_34
REMARK    3  A    between atoms: N_4  and  C_14
REMARK    4  A    between atoms: N_9  and  C_26
REMARK    5  A    between atoms: C_10  and  C_15
REMARK    6  A    between atoms: C_14  and  C_16
REMARK    7  A    between atoms: C_17  and  C_20
REMARK    8  A    between atoms: C_27  and  C_28
REMARK                            x       y       z     vdW  Elec       q    Type
REMARK                         _______ _______ _______ _____ _____    ______ ____
ROOT
ATOM      8  N   UNL     1      15.089   9.147  14.516  0.00  0.00    -0.239 NA
ATOM     20  C   UNL     1      14.062   9.225  16.704  0.00  0.00    +0.041 A 
ATOM     23  C   UNL     1      14.433  10.558  16.838  0.00  0.00    +0.016 A 
ATOM     24  C   UNL     1      14.412   8.569  15.534  0.00  0.00    +0.124 A 
ATOM     25  C   UNL     1      15.132  11.187  15.812  0.00  0.00    +0.044 A 
ATOM     26  C   UNL     1      15.432  10.444  14.682  0.00  0.00    +0.125 A 
ENDROOT
BRANCH  20  17
ATOM      1  O   UNL     1      12.039   7.209  18.778  0.00  0.00    -0.336 OA
ATOM      5  N   UNL     1      13.483   8.898  19.055  0.00  0.00    -0.190 NA
ATOM      6  N   UNL     1      12.495   7.546  17.497  0.00  0.00    -0.056 NA
ATOM     15  C   UNL     1      12.670   8.053  19.636  0.00  0.00    +0.245 A 
ATOM     17  C   UNL     1      13.343   8.549  17.743  0.00  0.00    +0.204 A 
BRANCH  15  10
ATOM      4  N   UNL     1      11.653   9.068  21.668  0.00  0.00    -0.287 NA
ATOM     10  C   UNL     1      12.343   7.889  21.106  0.00  0.00    +0.146 C 
ATOM     11  C   UNL     1      11.389   6.711  21.374  0.00  0.00    +0.030 C 
ATOM     12  C   UNL     1      10.222   7.313  22.144  0.00  0.00    +0.017 C 
ATOM     13  C   UNL     1      10.807   8.572  22.753  0.00  0.00    +0.085 C 
BRANCH   4  14
ATOM     14  C   UNL     1      12.569  10.108  22.119  0.00  0.00    +0.121 C 
BRANCH  14  16
ATOM      7  N   UNL     1      10.730  13.397  21.759  0.00  0.00    -0.263 NA
ATOM     16  C   UNL     1      12.175  11.465  21.600  0.00  0.00    -0.015 A 
ATOM     18  C   UNL     1      12.845  12.045  20.529  0.00  0.00    +0.008 A 
ATOM     19  C   UNL     1      11.134  12.176  22.176  0.00  0.00    +0.115 A 
ATOM     21  C   UNL     1      12.458  13.301  20.071  0.00  0.00    +0.020 A 
ATOM     22  C   UNL     1      11.405  13.928  20.715  0.00  0.00    +0.111 A 
ENDBRANCH  14  16
ENDBRANCH   4  14
ENDBRANCH  15  10
ENDBRANCH  20  17
BRANCH  26   9
ATOM      2  O   UNL     1      14.430  11.925  12.277  0.00  0.00    -0.270 OA
ATOM      9  N   UNL     1      16.136  11.086  13.657  0.00  0.00    -0.266 N 
ATOM     27  C   UNL     1      15.615  11.765  12.552  0.00  0.00    +0.249 C 
ATOM     35  H   UNL     1      17.142  11.061  13.795  0.00  0.00    +0.157 HD
BRANCH  27  28
ATOM     28  C   UNL     1      16.624  12.370  11.644  0.00  0.00    +0.037 A 
ATOM     29  C   UNL     1      17.898  12.676  12.123  0.00  0.00    +0.016 A 
ATOM     30  C   UNL     1      16.297  12.633  10.314  0.00  0.00    +0.016 A 
ATOM     31  C   UNL     1      18.845  13.244  11.271  0.00  0.00    +0.046 A 
ATOM     32  C   UNL     1      17.244  13.202   9.462  0.00  0.00    +0.046 A 
ATOM     33  C   UNL     1      18.518  13.507   9.941  0.00  0.00    +0.120 A 
BRANCH  33   3
ATOM      3  O   UNL     1      19.443  14.064   9.110  0.00  0.00    -0.495 OA
ATOM     34  C   UNL     1      19.149  14.055   7.715  0.00  0.00    +0.277 C 
ENDBRANCH  33   3
ENDBRANCH  27  28
ENDBRANCH  26   9
TORSDOF 7
ENDMDL
MODEL 4
REMARK VINA RESULT:      -6.9      3.625     11.581
REMARK  Name = 51136888
REMARK  8 active torsions:
REMARK  status: ('A' for Active; 'I' for Inactive)
REMARK    1  A    between atoms: O_3  and  C_33
REMARK    2  A    between atoms: O_3  and  C_34
REMARK    3  A    between atoms: N_4  and  C_14
REMARK    4  A    between atoms: N_9  and  C_26
REMARK    5  A    between atoms: C_10  and  C_15
REMARK    6  A    between atoms: C_14  and  C_16
REMARK    7  A    between atoms: C_17  and  C_20
REMARK    8  A    between atoms: C_27  and  C_28
REMARK                            x       y       z     vdW  Elec       q    Type
REMARK                         _______ _______ _______ _____ _____    ______ ____
ROOT
ATOM      8  N   UNL     1      19.041   5.332  19.932  0.00  0.00    -0.239 NA
ATOM     20  C   UNL     1      20.881   6.092  21.304  0.00  0.00    +0.041 A 
ATOM     23  C   UNL     1      20.181   7.253  21.612  0.00  0.00    +0.016 A 
ATOM     24  C   UNL     1      20.273   5.171  20.467  0.00  0.00    +0.124 A 
ATOM     25  C   UNL     1      18.912   7.455  21.081  0.00  0.00    +0.044 A 
ATOM     26  C   UNL     1      18.391   6.473  20.254  0.00  0.00    +0.125 A 
ENDROOT
BRANCH  20  17
ATOM      1  O   UNL     1      23.913   5.895  23.101  0.00  0.00    -0.336 OA
ATOM      5  N   UNL     1      23.100   5.075  21.182  0.00  0.00    -0.190 NA
ATOM      6  N   UNL     1      22.605   6.384  22.992  0.00  0.00    -0.056 NA
ATOM     15  C   UNL     1      24.124   5.134  21.994  0.00  0.00    +0.245 A 
ATOM     17  C   UNL     1      22.192   5.856  21.835  0.00  0.00    +0.204 A 
BRANCH  15  10
ATOM      4  N   UNL     1      25.456   3.043  22.205  0.00  0.00    -0.287 NA
ATOM     10  C   UNL     1      25.486   4.482  21.874  0.00  0.00    +0.146 C 
ATOM     11  C   UNL     1      26.049   4.543  20.443  0.00  0.00    +0.030 C 
ATOM     12  C   UNL     1      26.364   3.100  20.078  0.00  0.00    +0.017 C 
ATOM     13  C   UNL     1      26.522   2.417  21.422  0.00  0.00    +0.085 C 
BRANCH   4  14
ATOM     14  C   UNL     1      25.598   2.779  23.631  0.00  0.00    +0.121 C 
BRANCH  14  16
ATOM      7  N   UNL     1      22.123   2.047  24.944  0.00  0.00    -0.263 NA
ATOM     16  C   UNL     1      24.417   2.023  24.181  0.00  0.00    -0.015 A 
ATOM     18  C   UNL     1      24.494   0.658  24.432  0.00  0.00    +0.008 A 
ATOM     19  C   UNL     1      23.220   2.666  24.451  0.00  0.00    +0.115 A 
ATOM     21  C   UNL     1      23.386  -0.014  24.940  0.00  0.00    +0.020 A 
ATOM     22  C   UNL     1      22.236   0.721  25.176  0.00  0.00    +0.111 A 
ENDBRANCH  14  16
ENDBRANCH   4  14
ENDBRANCH  15  10
ENDBRANCH  20  17
BRANCH  26   9
ATOM      2  O   UNL     1      15.716   6.518  21.606  0.00  0.00    -0.270 OA
ATOM      9  N   UNL     1      17.113   6.686  19.724  0.00  0.00    -0.266 N 
ATOM     27  C   UNL     1      15.892   6.696  20.405  0.00  0.00    +0.249 C 
ATOM     35  H   UNL     1      17.129   6.892  18.730  0.00  0.00    +0.157 HD
BRANCH  27  28
ATOM     28  C   UNL     1      14.700   6.981  19.565  0.00  0.00    +0.037 A 
ATOM     29  C   UNL     1      14.860   7.358  18.232  0.00  0.00    +0.016 A 
ATOM     30  C   UNL     1      13.421   6.871  20.110  0.00  0.00    +0.016 A 
ATOM     31  C   UNL     1      13.741   7.626  17.444  0.00  0.00    +0.046 A 
ATOM     32  C   UNL     1      12.301   7.139  19.322  0.00  0.00    +0.046 A 
ATOM     33  C   UNL     1      12.462   7.517  17.989  0.00  0.00    +0.120 A 
BRANCH  33   3
ATOM      3  O   UNL     1      11.369   7.779  17.219  0.00  0.00    -0.495 OA
ATOM     34  C   UNL     1      11.402   8.966  16.429  0.00  0.00    +0.277 C 
ENDBRANCH  33   3
ENDBRANCH  27  28
ENDBRANCH  26   9
TORSDOF 7
ENDMDL
MODEL 5
REMARK VINA RESULT:      -6.7      2.168      3.550
REMARK  Name = 51136888
REMARK  8 active torsions:
REMARK  status: ('A' for Active; 'I' for Inactive)
REMARK    1  A    between atoms: O_3  and  C_33
REMARK    2  A    between atoms: O_3  and  C_34
REMARK    3  A    between atoms: N_4  and  C_14
REMARK    4  A    between atoms: N_9  and  C_26
REMARK    5  A    between atoms: C_10  and  C_15
REMARK    6  A    between atoms: C_14  and  C_16
REMARK    7  A    between atoms: C_17  and  C_20
REMARK    8  A    between atoms: C_27  and  C_28
REMARK                            x       y       z     vdW  Elec       q    Type
REMARK                         _______ _______ _______ _____ _____    ______ ____
ROOT
ATOM      8  N   UNL     1      19.496   6.559  21.651  0.00  0.00    -0.239 NA
ATOM     20  C   UNL     1      17.315   6.742  20.621  0.00  0.00    +0.041 A 
ATOM     23  C   UNL     1      17.687   5.816  19.653  0.00  0.00    +0.016 A 
ATOM     24  C   UNL     1      18.248   7.078  21.589  0.00  0.00    +0.124 A 
ATOM     25  C   UNL     1      18.963   5.262  19.682  0.00  0.00    +0.044 A 
ATOM     26  C   UNL     1      19.821   5.662  20.693  0.00  0.00    +0.125 A 
ENDROOT
BRANCH  20  17
ATOM      1  O   UNL     1      14.262   8.406  20.017  0.00  0.00    -0.336 OA
ATOM      5  N   UNL     1      15.163   7.209  21.681  0.00  0.00    -0.190 NA
ATOM      6  N   UNL     1      15.541   8.036  19.582  0.00  0.00    -0.056 NA
ATOM     15  C   UNL     1      14.121   7.879  21.262  0.00  0.00    +0.245 A 
ATOM     17  C   UNL     1      16.009   7.332  20.617  0.00  0.00    +0.204 A 
BRANCH  15  10
ATOM      4  N   UNL     1      12.188   9.420  21.548  0.00  0.00    -0.287 NA
ATOM     10  C   UNL     1      12.802   8.142  21.960  0.00  0.00    +0.146 C 
ATOM     11  C   UNL     1      11.739   7.075  21.641  0.00  0.00    +0.030 C 
ATOM     12  C   UNL     1      10.542   7.853  21.114  0.00  0.00    +0.017 C 
ATOM     13  C   UNL     1      10.742   9.245  21.681  0.00  0.00    +0.085 C 
BRANCH   4  14
ATOM     14  C   UNL     1      12.673  10.563  22.312  0.00  0.00    +0.121 C 
BRANCH  14  16
ATOM      7  N   UNL     1      12.048  13.587  20.123  0.00  0.00    -0.263 NA
ATOM     16  C   UNL     1      12.091  11.858  21.812  0.00  0.00    -0.015 A 
ATOM     18  C   UNL     1      11.098  12.520  22.525  0.00  0.00    +0.008 A 
ATOM     19  C   UNL     1      12.528  12.428  20.627  0.00  0.00    +0.115 A 
ATOM     21  C   UNL     1      10.578  13.715  22.038  0.00  0.00    +0.020 A 
ATOM     22  C   UNL     1      11.083  14.201  20.844  0.00  0.00    +0.111 A 
ENDBRANCH  14  16
ENDBRANCH   4  14
ENDBRANCH  15  10
ENDBRANCH  20  17
BRANCH  26   9
ATOM      2  O   UNL     1      22.491   6.900  20.124  0.00  0.00    -0.270 OA
ATOM      9  N   UNL     1      21.102   5.099  20.713  0.00  0.00    -0.266 N 
ATOM     27  C   UNL     1      22.321   5.726  20.437  0.00  0.00    +0.249 C 
ATOM     35  H   UNL     1      21.100   4.126  21.005  0.00  0.00    +0.157 HD
BRANCH  27  28
ATOM     28  C   UNL     1      23.523   4.864  20.569  0.00  0.00    +0.037 A 
ATOM     29  C   UNL     1      23.378   3.501  20.832  0.00  0.00    +0.016 A 
ATOM     30  C   UNL     1      24.796   5.416  20.431  0.00  0.00    +0.016 A 
ATOM     31  C   UNL     1      24.507   2.692  20.957  0.00  0.00    +0.046 A 
ATOM     32  C   UNL     1      25.926   4.606  20.557  0.00  0.00    +0.046 A 
ATOM     33  C   UNL     1      25.780   3.244  20.819  0.00  0.00    +0.120 A 
BRANCH  33   3
ATOM      3  O   UNL     1      26.882   2.453  20.942  0.00  0.00    -0.495 OA
ATOM     34  C   UNL     1      27.273   2.085  22.264  0.00  0.00    +0.277 C 
ENDBRANCH  33   3
ENDBRANCH  27  28
ENDBRANCH  26   9
TORSDOF 7
ENDMDL
MODEL 6
REMARK VINA RESULT:      -6.7      3.267     10.930
REMARK  Name = 51136888
REMARK  8 active torsions:
REMARK  status: ('A' for Active; 'I' for Inactive)
REMARK    1  A    between atoms: O_3  and  C_33
REMARK    2  A    between atoms: O_3  and  C_34
REMARK    3  A    between atoms: N_4  and  C_14
REMARK    4  A    between atoms: N_9  and  C_26
REMARK    5  A    between atoms: C_10  and  C_15
REMARK    6  A    between atoms: C_14  and  C_16
REMARK    7  A    between atoms: C_17  and  C_20
REMARK    8  A    between atoms: C_27  and  C_28
REMARK                            x       y       z     vdW  Elec       q    Type
REMARK                         _______ _______ _______ _____ _____    ______ ____
ROOT
ATOM      8  N   UNL     1      17.818   7.697  21.512  0.00  0.00    -0.239 NA
ATOM     20  C   UNL     1      19.853   6.390  21.522  0.00  0.00    +0.041 A 
ATOM     23  C   UNL     1      19.391   5.649  20.440  0.00  0.00    +0.016 A 
ATOM     24  C   UNL     1      19.036   7.394  22.017  0.00  0.00    +0.124 A 
ATOM     25  C   UNL     1      18.142   5.931  19.894  0.00  0.00    +0.044 A 
ATOM     26  C   UNL     1      17.402   6.956  20.461  0.00  0.00    +0.125 A 
ENDROOT
BRANCH  20  17
ATOM      1  O   UNL     1      23.133   6.356  22.825  0.00  0.00    -0.336 OA
ATOM      5  N   UNL     1      21.455   4.891  22.597  0.00  0.00    -0.190 NA
ATOM      6  N   UNL     1      22.088   7.054  22.207  0.00  0.00    -0.056 NA
ATOM     15  C   UNL     1      22.677   5.090  23.019  0.00  0.00    +0.245 A 
ATOM     17  C   UNL     1      21.134   6.123  22.107  0.00  0.00    +0.204 A 
BRANCH  15  10
ATOM      4  N   UNL     1      23.199   3.734  25.039  0.00  0.00    -0.287 NA
ATOM     10  C   UNL     1      23.635   4.123  23.683  0.00  0.00    +0.146 C 
ATOM     11  C   UNL     1      23.764   2.794  22.917  0.00  0.00    +0.030 C 
ATOM     12  C   UNL     1      23.441   1.713  23.939  0.00  0.00    +0.017 C 
ATOM     13  C   UNL     1      23.717   2.385  25.269  0.00  0.00    +0.085 C 
BRANCH   4  14
ATOM     14  C   UNL     1      23.630   4.669  26.071  0.00  0.00    +0.121 C 
BRANCH  14  16
ATOM      7  N   UNL     1      20.430   6.135  27.467  0.00  0.00    -0.263 NA
ATOM     16  C   UNL     1      22.517   4.993  27.032  0.00  0.00    -0.015 A 
ATOM     18  C   UNL     1      22.518   4.487  28.327  0.00  0.00    +0.008 A 
ATOM     19  C   UNL     1      21.460   5.806  26.654  0.00  0.00    +0.115 A 
ATOM     21  C   UNL     1      21.476   4.804  29.193  0.00  0.00    +0.020 A 
ATOM     22  C   UNL     1      20.466   5.624  28.717  0.00  0.00    +0.111 A 
ENDBRANCH  14  16
ENDBRANCH   4  14
ENDBRANCH  15  10
ENDBRANCH  20  17
BRANCH  26   9
ATOM      2  O   UNL     1      14.736   7.323  21.780  0.00  0.00    -0.270 OA
ATOM      9  N   UNL     1      16.148   7.230  19.904  0.00  0.00    -0.266 N 
ATOM     27  C   UNL     1      14.930   7.392  20.571  0.00  0.00    +0.249 C 
ATOM     35  H   UNL     1      16.184   7.356  18.897  0.00  0.00    +0.157 HD
BRANCH  27  28
ATOM     28  C   UNL     1      13.767   7.706  19.700  0.00  0.00    +0.037 A 
ATOM     29  C   UNL     1      13.912   7.696  18.313  0.00  0.00    +0.016 A 
ATOM     30  C   UNL     1      12.532   8.012  20.270  0.00  0.00    +0.016 A 
ATOM     31  C   UNL     1      12.821   7.992  17.496  0.00  0.00    +0.046 A 
ATOM     32  C   UNL     1      11.440   8.308  19.453  0.00  0.00    +0.046 A 
ATOM     33  C   UNL     1      11.585   8.297  18.066  0.00  0.00    +0.120 A 
BRANCH  33   3
ATOM      3  O   UNL     1      10.520   8.587  17.268  0.00  0.00    -0.495 OA
ATOM     34  C   UNL     1      10.804   9.025  15.941  0.00  0.00    +0.277 C 
ENDBRANCH  33   3
ENDBRANCH  27  28
ENDBRANCH  26   9
TORSDOF 7
ENDMDL
MODEL 7
REMARK VINA RESULT:      -6.6      7.273      9.863
REMARK  Name = 51136888
REMARK  8 active torsions:
REMARK  status: ('A' for Active; 'I' for Inactive)
REMARK    1  A    between atoms: O_3  and  C_33
REMARK    2  A    between atoms: O_3  and  C_34
REMARK    3  A    between atoms: N_4  and  C_14
REMARK    4  A    between atoms: N_9  and  C_26
REMARK    5  A    between atoms: C_10  and  C_15
REMARK    6  A    between atoms: C_14  and  C_16
REMARK    7  A    between atoms: C_17  and  C_20
REMARK    8  A    between atoms: C_27  and  C_28
REMARK                            x       y       z     vdW  Elec       q    Type
REMARK                         _______ _______ _______ _____ _____    ______ ____
ROOT
ATOM      8  N   UNL     1      15.285  10.263  14.148  0.00  0.00    -0.239 NA
ATOM     20  C   UNL     1      14.665  10.735  16.437  0.00  0.00    +0.041 A 
ATOM     23  C   UNL     1      15.505  11.842  16.444  0.00  0.00    +0.016 A 
ATOM     24  C   UNL     1      14.591   9.984  15.275  0.00  0.00    +0.124 A 
ATOM     25  C   UNL     1      16.236  12.161  15.304  0.00  0.00    +0.044 A 
ATOM     26  C   UNL     1      16.091  11.347  14.192  0.00  0.00    +0.125 A 
ENDROOT
BRANCH  20  17
ATOM      1  O   UNL     1      12.834  10.492  19.445  0.00  0.00    -0.336 OA
ATOM      5  N   UNL     1      13.488   9.099  17.819  0.00  0.00    -0.190 NA
ATOM      6  N   UNL     1      13.548  11.273  18.527  0.00  0.00    -0.056 NA
ATOM     15  C   UNL     1      12.847   9.225  18.952  0.00  0.00    +0.245 A 
ATOM     17  C   UNL     1      13.900  10.380  17.597  0.00  0.00    +0.204 A 
BRANCH  15  10
ATOM      4  N   UNL     1      12.932   7.708  20.922  0.00  0.00    -0.287 NA
ATOM     10  C   UNL     1      12.130   8.175  19.774  0.00  0.00    +0.146 C 
ATOM     11  C   UNL     1      10.822   8.698  20.397  0.00  0.00    +0.030 C 
ATOM     12  C   UNL     1      10.957   8.427  21.888  0.00  0.00    +0.017 C 
ATOM     13  C   UNL     1      11.979   7.310  21.958  0.00  0.00    +0.085 C 
BRANCH   4  14
ATOM     14  C   UNL     1      13.851   6.629  20.580  0.00  0.00    +0.121 C 
BRANCH  14  16
ATOM      7  N   UNL     1      16.917   8.573  21.654  0.00  0.00    -0.263 NA
ATOM     16  C   UNL     1      15.289   7.056  20.707  0.00  0.00    -0.015 A 
ATOM     18  C   UNL     1      16.300   6.376  20.038  0.00  0.00    +0.008 A 
ATOM     19  C   UNL     1      15.645   8.138  21.496  0.00  0.00    +0.115 A 
ATOM     21  C   UNL     1      17.621   6.794  20.175  0.00  0.00    +0.020 A 
ATOM     22  C   UNL     1      17.872   7.887  20.988  0.00  0.00    +0.111 A 
ENDBRANCH  14  16
ENDBRANCH   4  14
ENDBRANCH  15  10
ENDBRANCH  20  17
BRANCH  26   9
ATOM      2  O   UNL     1      15.188  12.395  11.533  0.00  0.00    -0.270 OA
ATOM      9  N   UNL     1      16.831  11.677  13.051  0.00  0.00    -0.266 N 
ATOM     27  C   UNL     1      16.356  12.164  11.830  0.00  0.00    +0.249 C 
ATOM     35  H   UNL     1      17.832  11.569  13.187  0.00  0.00    +0.157 HD
BRANCH  27  28
ATOM     28  C   UNL     1      17.399  12.448  10.811  0.00  0.00    +0.037 A 
ATOM     29  C   UNL     1      17.061  13.122   9.637  0.00  0.00    +0.016 A 
ATOM     30  C   UNL     1      18.714  12.039  11.027  0.00  0.00    +0.016 A 
ATOM     31  C   UNL     1      18.041  13.387   8.679  0.00  0.00    +0.046 A 
ATOM     32  C   UNL     1      19.694  12.305  10.069  0.00  0.00    +0.046 A 
ATOM     33  C   UNL     1      19.357  12.979   8.896  0.00  0.00    +0.120 A 
BRANCH  33   3
ATOM      3  O   UNL     1      20.312  13.237   7.960  0.00  0.00    -0.495 OA
ATOM     34  C   UNL     1      21.627  13.516   8.436  0.00  0.00    +0.277 C 
ENDBRANCH  33   3
ENDBRANCH  27  28
ENDBRANCH  26   9
TORSDOF 7
ENDMDL
MODEL 8
REMARK VINA RESULT:      -6.6     28.861     32.115
REMARK  Name = 51136888
REMARK  8 active torsions:
REMARK  status: ('A' for Active; 'I' for Inactive)
REMARK    1  A    between atoms: O_3  and  C_33
REMARK    2  A    between atoms: O_3  and  C_34
REMARK    3  A    between atoms: N_4  and  C_14
REMARK    4  A    between atoms: N_9  and  C_26
REMARK    5  A    between atoms: C_10  and  C_15
REMARK    6  A    between atoms: C_14  and  C_16
REMARK    7  A    between atoms: C_17  and  C_20
REMARK    8  A    between atoms: C_27  and  C_28
REMARK                            x       y       z     vdW  Elec       q    Type
REMARK                         _______ _______ _______ _____ _____    ______ ____
ROOT
ATOM      8  N   UNL     1      -5.826 -10.883   8.729  0.00  0.00    -0.239 NA
ATOM     20  C   UNL     1      -4.145 -10.502  10.426  0.00  0.00    +0.041 A 
ATOM     23  C   UNL     1      -3.918  -9.225   9.923  0.00  0.00    +0.016 A 
ATOM     24  C   UNL     1      -5.101 -11.285   9.798  0.00  0.00    +0.124 A 
ATOM     25  C   UNL     1      -4.644  -8.777   8.824  0.00  0.00    +0.044 A 
ATOM     26  C   UNL     1      -5.578  -9.637   8.269  0.00  0.00    +0.125 A 
ENDROOT
BRANCH  20  17
ATOM      1  O   UNL     1      -1.839 -11.394  12.944  0.00  0.00    -0.336 OA
ATOM      5  N   UNL     1      -4.002 -11.773  12.508  0.00  0.00    -0.190 NA
ATOM      6  N   UNL     1      -2.118 -10.722  11.747  0.00  0.00    -0.056 NA
ATOM     15  C   UNL     1      -3.001 -11.986  13.323  0.00  0.00    +0.245 A 
ATOM     17  C   UNL     1      -3.413 -10.992  11.556  0.00  0.00    +0.204 A 
BRANCH  15  10
ATOM      4  N   UNL     1      -4.080 -12.456  15.516  0.00  0.00    -0.287 NA
ATOM     10  C   UNL     1      -2.962 -12.786  14.609  0.00  0.00    +0.146 C 
ATOM     11  C   UNL     1      -3.086 -14.302  14.369  0.00  0.00    +0.030 C 
ATOM     12  C   UNL     1      -4.261 -14.745  15.230  0.00  0.00    +0.017 C 
ATOM     13  C   UNL     1      -4.354 -13.667  16.291  0.00  0.00    +0.085 C 
BRANCH   4  14
ATOM     14  C   UNL     1      -3.805 -11.309  16.372  0.00  0.00    +0.121 C 
BRANCH  14  16
ATOM      7  N   UNL     1      -7.074  -9.409  16.549  0.00  0.00    -0.263 NA
ATOM     16  C   UNL     1      -5.069 -10.707  16.925  0.00  0.00    -0.015 A 
ATOM     18  C   UNL     1      -5.416 -10.868  18.261  0.00  0.00    +0.008 A 
ATOM     19  C   UNL     1      -5.925  -9.975  16.117  0.00  0.00    +0.115 A 
ATOM     21  C   UNL     1      -6.591 -10.301  18.744  0.00  0.00    +0.020 A 
ATOM     22  C   UNL     1      -7.377  -9.587  17.854  0.00  0.00    +0.111 A 
ENDBRANCH  14  16
ENDBRANCH   4  14
ENDBRANCH  15  10
ENDBRANCH  20  17
BRANCH  26   9
ATOM      2  O   UNL     1      -8.083  -7.996   8.140  0.00  0.00    -0.270 OA
ATOM      9  N   UNL     1      -6.301  -9.176   7.164  0.00  0.00    -0.266 N 
ATOM     27  C   UNL     1      -7.471  -8.410   7.161  0.00  0.00    +0.249 C 
ATOM     35  H   UNL     1      -5.866  -9.420   6.279  0.00  0.00    +0.157 HD
BRANCH  27  28
ATOM     28  C   UNL     1      -7.992  -8.051   5.817  0.00  0.00    +0.037 A 
ATOM     29  C   UNL     1      -9.217  -7.395   5.696  0.00  0.00    +0.016 A 
ATOM     30  C   UNL     1      -7.256  -8.371   4.676  0.00  0.00    +0.016 A 
ATOM     31  C   UNL     1      -9.706  -7.059   4.433  0.00  0.00    +0.046 A 
ATOM     32  C   UNL     1      -7.745  -8.035   3.413  0.00  0.00    +0.046 A 
ATOM     33  C   UNL     1      -8.970  -7.379   3.292  0.00  0.00    +0.120 A 
BRANCH  33   3
ATOM      3  O   UNL     1      -9.449  -7.052   2.060  0.00  0.00    -0.495 OA
ATOM     34  C   UNL     1      -9.411  -8.067   1.059  0.00  0.00    +0.277 C 
ENDBRANCH  33   3
ENDBRANCH  27  28
ENDBRANCH  26   9
TORSDOF 7
ENDMDL
MODEL 9
REMARK VINA RESULT:      -6.6     28.688     31.532
REMARK  Name = 51136888
REMARK  8 active torsions:
REMARK  status: ('A' for Active; 'I' for Inactive)
REMARK    1  A    between atoms: O_3  and  C_33
REMARK    2  A    between atoms: O_3  and  C_34
REMARK    3  A    between atoms: N_4  and  C_14
REMARK    4  A    between atoms: N_9  and  C_26
REMARK    5  A    between atoms: C_10  and  C_15
REMARK    6  A    between atoms: C_14  and  C_16
REMARK    7  A    between atoms: C_17  and  C_20
REMARK    8  A    between atoms: C_27  and  C_28
REMARK                            x       y       z     vdW  Elec       q    Type
REMARK                         _______ _______ _______ _____ _____    ______ ____
ROOT
ATOM      8  N   UNL     1      -5.152 -12.049  10.802  0.00  0.00    -0.239 NA
ATOM     20  C   UNL     1      -3.997 -10.967  12.631  0.00  0.00    +0.041 A 
ATOM     23  C   UNL     1      -3.177 -10.300  11.727  0.00  0.00    +0.016 A 
ATOM     24  C   UNL     1      -4.960 -11.824  12.122  0.00  0.00    +0.124 A 
ATOM     25  C   UNL     1      -3.343 -10.507  10.362  0.00  0.00    +0.044 A 
ATOM     26  C   UNL     1      -4.336 -11.383   9.954  0.00  0.00    +0.125 A 
ENDROOT
BRANCH  20  17
ATOM      1  O   UNL     1      -2.996 -10.492  15.981  0.00  0.00    -0.336 OA
ATOM      5  N   UNL     1      -4.930 -10.709  14.874  0.00  0.00    -0.190 NA
ATOM      6  N   UNL     1      -2.656 -10.656  14.633  0.00  0.00    -0.056 NA
ATOM     15  C   UNL     1      -4.353 -10.536  16.036  0.00  0.00    +0.245 A 
ATOM     17  C   UNL     1      -3.850 -10.776  14.043  0.00  0.00    +0.204 A 
BRANCH  15  10
ATOM      4  N   UNL     1      -6.449 -10.514  17.377  0.00  0.00    -0.287 NA
ATOM     10  C   UNL     1      -4.979 -10.380  17.407  0.00  0.00    +0.146 C 
ATOM     11  C   UNL     1      -4.507 -11.458  18.400  0.00  0.00    +0.030 C 
ATOM     12  C   UNL     1      -5.784 -12.101  18.923  0.00  0.00    +0.017 C 
ATOM     13  C   UNL     1      -6.842 -11.043  18.683  0.00  0.00    +0.085 C 
BRANCH   4  14
ATOM     14  C   UNL     1      -7.132  -9.265  17.064  0.00  0.00    +0.121 C 
BRANCH  14  16
ATOM      7  N   UNL     1     -10.893  -8.865  17.233  0.00  0.00    -0.263 NA
ATOM     16  C   UNL     1      -8.597  -9.481  16.791  0.00  0.00    -0.015 A 
ATOM     18  C   UNL     1      -9.023 -10.447  15.886  0.00  0.00    +0.008 A 
ATOM     19  C   UNL     1      -9.563  -8.722  17.433  0.00  0.00    +0.115 A 
ATOM     21  C   UNL     1     -10.383 -10.623  15.654  0.00  0.00    +0.020 A 
ATOM     22  C   UNL     1     -11.268  -9.814  16.346  0.00  0.00    +0.111 A 
ENDBRANCH  14  16
ENDBRANCH   4  14
ENDBRANCH  15  10
ENDBRANCH  20  17
BRANCH  26   9
ATOM      2  O   UNL     1      -5.762  -9.725   7.905  0.00  0.00    -0.270 OA
ATOM      9  N   UNL     1      -4.494 -11.585   8.579  0.00  0.00    -0.266 N 
ATOM     27  C   UNL     1      -5.174 -10.774   7.664  0.00  0.00    +0.249 C 
ATOM     35  H   UNL     1      -4.007 -12.411   8.243  0.00  0.00    +0.157 HD
BRANCH  27  28
ATOM     28  C   UNL     1      -5.142 -11.243   6.255  0.00  0.00    +0.037 A 
ATOM     29  C   UNL     1      -6.222 -10.986   5.410  0.00  0.00    +0.016 A 
ATOM     30  C   UNL     1      -4.033 -11.940   5.777  0.00  0.00    +0.016 A 
ATOM     31  C   UNL     1      -6.192 -11.427   4.087  0.00  0.00    +0.046 A 
ATOM     32  C   UNL     1      -4.003 -12.381   4.453  0.00  0.00    +0.046 A 
ATOM     33  C   UNL     1      -5.083 -12.124   3.609  0.00  0.00    +0.120 A 
BRANCH  33   3
ATOM      3  O   UNL     1      -5.055 -12.555   2.317  0.00  0.00    -0.495 OA
ATOM     34  C   UNL     1      -3.877 -13.234   1.885  0.00  0.00    +0.277 C 
ENDBRANCH  33   3
ENDBRANCH  27  28
ENDBRANCH  26   9
TORSDOF 7
ENDMDL
MODEL 10
REMARK VINA RESULT:      -6.6     27.783     32.721
REMARK  Name = 51136888
REMARK  8 active torsions:
REMARK  status: ('A' for Active; 'I' for Inactive)
REMARK    1  A    between atoms: O_3  and  C_33
REMARK    2  A    between atoms: O_3  and  C_34
REMARK    3  A    between atoms: N_4  and  C_14
REMARK    4  A    between atoms: N_9  and  C_26
REMARK    5  A    between atoms: C_10  and  C_15
REMARK    6  A    between atoms: C_14  and  C_16
REMARK    7  A    between atoms: C_17  and  C_20
REMARK    8  A    between atoms: C_27  and  C_28
REMARK                            x       y       z     vdW  Elec       q    Type
REMARK                         _______ _______ _______ _____ _____    ______ ____
ROOT
ATOM      8  N   UNL     1      -9.106  -9.346  17.673  0.00  0.00    -0.239 NA
ATOM     20  C   UNL     1      -7.119 -10.638  18.151  0.00  0.00    +0.041 A 
ATOM     23  C   UNL     1      -7.793 -11.314  19.162  0.00  0.00    +0.016 A 
ATOM     24  C   UNL     1      -7.814  -9.671  17.443  0.00  0.00    +0.124 A 
ATOM     25  C   UNL     1      -9.123 -11.007  19.429  0.00  0.00    +0.044 A 
ATOM     26  C   UNL     1      -9.729 -10.025  18.663  0.00  0.00    +0.125 A 
ENDROOT
BRANCH  20  17
ATOM      1  O   UNL     1      -3.684 -11.445  18.060  0.00  0.00    -0.336 OA
ATOM      5  N   UNL     1      -5.268 -10.894  16.576  0.00  0.00    -0.190 NA
ATOM      6  N   UNL     1      -4.859 -11.253  18.798  0.00  0.00    -0.056 NA
ATOM     15  C   UNL     1      -4.013 -11.214  16.762  0.00  0.00    +0.245 A 
ATOM     17  C   UNL     1      -5.748 -10.931  17.853  0.00  0.00    +0.204 A 
BRANCH  15  10
ATOM      4  N   UNL     1      -3.146 -10.582  14.516  0.00  0.00    -0.287 NA
ATOM     10  C   UNL     1      -2.898 -11.360  15.747  0.00  0.00    +0.146 C 
ATOM     11  C   UNL     1      -1.546 -10.843  16.272  0.00  0.00    +0.030 C 
ATOM     12  C   UNL     1      -1.083  -9.825  15.240  0.00  0.00    +0.017 C 
ATOM     13  C   UNL     1      -1.831 -10.222  13.984  0.00  0.00    +0.085 C 
BRANCH   4  14
ATOM     14  C   UNL     1      -3.956 -11.297  13.538  0.00  0.00    +0.121 C 
BRANCH  14  16
ATOM      7  N   UNL     1      -6.625  -8.998  12.153  0.00  0.00    -0.263 NA
ATOM     16  C   UNL     1      -4.677 -10.354  12.612  0.00  0.00    -0.015 A 
ATOM     18  C   UNL     1      -4.112  -9.964  11.403  0.00  0.00    +0.008 A 
ATOM     19  C   UNL     1      -5.925  -9.847  12.938  0.00  0.00    +0.115 A 
ATOM     21  C   UNL     1      -4.802  -9.091  10.568  0.00  0.00    +0.020 A 
ATOM     22  C   UNL     1      -6.044  -8.642  10.986  0.00  0.00    +0.111 A 
ENDBRANCH  14  16
ENDBRANCH   4  14
ENDBRANCH  15  10
ENDBRANCH  20  17
BRANCH  26   9
ATOM      2  O   UNL     1     -12.249 -11.100  17.449  0.00  0.00    -0.270 OA
ATOM      9  N   UNL     1     -11.067  -9.723  18.941  0.00  0.00    -0.266 N 
ATOM     27  C   UNL     1     -12.210 -10.258  18.340  0.00  0.00    +0.249 C 
ATOM     35  H   UNL     1     -11.171  -9.060  19.703  0.00  0.00    +0.157 HD
BRANCH  27  28
ATOM     28  C   UNL     1     -13.502  -9.755  18.874  0.00  0.00    +0.037 A 
ATOM     29  C   UNL     1     -13.700  -9.665  20.252  0.00  0.00    +0.016 A 
ATOM     30  C   UNL     1     -14.517  -9.373  17.997  0.00  0.00    +0.016 A 
ATOM     31  C   UNL     1     -14.913  -9.194  20.753  0.00  0.00    +0.046 A 
ATOM     32  C   UNL     1     -15.732  -8.901  18.499  0.00  0.00    +0.046 A 
ATOM     33  C   UNL     1     -15.929  -8.812  19.876  0.00  0.00    +0.120 A 
BRANCH  33   3
ATOM      3  O   UNL     1     -17.114  -8.352  20.366  0.00  0.00    -0.495 OA
ATOM     34  C   UNL     1     -18.179  -8.182  19.433  0.00  0.00    +0.277 C 
ENDBRANCH  33   3
ENDBRANCH  27  28
ENDBRANCH  26   9
TORSDOF 7
ENDMDL
