MODEL 1
REMARK VINA RESULT:      -7.3      0.000      0.000
REMARK  Name = 11941655
REMARK  7 active torsions:
REMARK  status: ('A' for Active; 'I' for Inactive)
REMARK    1  A    between atoms: O_4  and  C_28
REMARK    2  A    between atoms: O_4  and  C_29
REMARK    3  A    between atoms: N_5  and  C_12
REMARK    4  A    between atoms: N_6  and  C_13
REMARK    5  A    between atoms: N_7  and  C_18
REMARK    6  A    between atoms: C_18  and  C_23
REMARK    7  A    between atoms: C_19  and  C_22
REMARK                            x       y       z     vdW  Elec       q    Type
REMARK                         _______ _______ _______ _____ _____    ______ ____
ROOT
ATOM      5  N   UNL     1      11.012  10.280  22.473  0.00  0.00    -0.306 N 
ATOM      8  N   UNL     1      12.547   8.707  21.650  0.00  0.00    -0.214 NA
ATOM      9  N   UNL     1      10.298   8.060  22.221  0.00  0.00    -0.223 NA
ATOM     16  C   UNL     1      11.294   8.977  22.104  0.00  0.00    +0.216 A 
ATOM     19  C   UNL     1      12.787   7.428  21.299  0.00  0.00    +0.076 A 
ATOM     20  C   UNL     1      10.607   6.799  21.853  0.00  0.00    +0.116 A 
ATOM     21  C   UNL     1      11.847   6.421  21.381  0.00  0.00    +0.048 A 
ATOM     30  H   UNL     1      10.092  10.458  22.859  0.00  0.00    +0.149 HD
ENDROOT
BRANCH   5  12
ATOM      1  O   UNL     1      11.031  13.139  23.659  0.00  0.00    -0.370 OA
ATOM      2  O   UNL     1      13.981  12.136  23.509  0.00  0.00    -0.370 OA
ATOM     10  C   UNL     1      12.724  11.469  23.710  0.00  0.00    +0.171 C 
ATOM     11  C   UNL     1      11.860  12.382  24.557  0.00  0.00    +0.171 C 
ATOM     12  C   UNL     1      11.975  11.358  22.403  0.00  0.00    +0.130 C 
ATOM     13  C   UNL     1      12.851  13.289  25.247  0.00  0.00    +0.131 C 
ATOM     14  C   UNL     1      11.261  12.694  22.314  0.00  0.00    +0.185 C 
ATOM     15  C   UNL     1      13.976  13.375  24.232  0.00  0.00    +0.185 C 
BRANCH  13   6
ATOM      3  O   UNL     1      14.043  14.683  27.477  0.00  0.00    -0.253 OA
ATOM      6  N   UNL     1      13.310  12.713  26.489  0.00  0.00    -0.292 N 
ATOM      7  N   UNL     1      14.229  12.659  28.598  0.00  0.00    -0.300 N 
ATOM     17  C   UNL     1      13.876  13.464  27.517  0.00  0.00    +0.300 C 
ATOM     31  H   UNL     1      13.156  11.722  26.648  0.00  0.00    +0.151 HD
ATOM     32  H   UNL     1      14.055  11.661  28.542  0.00  0.00    +0.150 HD
BRANCH   7  18
ATOM     18  C   UNL     1      14.836  13.183  29.798  0.00  0.00    +0.102 C 
ATOM     23  C   UNL     1      13.843  13.253  30.939  0.00  0.00    +0.024 C 
ENDBRANCH   7  18
ENDBRANCH  13   6
ENDBRANCH   5  12
BRANCH  19  22
ATOM     22  C   UNL     1      14.123   7.164  20.821  0.00  0.00    +0.001 A 
ATOM     24  C   UNL     1      15.196   7.137  21.716  0.00  0.00    +0.013 A 
ATOM     25  C   UNL     1      14.349   6.936  19.461  0.00  0.00    +0.013 A 
ATOM     26  C   UNL     1      16.487   6.883  21.253  0.00  0.00    +0.046 A 
ATOM     27  C   UNL     1      15.640   6.683  18.999  0.00  0.00    +0.046 A 
ATOM     28  C   UNL     1      16.709   6.656  19.895  0.00  0.00    +0.120 A 
BRANCH  28   4
ATOM      4  O   UNL     1      17.969   6.409  19.443  0.00  0.00    -0.495 OA
ATOM     29  C   UNL     1      18.961   6.097  20.420  0.00  0.00    +0.277 C 
ENDBRANCH  28   4
ENDBRANCH  19  22
TORSDOF 5
ENDMDL
MODEL 2
REMARK VINA RESULT:      -6.9     27.526     31.183
REMARK  Name = 11941655
REMARK  7 active torsions:
REMARK  status: ('A' for Active; 'I' for Inactive)
REMARK    1  A    between atoms: O_4  and  C_28
REMARK    2  A    between atoms: O_4  and  C_29
REMARK    3  A    between atoms: N_5  and  C_12
REMARK    4  A    between atoms: N_6  and  C_13
REMARK    5  A    between atoms: N_7  and  C_18
REMARK    6  A    between atoms: C_18  and  C_23
REMARK    7  A    between atoms: C_19  and  C_22
REMARK                            x       y       z     vdW  Elec       q    Type
REMARK                         _______ _______ _______ _____ _____    ______ ____
ROOT
ATOM      5  N   UNL     1      -3.221 -10.661  12.480  0.00  0.00    -0.306 N 
ATOM      8  N   UNL     1      -3.905 -10.678  14.725  0.00  0.00    -0.214 NA
ATOM      9  N   UNL     1      -1.567 -10.651  14.144  0.00  0.00    -0.223 NA
ATOM     16  C   UNL     1      -2.888 -10.664  13.822  0.00  0.00    +0.216 A 
ATOM     19  C   UNL     1      -3.545 -10.680  16.024  0.00  0.00    +0.076 A 
ATOM     20  C   UNL     1      -1.278 -10.654  15.461  0.00  0.00    +0.116 A 
ATOM     21  C   UNL     1      -2.234 -10.669  16.456  0.00  0.00    +0.048 A 
ATOM     30  H   UNL     1      -2.455 -10.704  11.818  0.00  0.00    +0.149 HD
ENDROOT
BRANCH   5  12
ATOM      1  O   UNL     1      -4.705  -8.930  10.387  0.00  0.00    -0.370 OA
ATOM      2  O   UNL     1      -5.958 -11.786  10.341  0.00  0.00    -0.370 OA
ATOM     10  C   UNL     1      -4.635 -11.296  10.618  0.00  0.00    +0.171 C 
ATOM     11  C   UNL     1      -4.379 -10.136   9.677  0.00  0.00    +0.171 C 
ATOM     12  C   UNL     1      -4.583 -10.675  11.993  0.00  0.00    +0.130 C 
ATOM     13  C   UNL     1      -5.356 -10.358   8.545  0.00  0.00    +0.131 C 
ATOM     14  C   UNL     1      -5.064  -9.259  11.738  0.00  0.00    +0.185 C 
ATOM     15  C   UNL     1      -6.513 -11.046   9.245  0.00  0.00    +0.185 C 
BRANCH  13   6
ATOM      3  O   UNL     1      -5.966 -10.327   5.723  0.00  0.00    -0.253 OA
ATOM      6  N   UNL     1      -4.786 -11.203   7.522  0.00  0.00    -0.292 N 
ATOM      7  N   UNL     1      -4.440 -12.047   5.410  0.00  0.00    -0.300 N 
ATOM     17  C   UNL     1      -5.140 -11.119   6.177  0.00  0.00    +0.300 C 
ATOM     31  H   UNL     1      -4.045 -11.846   7.784  0.00  0.00    +0.151 HD
ATOM     32  H   UNL     1      -3.778 -12.663   5.870  0.00  0.00    +0.150 HD
BRANCH   7  18
ATOM     18  C   UNL     1      -4.617 -12.174   3.982  0.00  0.00    +0.102 C 
ATOM     23  C   UNL     1      -3.325 -12.565   3.296  0.00  0.00    +0.024 C 
ENDBRANCH   7  18
ENDBRANCH  13   6
ENDBRANCH   5  12
BRANCH  19  22
ATOM     22  C   UNL     1      -4.640 -10.696  16.964  0.00  0.00    +0.001 A 
ATOM     24  C   UNL     1      -5.844 -10.060  16.649  0.00  0.00    +0.013 A 
ATOM     25  C   UNL     1      -4.501 -11.345  18.193  0.00  0.00    +0.013 A 
ATOM     26  C   UNL     1      -6.902 -10.075  17.558  0.00  0.00    +0.046 A 
ATOM     27  C   UNL     1      -5.558 -11.359  19.102  0.00  0.00    +0.046 A 
ATOM     28  C   UNL     1      -6.759 -10.724  18.784  0.00  0.00    +0.120 A 
BRANCH  28   4
ATOM      4  O   UNL     1      -7.791 -10.738  19.671  0.00  0.00    -0.495 OA
ATOM     29  C   UNL     1      -9.046 -11.228  19.202  0.00  0.00    +0.277 C 
ENDBRANCH  28   4
ENDBRANCH  19  22
TORSDOF 5
ENDMDL
MODEL 3
REMARK VINA RESULT:      -6.7     27.143     29.819
REMARK  Name = 11941655
REMARK  7 active torsions:
REMARK  status: ('A' for Active; 'I' for Inactive)
REMARK    1  A    between atoms: O_4  and  C_28
REMARK    2  A    between atoms: O_4  and  C_29
REMARK    3  A    between atoms: N_5  and  C_12
REMARK    4  A    between atoms: N_6  and  C_13
REMARK    5  A    between atoms: N_7  and  C_18
REMARK    6  A    between atoms: C_18  and  C_23
REMARK    7  A    between atoms: C_19  and  C_22
REMARK                            x       y       z     vdW  Elec       q    Type
REMARK                         _______ _______ _______ _____ _____    ______ ____
ROOT
ATOM      5  N   UNL     1      -3.920 -11.322  16.695  0.00  0.00    -0.306 N 
ATOM      8  N   UNL     1      -3.526 -11.006  14.403  0.00  0.00    -0.214 NA
ATOM      9  N   UNL     1      -1.887 -10.349  16.042  0.00  0.00    -0.223 NA
ATOM     16  C   UNL     1      -3.087 -10.880  15.684  0.00  0.00    +0.216 A 
ATOM     19  C   UNL     1      -2.688 -10.565  13.443  0.00  0.00    +0.076 A 
ATOM     20  C   UNL     1      -1.100  -9.928  15.032  0.00  0.00    +0.116 A 
ATOM     21  C   UNL     1      -1.451 -10.010  13.700  0.00  0.00    +0.048 A 
ATOM     30  H   UNL     1      -3.604 -11.174  17.647  0.00  0.00    +0.149 HD
ENDROOT
BRANCH   5  12
ATOM      1  O   UNL     1      -6.547 -11.281  18.330  0.00  0.00    -0.370 OA
ATOM      2  O   UNL     1      -7.295 -11.427  15.305  0.00  0.00    -0.370 OA
ATOM     10  C   UNL     1      -6.196 -10.837  16.020  0.00  0.00    +0.171 C 
ATOM     11  C   UNL     1      -6.750 -10.282  17.317  0.00  0.00    +0.171 C 
ATOM     12  C   UNL     1      -5.223 -11.905  16.460  0.00  0.00    +0.130 C 
ATOM     13  C   UNL     1      -8.225 -10.105  17.041  0.00  0.00    +0.131 C 
ATOM     14  C   UNL     1      -5.826 -12.387  17.767  0.00  0.00    +0.185 C 
ATOM     15  C   UNL     1      -8.505 -11.216  16.046  0.00  0.00    +0.185 C 
BRANCH  13   6
ATOM      3  O   UNL     1     -10.677  -8.595  17.242  0.00  0.00    -0.253 OA
ATOM      6  N   UNL     1      -8.498  -8.808  16.469  0.00  0.00    -0.292 N 
ATOM      7  N   UNL     1      -9.707  -6.917  15.966  0.00  0.00    -0.300 N 
ATOM     17  C   UNL     1      -9.715  -8.148  16.617  0.00  0.00    +0.300 C 
ATOM     31  H   UNL     1      -7.744  -8.324  15.989  0.00  0.00    +0.151 HD
ATOM     32  H   UNL     1      -8.868  -6.630  15.472  0.00  0.00    +0.150 HD
BRANCH   7  18
ATOM     18  C   UNL     1     -10.845  -6.028  15.960  0.00  0.00    +0.102 C 
ATOM     23  C   UNL     1     -11.749  -6.291  14.774  0.00  0.00    +0.024 C 
ENDBRANCH   7  18
ENDBRANCH  13   6
ENDBRANCH   5  12
BRANCH  19  22
ATOM     22  C   UNL     1      -3.175 -10.708  12.091  0.00  0.00    +0.001 A 
ATOM     24  C   UNL     1      -3.620 -11.951  11.635  0.00  0.00    +0.013 A 
ATOM     25  C   UNL     1      -3.201  -9.606  11.234  0.00  0.00    +0.013 A 
ATOM     26  C   UNL     1      -4.090 -12.089  10.329  0.00  0.00    +0.046 A 
ATOM     27  C   UNL     1      -3.670  -9.744   9.928  0.00  0.00    +0.046 A 
ATOM     28  C   UNL     1      -4.114 -10.987   9.475  0.00  0.00    +0.120 A 
BRANCH  28   4
ATOM      4  O   UNL     1      -4.571 -11.122   8.201  0.00  0.00    -0.495 OA
ATOM     29  C   UNL     1      -4.475 -12.417   7.610  0.00  0.00    +0.277 C 
ENDBRANCH  28   4
ENDBRANCH  19  22
TORSDOF 5
ENDMDL
MODEL 4
REMARK VINA RESULT:      -6.6     19.197     23.057
REMARK  Name = 11941655
REMARK  7 active torsions:
REMARK  status: ('A' for Active; 'I' for Inactive)
REMARK    1  A    between atoms: O_4  and  C_28
REMARK    2  A    between atoms: O_4  and  C_29
REMARK    3  A    between atoms: N_5  and  C_12
REMARK    4  A    between atoms: N_6  and  C_13
REMARK    5  A    between atoms: N_7  and  C_18
REMARK    6  A    between atoms: C_18  and  C_23
REMARK    7  A    between atoms: C_19  and  C_22
REMARK                            x       y       z     vdW  Elec       q    Type
REMARK                         _______ _______ _______ _____ _____    ______ ____
ROOT
ATOM      5  N   UNL     1      -0.771   8.015  38.103  0.00  0.00    -0.306 N 
ATOM      8  N   UNL     1      -2.105   7.011  39.753  0.00  0.00    -0.214 NA
ATOM      9  N   UNL     1      -0.061   5.972  39.013  0.00  0.00    -0.223 NA
ATOM     16  C   UNL     1      -0.985   6.969  38.982  0.00  0.00    +0.216 A 
ATOM     19  C   UNL     1      -2.282   5.976  40.598  0.00  0.00    +0.076 A 
ATOM     20  C   UNL     1      -0.301   4.968  39.881  0.00  0.00    +0.116 A 
ATOM     21  C   UNL     1      -1.405   4.915  40.706  0.00  0.00    +0.048 A 
ATOM     30  H   UNL     1       0.039   7.946  37.497  0.00  0.00    +0.149 HD
ENDROOT
BRANCH   5  12
ATOM      1  O   UNL     1      -0.317  11.074  38.219  0.00  0.00    -0.370 OA
ATOM      2  O   UNL     1      -2.670  10.520  36.246  0.00  0.00    -0.370 OA
ATOM     10  C   UNL     1      -1.492   9.779  36.607  0.00  0.00    +0.171 C 
ATOM     11  C   UNL     1      -0.374  10.781  36.813  0.00  0.00    +0.171 C 
ATOM     12  C   UNL     1      -1.670   9.139  37.963  0.00  0.00    +0.130 C 
ATOM     13  C   UNL     1      -0.826  11.999  36.041  0.00  0.00    +0.131 C 
ATOM     14  C   UNL     1      -1.269  10.254  38.912  0.00  0.00    +0.185 C 
ATOM     15  C   UNL     1      -2.337  11.913  36.152  0.00  0.00    +0.185 C 
BRANCH  13   6
ATOM      3  O   UNL     1       0.772  13.939  34.621  0.00  0.00    -0.253 OA
ATOM      6  N   UNL     1      -0.398  11.934  34.664  0.00  0.00    -0.292 N 
ATOM      7  N   UNL     1       0.645  12.605  32.726  0.00  0.00    -0.300 N 
ATOM     17  C   UNL     1       0.376  12.919  34.056  0.00  0.00    +0.300 C 
ATOM     31  H   UNL     1      -0.617  11.098  34.129  0.00  0.00    +0.151 HD
ATOM     32  H   UNL     1       0.276  11.741  32.343  0.00  0.00    +0.150 HD
BRANCH   7  18
ATOM     18  C   UNL     1       1.429  13.458  31.863  0.00  0.00    +0.102 C 
ATOM     23  C   UNL     1       1.833  12.741  30.593  0.00  0.00    +0.024 C 
ENDBRANCH   7  18
ENDBRANCH  13   6
ENDBRANCH   5  12
BRANCH  19  22
ATOM     22  C   UNL     1      -3.477   6.041  41.406  0.00  0.00    +0.001 A 
ATOM     24  C   UNL     1      -3.783   5.004  42.290  0.00  0.00    +0.013 A 
ATOM     25  C   UNL     1      -4.332   7.141  41.305  0.00  0.00    +0.013 A 
ATOM     26  C   UNL     1      -4.938   5.068  43.069  0.00  0.00    +0.046 A 
ATOM     27  C   UNL     1      -5.487   7.204  42.083  0.00  0.00    +0.046 A 
ATOM     28  C   UNL     1      -5.790   6.167  42.966  0.00  0.00    +0.120 A 
BRANCH  28   4
ATOM      4  O   UNL     1      -6.918   6.229  43.725  0.00  0.00    -0.495 OA
ATOM     29  C   UNL     1      -8.162   6.014  43.060  0.00  0.00    +0.277 C 
ENDBRANCH  28   4
ENDBRANCH  19  22
TORSDOF 5
ENDMDL
MODEL 5
REMARK VINA RESULT:      -6.6      5.636      9.221
REMARK  Name = 11941655
REMARK  7 active torsions:
REMARK  status: ('A' for Active; 'I' for Inactive)
REMARK    1  A    between atoms: O_4  and  C_28
REMARK    2  A    between atoms: O_4  and  C_29
REMARK    3  A    between atoms: N_5  and  C_12
REMARK    4  A    between atoms: N_6  and  C_13
REMARK    5  A    between atoms: N_7  and  C_18
REMARK    6  A    between atoms: C_18  and  C_23
REMARK    7  A    between atoms: C_19  and  C_22
REMARK                            x       y       z     vdW  Elec       q    Type
REMARK                         _______ _______ _______ _____ _____    ______ ____
ROOT
ATOM      5  N   UNL     1      16.943   7.547  21.899  0.00  0.00    -0.306 N 
ATOM      8  N   UNL     1      15.649   8.306  20.094  0.00  0.00    -0.214 NA
ATOM      9  N   UNL     1      14.606   7.470  22.098  0.00  0.00    -0.223 NA
ATOM     16  C   UNL     1      15.696   7.781  21.348  0.00  0.00    +0.216 A 
ATOM     19  C   UNL     1      14.418   8.521  19.587  0.00  0.00    +0.076 A 
ATOM     20  C   UNL     1      13.407   7.710  21.531  0.00  0.00    +0.116 A 
ATOM     21  C   UNL     1      13.250   8.239  20.266  0.00  0.00    +0.048 A 
ATOM     30  H   UNL     1      16.965   7.107  22.812  0.00  0.00    +0.149 HD
ENDROOT
BRANCH   5  12
ATOM      1  O   UNL     1      19.800   8.140  22.928  0.00  0.00    -0.370 OA
ATOM      2  O   UNL     1      20.046   6.673  20.186  0.00  0.00    -0.370 OA
ATOM     10  C   UNL     1      19.083   6.614  21.251  0.00  0.00    +0.171 C 
ATOM     11  C   UNL     1      19.844   6.753  22.555  0.00  0.00    +0.171 C 
ATOM     12  C   UNL     1      18.186   7.828  21.215  0.00  0.00    +0.130 C 
ATOM     13  C   UNL     1      21.256   6.348  22.200  0.00  0.00    +0.131 C 
ATOM     14  C   UNL     1      18.989   8.858  21.987  0.00  0.00    +0.185 C 
ATOM     15  C   UNL     1      21.362   6.774  20.748  0.00  0.00    +0.185 C 
BRANCH  13   6
ATOM      3  O   UNL     1      23.760   4.940  22.491  0.00  0.00    -0.253 OA
ATOM      6  N   UNL     1      21.442   4.923  22.343  0.00  0.00    -0.292 N 
ATOM      7  N   UNL     1      22.584   2.942  22.599  0.00  0.00    -0.300 N 
ATOM     17  C   UNL     1      22.693   4.326  22.479  0.00  0.00    +0.300 C 
ATOM     31  H   UNL     1      20.618   4.333  22.412  0.00  0.00    +0.151 HD
ATOM     32  H   UNL     1      21.661   2.520  22.576  0.00  0.00    +0.150 HD
BRANCH   7  18
ATOM     18  C   UNL     1      23.730   2.077  22.752  0.00  0.00    +0.102 C 
ATOM     23  C   UNL     1      24.155   1.479  21.427  0.00  0.00    +0.024 C 
ENDBRANCH   7  18
ENDBRANCH  13   6
ENDBRANCH   5  12
BRANCH  19  22
ATOM     22  C   UNL     1      14.392   9.077  18.256  0.00  0.00    +0.001 A 
ATOM     24  C   UNL     1      14.022   8.280  17.170  0.00  0.00    +0.013 A 
ATOM     25  C   UNL     1      14.738  10.414  18.047  0.00  0.00    +0.013 A 
ATOM     26  C   UNL     1      13.997   8.818  15.883  0.00  0.00    +0.046 A 
ATOM     27  C   UNL     1      14.715  10.952  16.761  0.00  0.00    +0.046 A 
ATOM     28  C   UNL     1      14.344  10.154  15.678  0.00  0.00    +0.120 A 
BRANCH  28   4
ATOM      4  O   UNL     1      14.322  10.678  14.423  0.00  0.00    -0.495 OA
ATOM     29  C   UNL     1      14.008  12.065  14.304  0.00  0.00    +0.277 C 
ENDBRANCH  28   4
ENDBRANCH  19  22
TORSDOF 5
ENDMDL
MODEL 6
REMARK VINA RESULT:      -6.5     19.055     23.728
REMARK  Name = 11941655
REMARK  7 active torsions:
REMARK  status: ('A' for Active; 'I' for Inactive)
REMARK    1  A    between atoms: O_4  and  C_28
REMARK    2  A    between atoms: O_4  and  C_29
REMARK    3  A    between atoms: N_5  and  C_12
REMARK    4  A    between atoms: N_6  and  C_13
REMARK    5  A    between atoms: N_7  and  C_18
REMARK    6  A    between atoms: C_18  and  C_23
REMARK    7  A    between atoms: C_19  and  C_22
REMARK                            x       y       z     vdW  Elec       q    Type
REMARK                         _______ _______ _______ _____ _____    ______ ____
ROOT
ATOM      5  N   UNL     1      10.056   7.011   1.320  0.00  0.00    -0.306 N 
ATOM      8  N   UNL     1       9.568   6.885   3.612  0.00  0.00    -0.214 NA
ATOM      9  N   UNL     1       8.379   8.411   2.177  0.00  0.00    -0.223 NA
ATOM     16  C   UNL     1       9.313   7.449   2.401  0.00  0.00    +0.216 A 
ATOM     19  C   UNL     1       8.826   7.334   4.644  0.00  0.00    +0.076 A 
ATOM     20  C   UNL     1       7.673   8.814   3.253  0.00  0.00    +0.116 A 
ATOM     21  C   UNL     1       7.855   8.307   4.523  0.00  0.00    +0.048 A 
ATOM     30  H   UNL     1       9.893   7.476   0.434  0.00  0.00    +0.149 HD
ENDROOT
BRANCH   5  12
ATOM      1  O   UNL     1      10.006   3.950   0.870  0.00  0.00    -0.370 OA
ATOM      2  O   UNL     1      12.836   4.996   0.079  0.00  0.00    -0.370 OA
ATOM     10  C   UNL     1      11.523   5.578   0.030  0.00  0.00    +0.171 C 
ATOM     11  C   UNL     1      10.556   4.474  -0.350  0.00  0.00    +0.171 C 
ATOM     12  C   UNL     1      11.082   5.996   1.412  0.00  0.00    +0.130 C 
ATOM     13  C   UNL     1      11.427   3.438  -1.021  0.00  0.00    +0.131 C 
ATOM     14  C   UNL     1      10.502   4.714   1.979  0.00  0.00    +0.185 C 
ATOM     15  C   UNL     1      12.755   3.618  -0.309  0.00  0.00    +0.185 C 
BRANCH  13   6
ATOM      3  O   UNL     1       9.851   2.287  -3.149  0.00  0.00    -0.253 OA
ATOM      6  N   UNL     1      11.552   3.698  -2.436  0.00  0.00    -0.292 N 
ATOM      7  N   UNL     1      11.079   3.524  -4.681  0.00  0.00    -0.300 N 
ATOM     17  C   UNL     1      10.745   3.095  -3.398  0.00  0.00    +0.300 C 
ATOM     31  H   UNL     1      12.218   4.402  -2.740  0.00  0.00    +0.151 HD
ATOM     32  H   UNL     1      11.833   4.193  -4.792  0.00  0.00    +0.150 HD
BRANCH   7  18
ATOM     18  C   UNL     1      10.398   3.055  -5.865  0.00  0.00    +0.102 C 
ATOM     23  C   UNL     1       9.227   3.946  -6.222  0.00  0.00    +0.024 C 
ENDBRANCH   7  18
ENDBRANCH  13   6
ENDBRANCH   5  12
BRANCH  19  22
ATOM     22  C   UNL     1       9.115   6.723   5.919  0.00  0.00    +0.001 A 
ATOM     24  C   UNL     1       9.671   5.443   5.973  0.00  0.00    +0.013 A 
ATOM     25  C   UNL     1       8.837   7.408   7.105  0.00  0.00    +0.013 A 
ATOM     26  C   UNL     1       9.949   4.852   7.206  0.00  0.00    +0.046 A 
ATOM     27  C   UNL     1       9.115   6.817   8.337  0.00  0.00    +0.046 A 
ATOM     28  C   UNL     1       9.671   5.538   8.387  0.00  0.00    +0.120 A 
BRANCH  28   4
ATOM      4  O   UNL     1       9.941   4.962   9.590  0.00  0.00    -0.495 OA
ATOM     29  C   UNL     1       8.825   4.578  10.392  0.00  0.00    +0.277 C 
ENDBRANCH  28   4
ENDBRANCH  19  22
TORSDOF 5
ENDMDL
MODEL 7
REMARK VINA RESULT:      -6.5     17.674     22.203
REMARK  Name = 11941655
REMARK  7 active torsions:
REMARK  status: ('A' for Active; 'I' for Inactive)
REMARK    1  A    between atoms: O_4  and  C_28
REMARK    2  A    between atoms: O_4  and  C_29
REMARK    3  A    between atoms: N_5  and  C_12
REMARK    4  A    between atoms: N_6  and  C_13
REMARK    5  A    between atoms: N_7  and  C_18
REMARK    6  A    between atoms: C_18  and  C_23
REMARK    7  A    between atoms: C_19  and  C_22
REMARK                            x       y       z     vdW  Elec       q    Type
REMARK                         _______ _______ _______ _____ _____    ______ ____
ROOT
ATOM      5  N   UNL     1      10.452   5.946   0.922  0.00  0.00    -0.306 N 
ATOM      8  N   UNL     1      10.005   6.122   3.219  0.00  0.00    -0.214 NA
ATOM      9  N   UNL     1       9.145   7.748   1.664  0.00  0.00    -0.223 NA
ATOM     16  C   UNL     1       9.850   6.625   1.965  0.00  0.00    +0.216 A 
ATOM     19  C   UNL     1       9.405   6.809   4.212  0.00  0.00    +0.076 A 
ATOM     20  C   UNL     1       8.571   8.386   2.704  0.00  0.00    +0.116 A 
ATOM     21  C   UNL     1       8.669   7.959   4.013  0.00  0.00    +0.048 A 
ATOM     30  H   UNL     1      10.373   6.360   0.000  0.00  0.00    +0.149 HD
ENDROOT
BRANCH   5  12
ATOM      1  O   UNL     1      12.565   4.555  -0.860  0.00  0.00    -0.370 OA
ATOM      2  O   UNL     1      13.292   3.989   2.120  0.00  0.00    -0.370 OA
ATOM     10  C   UNL     1      12.657   5.094   1.454  0.00  0.00    +0.171 C 
ATOM     11  C   UNL     1      13.344   5.268   0.114  0.00  0.00    +0.171 C 
ATOM     12  C   UNL     1      11.233   4.741   1.097  0.00  0.00    +0.130 C 
ATOM     13  C   UNL     1      14.688   4.602   0.302  0.00  0.00    +0.131 C 
ATOM     14  C   UNL     1      11.391   4.022  -0.230  0.00  0.00    +0.185 C 
ATOM     15  C   UNL     1      14.372   3.509   1.307  0.00  0.00    +0.185 C 
BRANCH  13   6
ATOM      3  O   UNL     1      16.540   6.219  -1.211  0.00  0.00    -0.253 OA
ATOM      6  N   UNL     1      15.662   5.530   0.825  0.00  0.00    -0.292 N 
ATOM      7  N   UNL     1      17.355   7.087   0.781  0.00  0.00    -0.300 N 
ATOM     17  C   UNL     1      16.520   6.273   0.019  0.00  0.00    +0.300 C 
ATOM     31  H   UNL     1      15.680   5.696   1.827  0.00  0.00    +0.151 HD
ATOM     32  H   UNL     1      17.269   7.065   1.792  0.00  0.00    +0.150 HD
BRANCH   7  18
ATOM     18  C   UNL     1      18.343   7.962   0.195  0.00  0.00    +0.102 C 
ATOM     23  C   UNL     1      19.695   7.795   0.857  0.00  0.00    +0.024 C 
ENDBRANCH   7  18
ENDBRANCH  13   6
ENDBRANCH   5  12
BRANCH  19  22
ATOM     22  C   UNL     1       9.584   6.257   5.534  0.00  0.00    +0.001 A 
ATOM     24  C   UNL     1       9.671   4.875   5.711  0.00  0.00    +0.013 A 
ATOM     25  C   UNL     1       9.669   7.104   6.642  0.00  0.00    +0.013 A 
ATOM     26  C   UNL     1       9.843   4.342   6.989  0.00  0.00    +0.046 A 
ATOM     27  C   UNL     1       9.840   6.571   7.920  0.00  0.00    +0.046 A 
ATOM     28  C   UNL     1       9.927   5.190   8.093  0.00  0.00    +0.120 A 
BRANCH  28   4
ATOM      4  O   UNL     1      10.093   4.670   9.339  0.00  0.00    -0.495 OA
ATOM     29  C   UNL     1       8.934   4.581  10.166  0.00  0.00    +0.277 C 
ENDBRANCH  28   4
ENDBRANCH  19  22
TORSDOF 5
ENDMDL
MODEL 8
REMARK VINA RESULT:      -6.4      8.441     10.864
REMARK  Name = 11941655
REMARK  7 active torsions:
REMARK  status: ('A' for Active; 'I' for Inactive)
REMARK    1  A    between atoms: O_4  and  C_28
REMARK    2  A    between atoms: O_4  and  C_29
REMARK    3  A    between atoms: N_5  and  C_12
REMARK    4  A    between atoms: N_6  and  C_13
REMARK    5  A    between atoms: N_7  and  C_18
REMARK    6  A    between atoms: C_18  and  C_23
REMARK    7  A    between atoms: C_19  and  C_22
REMARK                            x       y       z     vdW  Elec       q    Type
REMARK                         _______ _______ _______ _____ _____    ______ ____
ROOT
ATOM      5  N   UNL     1      13.496  12.554  14.663  0.00  0.00    -0.306 N 
ATOM      8  N   UNL     1      12.273  12.310  12.675  0.00  0.00    -0.214 NA
ATOM      9  N   UNL     1      12.348  14.423  13.831  0.00  0.00    -0.223 NA
ATOM     16  C   UNL     1      12.682  13.112  13.695  0.00  0.00    +0.216 A 
ATOM     19  C   UNL     1      11.480  12.887  11.749  0.00  0.00    +0.076 A 
ATOM     20  C   UNL     1      11.553  14.935  12.869  0.00  0.00    +0.116 A 
ATOM     21  C   UNL     1      11.083  14.208  11.795  0.00  0.00    +0.048 A 
ATOM     30  H   UNL     1      13.751  13.147  15.445  0.00  0.00    +0.149 HD
ENDROOT
BRANCH   5  12
ATOM      1  O   UNL     1      15.128  10.856  16.672  0.00  0.00    -0.370 OA
ATOM      2  O   UNL     1      13.121   8.964  15.214  0.00  0.00    -0.370 OA
ATOM     10  C   UNL     1      13.074  10.353  15.583  0.00  0.00    +0.171 C 
ATOM     11  C   UNL     1      13.763  10.485  16.927  0.00  0.00    +0.171 C 
ATOM     12  C   UNL     1      13.928  11.173  14.647  0.00  0.00    +0.130 C 
ATOM     13  C   UNL     1      13.699   9.093  17.512  0.00  0.00    +0.131 C 
ATOM     14  C   UNL     1      15.310  11.048  15.261  0.00  0.00    +0.185 C 
ATOM     15  C   UNL     1      13.738   8.217  16.273  0.00  0.00    +0.185 C 
BRANCH  13   6
ATOM      3  O   UNL     1      13.398   7.721  20.034  0.00  0.00    -0.253 OA
ATOM      6  N   UNL     1      12.476   8.895  18.255  0.00  0.00    -0.292 N 
ATOM      7  N   UNL     1      11.122   8.172  19.968  0.00  0.00    -0.300 N 
ATOM     17  C   UNL     1      12.422   8.217  19.470  0.00  0.00    +0.300 C 
ATOM     31  H   UNL     1      11.625   9.325  17.906  0.00  0.00    +0.151 HD
ATOM     32  H   UNL     1      10.378   8.608  19.434  0.00  0.00    +0.150 HD
BRANCH   7  18
ATOM     18  C   UNL     1      10.784   7.527  21.215  0.00  0.00    +0.102 C 
ATOM     23  C   UNL     1      10.681   8.528  22.347  0.00  0.00    +0.024 C 
ENDBRANCH   7  18
ENDBRANCH  13   6
ENDBRANCH   5  12
BRANCH  19  22
ATOM     22  C   UNL     1      11.058  12.018  10.677  0.00  0.00    +0.001 A 
ATOM     24  C   UNL     1      11.977  11.594   9.715  0.00  0.00    +0.013 A 
ATOM     25  C   UNL     1       9.728  11.599  10.597  0.00  0.00    +0.013 A 
ATOM     26  C   UNL     1      11.568  10.755   8.678  0.00  0.00    +0.046 A 
ATOM     27  C   UNL     1       9.319  10.760   9.560  0.00  0.00    +0.046 A 
ATOM     28  C   UNL     1      10.239  10.338   8.601  0.00  0.00    +0.120 A 
BRANCH  28   4
ATOM      4  O   UNL     1       9.840   9.520   7.589  0.00  0.00    -0.495 OA
ATOM     29  C   UNL     1       9.184   8.307   7.955  0.00  0.00    +0.277 C 
ENDBRANCH  28   4
ENDBRANCH  19  22
TORSDOF 5
ENDMDL
MODEL 9
REMARK VINA RESULT:      -6.3     28.297     30.805
REMARK  Name = 11941655
REMARK  7 active torsions:
REMARK  status: ('A' for Active; 'I' for Inactive)
REMARK    1  A    between atoms: O_4  and  C_28
REMARK    2  A    between atoms: O_4  and  C_29
REMARK    3  A    between atoms: N_5  and  C_12
REMARK    4  A    between atoms: N_6  and  C_13
REMARK    5  A    between atoms: N_7  and  C_18
REMARK    6  A    between atoms: C_18  and  C_23
REMARK    7  A    between atoms: C_19  and  C_22
REMARK                            x       y       z     vdW  Elec       q    Type
REMARK                         _______ _______ _______ _____ _____    ______ ____
ROOT
ATOM      5  N   UNL     1      -4.239  -9.812  10.811  0.00  0.00    -0.306 N 
ATOM      8  N   UNL     1      -4.651 -10.511   8.609  0.00  0.00    -0.214 NA
ATOM      9  N   UNL     1      -5.978  -8.776   9.625  0.00  0.00    -0.223 NA
ATOM     16  C   UNL     1      -4.978  -9.696   9.647  0.00  0.00    +0.216 A 
ATOM     19  C   UNL     1      -5.392 -10.372   7.491  0.00  0.00    +0.076 A 
ATOM     20  C   UNL     1      -6.679  -8.689   8.476  0.00  0.00    +0.116 A 
ATOM     21  C   UNL     1      -6.429  -9.470   7.365  0.00  0.00    +0.048 A 
ATOM     30  H   UNL     1      -4.525  -9.236  11.594  0.00  0.00    +0.149 HD
ENDROOT
BRANCH   5  12
ATOM      1  O   UNL     1      -1.817  -9.871  12.737  0.00  0.00    -0.370 OA
ATOM      2  O   UNL     1      -2.630 -12.818  12.116  0.00  0.00    -0.370 OA
ATOM     10  C   UNL     1      -3.373 -11.591  12.209  0.00  0.00    +0.171 C 
ATOM     11  C   UNL     1      -2.760 -10.778  13.332  0.00  0.00    +0.171 C 
ATOM     12  C   UNL     1      -3.148 -10.748  10.976  0.00  0.00    +0.130 C 
ATOM     13  C   UNL     1      -2.041 -11.803  14.178  0.00  0.00    +0.131 C 
ATOM     14  C   UNL     1      -1.867 -10.007  11.309  0.00  0.00    +0.185 C 
ATOM     15  C   UNL     1      -1.638 -12.847  13.152  0.00  0.00    +0.185 C 
BRANCH  13   6
ATOM      3  O   UNL     1      -2.970 -10.524  16.593  0.00  0.00    -0.253 OA
ATOM      6  N   UNL     1      -2.919 -12.364  15.177  0.00  0.00    -0.292 N 
ATOM      7  N   UNL     1      -4.164 -12.446  17.111  0.00  0.00    -0.300 N 
ATOM     17  C   UNL     1      -3.319 -11.673  16.318  0.00  0.00    +0.300 C 
ATOM     31  H   UNL     1      -3.316 -13.284  15.010  0.00  0.00    +0.151 HD
ATOM     32  H   UNL     1      -4.396 -13.386  16.805  0.00  0.00    +0.150 HD
BRANCH   7  18
ATOM     18  C   UNL     1      -4.724 -11.970  18.353  0.00  0.00    +0.102 C 
ATOM     23  C   UNL     1      -3.770 -12.184  19.510  0.00  0.00    +0.024 C 
ENDBRANCH   7  18
ENDBRANCH  13   6
ENDBRANCH   5  12
BRANCH  19  22
ATOM     22  C   UNL     1      -5.028 -11.247   6.402  0.00  0.00    +0.001 A 
ATOM     24  C   UNL     1      -5.665 -11.128   5.164  0.00  0.00    +0.013 A 
ATOM     25  C   UNL     1      -4.040 -12.217   6.582  0.00  0.00    +0.013 A 
ATOM     26  C   UNL     1      -5.313 -11.974   4.112  0.00  0.00    +0.046 A 
ATOM     27  C   UNL     1      -3.689 -13.064   5.530  0.00  0.00    +0.046 A 
ATOM     28  C   UNL     1      -4.326 -12.942   4.295  0.00  0.00    +0.120 A 
BRANCH  28   4
ATOM      4  O   UNL     1      -3.985 -13.769   3.270  0.00  0.00    -0.495 OA
ATOM     29  C   UNL     1      -3.330 -13.177   2.149  0.00  0.00    +0.277 C 
ENDBRANCH  28   4
ENDBRANCH  19  22
TORSDOF 5
ENDMDL
MODEL 10
REMARK VINA RESULT:      -6.3     27.801     30.597
REMARK  Name = 11941655
REMARK  7 active torsions:
REMARK  status: ('A' for Active; 'I' for Inactive)
REMARK    1  A    between atoms: O_4  and  C_28
REMARK    2  A    between atoms: O_4  and  C_29
REMARK    3  A    between atoms: N_5  and  C_12
REMARK    4  A    between atoms: N_6  and  C_13
REMARK    5  A    between atoms: N_7  and  C_18
REMARK    6  A    between atoms: C_18  and  C_23
REMARK    7  A    between atoms: C_19  and  C_22
REMARK                            x       y       z     vdW  Elec       q    Type
REMARK                         _______ _______ _______ _____ _____    ______ ____
ROOT
ATOM      5  N   UNL     1      -8.365  -9.314  17.859  0.00  0.00    -0.306 N 
ATOM      8  N   UNL     1      -6.265 -10.008  17.073  0.00  0.00    -0.214 NA
ATOM      9  N   UNL     1      -6.958 -10.480  19.331  0.00  0.00    -0.223 NA
ATOM     16  C   UNL     1      -7.161  -9.953  18.095  0.00  0.00    +0.216 A 
ATOM     19  C   UNL     1      -5.103 -10.637  17.337  0.00  0.00    +0.076 A 
ATOM     20  C   UNL     1      -5.774 -11.095  19.527  0.00  0.00    +0.116 A 
ATOM     21  C   UNL     1      -4.798 -11.205  18.557  0.00  0.00    +0.048 A 
ATOM     30  H   UNL     1      -9.002  -9.234  18.644  0.00  0.00    +0.149 HD
ENDROOT
BRANCH   5  12
ATOM      1  O   UNL     1     -10.364 -10.125  15.640  0.00  0.00    -0.370 OA
ATOM      2  O   UNL     1     -10.182  -7.011  15.685  0.00  0.00    -0.370 OA
ATOM     10  C   UNL     1     -10.055  -8.020  16.702  0.00  0.00    +0.171 C 
ATOM     11  C   UNL     1     -11.058  -9.110  16.383  0.00  0.00    +0.171 C 
ATOM     12  C   UNL     1      -8.715  -8.707  16.594  0.00  0.00    +0.130 C 
ATOM     13  C   UNL     1     -12.080  -8.423  15.506  0.00  0.00    +0.131 C 
ATOM     14  C   UNL     1      -8.974  -9.779  15.551  0.00  0.00    +0.185 C 
ATOM     15  C   UNL     1     -11.245  -7.375  14.793  0.00  0.00    +0.185 C 
BRANCH  13   6
ATOM      3  O   UNL     1     -14.756  -7.764  14.647  0.00  0.00    -0.253 OA
ATOM      6  N   UNL     1     -13.122  -7.814  16.297  0.00  0.00    -0.292 N 
ATOM      7  N   UNL     1     -15.199  -6.945  16.772  0.00  0.00    -0.300 N 
ATOM     17  C   UNL     1     -14.392  -7.529  15.799  0.00  0.00    +0.300 C 
ATOM     31  H   UNL     1     -12.943  -7.641  17.281  0.00  0.00    +0.151 HD
ATOM     32  H   UNL     1     -14.813  -6.787  17.698  0.00  0.00    +0.150 HD
BRANCH   7  18
ATOM     18  C   UNL     1     -16.565  -6.549  16.522  0.00  0.00    +0.102 C 
ATOM     23  C   UNL     1     -17.350  -6.419  17.810  0.00  0.00    +0.024 C 
ENDBRANCH   7  18
ENDBRANCH  13   6
ENDBRANCH   5  12
BRANCH  19  22
ATOM     22  C   UNL     1      -4.167 -10.684  16.238  0.00  0.00    +0.001 A 
ATOM     24  C   UNL     1      -2.793 -10.670  16.487  0.00  0.00    +0.013 A 
ATOM     25  C   UNL     1      -4.633 -10.740  14.923  0.00  0.00    +0.013 A 
ATOM     26  C   UNL     1      -1.890 -10.714  15.425  0.00  0.00    +0.046 A 
ATOM     27  C   UNL     1      -3.730 -10.783  13.861  0.00  0.00    +0.046 A 
ATOM     28  C   UNL     1      -2.357 -10.770  14.112  0.00  0.00    +0.120 A 
BRANCH  28   4
ATOM      4  O   UNL     1      -1.477 -10.812  13.076  0.00  0.00    -0.495 OA
ATOM     29  C   UNL     1      -1.850 -10.134  11.878  0.00  0.00    +0.277 C 
ENDBRANCH  28   4
ENDBRANCH  19  22
TORSDOF 5
ENDMDL
