MODEL 1
REMARK VINA RESULT:      -7.2      0.000      0.000
REMARK  Name = 26743419
REMARK  9 active torsions:
REMARK  status: ('A' for Active; 'I' for Inactive)
REMARK    1  A    between atoms: O_3  and  C_19
REMARK    2  A    between atoms: O_3  and  C_26
REMARK    3  A    between atoms: N_4  and  C_9
REMARK    4  A    between atoms: N_5  and  C_17
REMARK    5  A    between atoms: C_7  and  C_10
REMARK    6  A    between atoms: C_13  and  C_15
REMARK    7  A    between atoms: C_14  and  C_16
REMARK    8  A    between atoms: C_18  and  C_19
REMARK    9  A    between atoms: C_24  and  C_25
REMARK                            x       y       z     vdW  Elec       q    Type
REMARK                         _______ _______ _______ _____ _____    ______ ____
ROOT
ATOM      7  C   UNL     1      20.119   6.470  20.839  0.00  0.00    +0.047 C 
ATOM      8  C   UNL     1      21.322   7.377  20.506  0.00  0.00    +0.039 C 
ATOM      9  C   UNL     1      22.514   6.793  21.275  0.00  0.00    +0.097 C 
ATOM     11  C   UNL     1      20.548   5.825  22.125  0.00  0.00    -0.021 C 
ATOM     12  C   UNL     1      21.854   6.001  22.356  0.00  0.00    -0.009 C 
ENDROOT
BRANCH   7  10
ATOM      5  N   UNL     1      16.749   7.891  20.638  0.00  0.00    -0.236 N 
ATOM      6  N   UNL     1      17.248   8.773  21.522  0.00  0.00    -0.171 NA
ATOM     10  C   UNL     1      18.809   7.219  20.915  0.00  0.00    +0.003 A 
ATOM     13  C   UNL     1      17.643   6.940  20.243  0.00  0.00    +0.046 A 
ATOM     14  C   UNL     1      18.507   8.357  21.687  0.00  0.00    +0.064 A 
ATOM     15  C   UNL     1      17.316   5.870  19.280  0.00  0.00    +0.066 C 
ATOM     16  C   UNL     1      19.397   9.088  22.606  0.00  0.00    +0.068 C 
BRANCH   5  17
ATOM      1 CL   UNL     1      11.889   6.439  21.201  0.00  0.00    -0.083 Cl
ATOM     17  C   UNL     1      15.425   8.010  20.215  0.00  0.00    +0.067 A 
ATOM     20  C   UNL     1      14.423   7.263  20.837  0.00  0.00    +0.048 A 
ATOM     21  C   UNL     1      15.102   8.874  19.170  0.00  0.00    +0.028 A 
ATOM     22  C   UNL     1      13.101   7.380  20.412  0.00  0.00    +0.046 A 
ATOM     23  C   UNL     1      13.779   8.992  18.745  0.00  0.00    +0.007 A 
ATOM     24  C   UNL     1      12.778   8.245  19.366  0.00  0.00    -0.032 A 
ATOM     25  C   UNL     1      11.373   8.400  18.882  0.00  0.00    +0.045 C 
ENDBRANCH   5  17
ENDBRANCH   7  10
BRANCH   9   4
ATOM      2  O   UNL     1      25.399   6.590  21.261  0.00  0.00    -0.272 OA
ATOM      4  N   UNL     1      23.318   5.914  20.470  0.00  0.00    -0.306 N 
ATOM     18  C   UNL     1      24.707   5.887  20.531  0.00  0.00    +0.251 C 
ATOM     32  H   UNL     1      22.852   5.310  19.797  0.00  0.00    +0.149 HD
BRANCH  18  19
ATOM     19  C   UNL     1      25.295   4.869  19.577  0.00  0.00    +0.324 C 
BRANCH  19   3
ATOM      3  O   UNL     1      24.562   3.663  19.622  0.00  0.00    -0.483 OA
BRANCH   3  26
ATOM     26  C   UNL     1      24.986   2.703  20.510  0.00  0.00    +0.121 A 
ATOM     27  C   UNL     1      24.124   1.673  20.889  0.00  0.00    +0.045 A 
ATOM     28  C   UNL     1      26.278   2.758  21.031  0.00  0.00    +0.045 A 
ATOM     29  C   UNL     1      24.555   0.699  21.790  0.00  0.00    +0.004 A 
ATOM     30  C   UNL     1      26.708   1.785  21.932  0.00  0.00    +0.004 A 
ATOM     31  C   UNL     1      25.847   0.755  22.311  0.00  0.00    +0.000 A 
ENDBRANCH   3  26
ENDBRANCH  19   3
ENDBRANCH  18  19
ENDBRANCH   9   4
TORSDOF 6
ENDMDL
MODEL 2
REMARK VINA RESULT:      -7.1     29.090     32.426
REMARK  Name = 26743419
REMARK  9 active torsions:
REMARK  status: ('A' for Active; 'I' for Inactive)
REMARK    1  A    between atoms: O_3  and  C_19
REMARK    2  A    between atoms: O_3  and  C_26
REMARK    3  A    between atoms: N_4  and  C_9
REMARK    4  A    between atoms: N_5  and  C_17
REMARK    5  A    between atoms: C_7  and  C_10
REMARK    6  A    between atoms: C_13  and  C_15
REMARK    7  A    between atoms: C_14  and  C_16
REMARK    8  A    between atoms: C_18  and  C_19
REMARK    9  A    between atoms: C_24  and  C_25
REMARK                            x       y       z     vdW  Elec       q    Type
REMARK                         _______ _______ _______ _____ _____    ______ ____
ROOT
ATOM      7  C   UNL     1      -6.147 -11.254  16.860  0.00  0.00    +0.047 C 
ATOM      8  C   UNL     1      -5.039 -10.193  17.022  0.00  0.00    +0.039 C 
ATOM      9  C   UNL     1      -3.743 -10.865  16.551  0.00  0.00    +0.097 C 
ATOM     11  C   UNL     1      -5.367 -12.537  16.852  0.00  0.00    -0.021 C 
ATOM     12  C   UNL     1      -4.058 -12.319  16.680  0.00  0.00    -0.009 C 
ENDROOT
BRANCH   7  10
ATOM      5  N   UNL     1      -9.112 -11.050  19.002  0.00  0.00    -0.236 N 
ATOM      6  N   UNL     1      -8.197 -11.060  19.987  0.00  0.00    -0.171 NA
ATOM     10  C   UNL     1      -7.214 -11.171  17.927  0.00  0.00    +0.003 A 
ATOM     13  C   UNL     1      -8.575 -11.115  17.750  0.00  0.00    +0.046 A 
ATOM     14  C   UNL     1      -7.039 -11.133  19.324  0.00  0.00    +0.064 A 
ATOM     15  C   UNL     1      -9.390 -11.120  16.518  0.00  0.00    +0.066 C 
ATOM     16  C   UNL     1      -5.773 -11.167  20.077  0.00  0.00    +0.068 C 
BRANCH   5  17
ATOM      1 CL   UNL     1     -13.311 -13.479  20.589  0.00  0.00    -0.083 Cl
ATOM     17  C   UNL     1     -10.468 -10.978  19.319  0.00  0.00    +0.067 A 
ATOM     20  C   UNL     1     -11.147 -12.119  19.749  0.00  0.00    +0.048 A 
ATOM     21  C   UNL     1     -11.147  -9.765  19.205  0.00  0.00    +0.028 A 
ATOM     22  C   UNL     1     -12.503 -12.047  20.063  0.00  0.00    +0.046 A 
ATOM     23  C   UNL     1     -12.504  -9.693  19.520  0.00  0.00    +0.007 A 
ATOM     24  C   UNL     1     -13.183 -10.834  19.949  0.00  0.00    -0.032 A 
ATOM     25  C   UNL     1     -14.635 -10.715  20.278  0.00  0.00    +0.045 C 
ENDBRANCH   5  17
ENDBRANCH   7  10
BRANCH   9   4
ATOM      2  O   UNL     1      -1.137 -10.947  15.298  0.00  0.00    -0.272 OA
ATOM      4  N   UNL     1      -3.430 -10.569  15.179  0.00  0.00    -0.306 N 
ATOM     18  C   UNL     1      -2.140 -10.635  14.663  0.00  0.00    +0.251 C 
ATOM     32  H   UNL     1      -4.181 -10.261  14.566  0.00  0.00    +0.149 HD
BRANCH  18  19
ATOM     19  C   UNL     1      -2.100 -10.274  13.193  0.00  0.00    +0.324 C 
BRANCH  19   3
ATOM      3  O   UNL     1      -3.191 -10.854  12.508  0.00  0.00    -0.483 OA
BRANCH   3  26
ATOM     26  C   UNL     1      -3.832 -10.074  11.575  0.00  0.00    +0.121 A 
ATOM     27  C   UNL     1      -5.144  -9.655  11.799  0.00  0.00    +0.045 A 
ATOM     28  C   UNL     1      -3.171  -9.700  10.406  0.00  0.00    +0.045 A 
ATOM     29  C   UNL     1      -5.794  -8.863  10.852  0.00  0.00    +0.004 A 
ATOM     30  C   UNL     1      -3.821  -8.909   9.459  0.00  0.00    +0.004 A 
ATOM     31  C   UNL     1      -5.132  -8.490   9.682  0.00  0.00    +0.000 A 
ENDBRANCH   3  26
ENDBRANCH  19   3
ENDBRANCH  18  19
ENDBRANCH   9   4
TORSDOF 6
ENDMDL
MODEL 3
REMARK VINA RESULT:      -6.9      4.249      5.938
REMARK  Name = 26743419
REMARK  9 active torsions:
REMARK  status: ('A' for Active; 'I' for Inactive)
REMARK    1  A    between atoms: O_3  and  C_19
REMARK    2  A    between atoms: O_3  and  C_26
REMARK    3  A    between atoms: N_4  and  C_9
REMARK    4  A    between atoms: N_5  and  C_17
REMARK    5  A    between atoms: C_7  and  C_10
REMARK    6  A    between atoms: C_13  and  C_15
REMARK    7  A    between atoms: C_14  and  C_16
REMARK    8  A    between atoms: C_18  and  C_19
REMARK    9  A    between atoms: C_24  and  C_25
REMARK                            x       y       z     vdW  Elec       q    Type
REMARK                         _______ _______ _______ _____ _____    ______ ____
ROOT
ATOM      7  C   UNL     1      15.309   8.734  21.009  0.00  0.00    +0.047 C 
ATOM      8  C   UNL     1      15.677   7.462  21.801  0.00  0.00    +0.039 C 
ATOM      9  C   UNL     1      16.436   6.562  20.819  0.00  0.00    +0.097 C 
ATOM     11  C   UNL     1      15.377   8.260  19.587  0.00  0.00    -0.021 C 
ATOM     12  C   UNL     1      15.995   7.077  19.488  0.00  0.00    -0.009 C 
ENDROOT
BRANCH   7  10
ATOM      5  N   UNL     1      12.379  10.670  22.053  0.00  0.00    -0.236 N 
ATOM      6  N   UNL     1      11.752   9.491  21.896  0.00  0.00    -0.171 NA
ATOM     10  C   UNL     1      13.979   9.326  21.415  0.00  0.00    +0.003 A 
ATOM     13  C   UNL     1      13.714  10.625  21.776  0.00  0.00    +0.046 A 
ATOM     14  C   UNL     1      12.735   8.674  21.507  0.00  0.00    +0.064 A 
ATOM     15  C   UNL     1      14.603  11.800  21.878  0.00  0.00    +0.066 C 
ATOM     16  C   UNL     1      12.433   7.259  21.229  0.00  0.00    +0.068 C 
BRANCH   5  17
ATOM      1 CL   UNL     1      10.447  13.383  25.920  0.00  0.00    -0.083 Cl
ATOM     17  C   UNL     1      11.655  11.790  22.463  0.00  0.00    +0.067 A 
ATOM     20  C   UNL     1      11.432  12.017  23.822  0.00  0.00    +0.048 A 
ATOM     21  C   UNL     1      11.153  12.681  21.516  0.00  0.00    +0.028 A 
ATOM     22  C   UNL     1      10.706  13.135  24.231  0.00  0.00    +0.046 A 
ATOM     23  C   UNL     1      10.428  13.800  21.925  0.00  0.00    +0.007 A 
ATOM     24  C   UNL     1      10.204  14.027  23.284  0.00  0.00    -0.032 A 
ATOM     25  C   UNL     1       9.423  15.237  23.682  0.00  0.00    +0.045 C 
ENDBRANCH   5  17
ENDBRANCH   7  10
BRANCH   9   4
ATOM      2  O   UNL     1      18.449   4.974  19.479  0.00  0.00    -0.272 OA
ATOM      4  N   UNL     1      17.863   6.697  20.928  0.00  0.00    -0.306 N 
ATOM     18  C   UNL     1      18.759   5.884  20.243  0.00  0.00    +0.251 C 
ATOM     32  H   UNL     1      18.236   7.397  21.566  0.00  0.00    +0.149 HD
BRANCH  18  19
ATOM     19  C   UNL     1      20.198   6.248  20.543  0.00  0.00    +0.324 C 
BRANCH  19   3
ATOM      3  O   UNL     1      20.732   5.392  21.532  0.00  0.00    -0.483 OA
BRANCH   3  26
ATOM     26  C   UNL     1      21.861   4.682  21.202  0.00  0.00    +0.121 A 
ATOM     27  C   UNL     1      21.952   3.327  21.525  0.00  0.00    +0.045 A 
ATOM     28  C   UNL     1      22.916   5.314  20.545  0.00  0.00    +0.045 A 
ATOM     29  C   UNL     1      23.098   2.606  21.191  0.00  0.00    +0.004 A 
ATOM     30  C   UNL     1      24.062   4.593  20.211  0.00  0.00    +0.004 A 
ATOM     31  C   UNL     1      24.153   3.239  20.534  0.00  0.00    +0.000 A 
ENDBRANCH   3  26
ENDBRANCH  19   3
ENDBRANCH  18  19
ENDBRANCH   9   4
TORSDOF 6
ENDMDL
MODEL 4
REMARK VINA RESULT:      -6.8     29.619     34.147
REMARK  Name = 26743419
REMARK  9 active torsions:
REMARK  status: ('A' for Active; 'I' for Inactive)
REMARK    1  A    between atoms: O_3  and  C_19
REMARK    2  A    between atoms: O_3  and  C_26
REMARK    3  A    between atoms: N_4  and  C_9
REMARK    4  A    between atoms: N_5  and  C_17
REMARK    5  A    between atoms: C_7  and  C_10
REMARK    6  A    between atoms: C_13  and  C_15
REMARK    7  A    between atoms: C_14  and  C_16
REMARK    8  A    between atoms: C_18  and  C_19
REMARK    9  A    between atoms: C_24  and  C_25
REMARK                            x       y       z     vdW  Elec       q    Type
REMARK                         _______ _______ _______ _____ _____    ______ ____
ROOT
ATOM      7  C   UNL     1      -9.796  -6.266   8.199  0.00  0.00    +0.047 C 
ATOM      8  C   UNL     1      -9.452  -7.563   8.960  0.00  0.00    +0.039 C 
ATOM      9  C   UNL     1      -8.443  -8.311   8.080  0.00  0.00    +0.097 C 
ATOM     11  C   UNL     1      -9.426  -6.613   6.786  0.00  0.00    -0.021 C 
ATOM     12  C   UNL     1      -8.687  -7.726   6.727  0.00  0.00    -0.009 C 
ENDROOT
BRANCH   7  10
ATOM      5  N   UNL     1     -13.041  -4.695   8.847  0.00  0.00    -0.236 N 
ATOM      6  N   UNL     1     -13.513  -5.871   8.396  0.00  0.00    -0.171 NA
ATOM     10  C   UNL     1     -11.229  -5.825   8.387  0.00  0.00    +0.003 A 
ATOM     13  C   UNL     1     -11.680  -4.616   8.861  0.00  0.00    +0.046 A 
ATOM     14  C   UNL     1     -12.401  -6.557   8.118  0.00  0.00    +0.064 A 
ATOM     15  C   UNL     1     -10.942  -3.420   9.314  0.00  0.00    +0.066 C 
ATOM     16  C   UNL     1     -12.509  -7.927   7.587  0.00  0.00    +0.068 C 
BRANCH   5  17
ATOM      1 CL   UNL     1     -15.689  -0.517   7.587  0.00  0.00    -0.083 Cl
ATOM     17  C   UNL     1     -13.933  -3.698   9.244  0.00  0.00    +0.067 A 
ATOM     20  C   UNL     1     -14.331  -2.716   8.336  0.00  0.00    +0.048 A 
ATOM     21  C   UNL     1     -14.425  -3.683  10.548  0.00  0.00    +0.028 A 
ATOM     22  C   UNL     1     -15.220  -1.718   8.735  0.00  0.00    +0.046 A 
ATOM     23  C   UNL     1     -15.315  -2.686  10.947  0.00  0.00    +0.007 A 
ATOM     24  C   UNL     1     -15.713  -1.703  10.040  0.00  0.00    -0.032 A 
ATOM     25  C   UNL     1     -16.668  -0.652  10.505  0.00  0.00    +0.045 C 
ENDBRANCH   5  17
ENDBRANCH   7  10
BRANCH   9   4
ATOM      2  O   UNL     1      -6.958  -9.612  10.194  0.00  0.00    -0.272 OA
ATOM      4  N   UNL     1      -7.079  -8.063   8.463  0.00  0.00    -0.306 N 
ATOM     18  C   UNL     1      -6.445  -8.741   9.498  0.00  0.00    +0.251 C 
ATOM     32  H   UNL     1      -6.565  -7.331   7.977  0.00  0.00    +0.149 HD
BRANCH  18  19
ATOM     19  C   UNL     1      -5.014  -8.281   9.682  0.00  0.00    +0.324 C 
BRANCH  19   3
ATOM      3  O   UNL     1      -4.112  -9.278   9.252  0.00  0.00    -0.483 OA
BRANCH   3  26
ATOM     26  C   UNL     1      -3.397  -9.938  10.223  0.00  0.00    +0.121 A 
ATOM     27  C   UNL     1      -3.789 -11.214  10.632  0.00  0.00    +0.045 A 
ATOM     28  C   UNL     1      -2.281  -9.334  10.800  0.00  0.00    +0.045 A 
ATOM     29  C   UNL     1      -3.063 -11.884  11.617  0.00  0.00    +0.004 A 
ATOM     30  C   UNL     1      -1.556 -10.004  11.785  0.00  0.00    +0.004 A 
ATOM     31  C   UNL     1      -1.947 -11.279  12.194  0.00  0.00    +0.000 A 
ENDBRANCH   3  26
ENDBRANCH  19   3
ENDBRANCH  18  19
ENDBRANCH   9   4
TORSDOF 6
ENDMDL
MODEL 5
REMARK VINA RESULT:      -6.6     29.188     32.155
REMARK  Name = 26743419
REMARK  9 active torsions:
REMARK  status: ('A' for Active; 'I' for Inactive)
REMARK    1  A    between atoms: O_3  and  C_19
REMARK    2  A    between atoms: O_3  and  C_26
REMARK    3  A    between atoms: N_4  and  C_9
REMARK    4  A    between atoms: N_5  and  C_17
REMARK    5  A    between atoms: C_7  and  C_10
REMARK    6  A    between atoms: C_13  and  C_15
REMARK    7  A    between atoms: C_14  and  C_16
REMARK    8  A    between atoms: C_18  and  C_19
REMARK    9  A    between atoms: C_24  and  C_25
REMARK                            x       y       z     vdW  Elec       q    Type
REMARK                         _______ _______ _______ _____ _____    ______ ____
ROOT
ATOM      7  C   UNL     1      -4.355  -9.922  10.527  0.00  0.00    +0.047 C 
ATOM      8  C   UNL     1      -3.990 -11.238  11.244  0.00  0.00    +0.039 C 
ATOM      9  C   UNL     1      -2.621 -10.997  11.892  0.00  0.00    +0.097 C 
ATOM     11  C   UNL     1      -3.015  -9.269  10.349  0.00  0.00    -0.021 C 
ATOM     12  C   UNL     1      -2.074  -9.856  11.098  0.00  0.00    -0.009 C 
ENDROOT
BRANCH   7  10
ATOM      5  N   UNL     1      -6.499  -9.935   7.556  0.00  0.00    -0.236 N 
ATOM      6  N   UNL     1      -5.850 -11.084   7.298  0.00  0.00    -0.171 NA
ATOM     10  C   UNL     1      -5.129 -10.134   9.246  0.00  0.00    +0.003 A 
ATOM     13  C   UNL     1      -6.103  -9.326   8.711  0.00  0.00    +0.046 A 
ATOM     14  C   UNL     1      -5.015 -11.200   8.334  0.00  0.00    +0.064 A 
ATOM     15  C   UNL     1      -6.676  -8.054   9.195  0.00  0.00    +0.066 C 
ATOM     16  C   UNL     1      -4.113 -12.363   8.411  0.00  0.00    +0.068 C 
BRANCH   5  17
ATOM      1 CL   UNL     1      -7.584  -7.884   3.010  0.00  0.00    -0.083 Cl
ATOM     17  C   UNL     1      -7.474  -9.477   6.671  0.00  0.00    +0.067 A 
ATOM     20  C   UNL     1      -7.103  -8.968   5.425  0.00  0.00    +0.048 A 
ATOM     21  C   UNL     1      -8.820  -9.524   7.031  0.00  0.00    +0.028 A 
ATOM     22  C   UNL     1      -8.078  -8.508   4.542  0.00  0.00    +0.046 A 
ATOM     23  C   UNL     1      -9.796  -9.065   6.147  0.00  0.00    +0.007 A 
ATOM     24  C   UNL     1      -9.426  -8.556   4.902  0.00  0.00    -0.032 A 
ATOM     25  C   UNL     1     -10.501  -8.075   3.983  0.00  0.00    +0.045 C 
ENDBRANCH   5  17
ENDBRANCH   7  10
BRANCH   9   4
ATOM      2  O   UNL     1      -1.612 -12.433  14.192  0.00  0.00    -0.272 OA
ATOM      4  N   UNL     1      -2.720 -10.606  13.273  0.00  0.00    -0.306 N 
ATOM     18  C   UNL     1      -2.203 -11.364  14.316  0.00  0.00    +0.251 C 
ATOM     32  H   UNL     1      -3.225  -9.752  13.499  0.00  0.00    +0.149 HD
BRANCH  18  19
ATOM     19  C   UNL     1      -2.449 -10.717  15.663  0.00  0.00    +0.324 C 
BRANCH  19   3
ATOM      3  O   UNL     1      -3.813 -10.384  15.814  0.00  0.00    -0.483 OA
BRANCH   3  26
ATOM     26  C   UNL     1      -4.414 -10.727  17.002  0.00  0.00    +0.121 A 
ATOM     27  C   UNL     1      -5.710 -10.288  17.280  0.00  0.00    +0.045 A 
ATOM     28  C   UNL     1      -3.731 -11.514  17.928  0.00  0.00    +0.045 A 
ATOM     29  C   UNL     1      -6.320 -10.636  18.485  0.00  0.00    +0.004 A 
ATOM     30  C   UNL     1      -4.341 -11.862  19.133  0.00  0.00    +0.004 A 
ATOM     31  C   UNL     1      -5.635 -11.423  19.411  0.00  0.00    +0.000 A 
ENDBRANCH   3  26
ENDBRANCH  19   3
ENDBRANCH  18  19
ENDBRANCH   9   4
TORSDOF 6
ENDMDL
MODEL 6
REMARK VINA RESULT:      -6.6     29.435     32.596
REMARK  Name = 26743419
REMARK  9 active torsions:
REMARK  status: ('A' for Active; 'I' for Inactive)
REMARK    1  A    between atoms: O_3  and  C_19
REMARK    2  A    between atoms: O_3  and  C_26
REMARK    3  A    between atoms: N_4  and  C_9
REMARK    4  A    between atoms: N_5  and  C_17
REMARK    5  A    between atoms: C_7  and  C_10
REMARK    6  A    between atoms: C_13  and  C_15
REMARK    7  A    between atoms: C_14  and  C_16
REMARK    8  A    between atoms: C_18  and  C_19
REMARK    9  A    between atoms: C_24  and  C_25
REMARK                            x       y       z     vdW  Elec       q    Type
REMARK                         _______ _______ _______ _____ _____    ______ ____
ROOT
ATOM      7  C   UNL     1      -4.487  -9.783  10.502  0.00  0.00    +0.047 C 
ATOM      8  C   UNL     1      -5.764 -10.526  10.059  0.00  0.00    +0.039 C 
ATOM      9  C   UNL     1      -6.527  -9.547   9.158  0.00  0.00    +0.097 C 
ATOM     11  C   UNL     1      -4.865  -8.344  10.304  0.00  0.00    -0.021 C 
ATOM     12  C   UNL     1      -5.975  -8.220   9.567  0.00  0.00    -0.009 C 
ENDROOT
BRANCH   7  10
ATOM      5  N   UNL     1      -3.996 -10.668  14.024  0.00  0.00    -0.236 N 
ATOM      6  N   UNL     1      -2.696 -10.573  13.694  0.00  0.00    -0.171 NA
ATOM     10  C   UNL     1      -4.049 -10.133  11.906  0.00  0.00    +0.003 A 
ATOM     13  C   UNL     1      -4.847 -10.415  12.988  0.00  0.00    +0.046 A 
ATOM     14  C   UNL     1      -2.735 -10.245  12.399  0.00  0.00    +0.064 A 
ATOM     15  C   UNL     1      -6.318 -10.462  13.117  0.00  0.00    +0.066 C 
ATOM     16  C   UNL     1      -1.474 -10.049  11.664  0.00  0.00    +0.068 C 
BRANCH   5  17
ATOM      1 CL   UNL     1      -4.895 -14.340  17.452  0.00  0.00    -0.083 Cl
ATOM     17  C   UNL     1      -4.356 -11.001  15.329  0.00  0.00    +0.067 A 
ATOM     20  C   UNL     1      -4.439 -12.341  15.711  0.00  0.00    +0.048 A 
ATOM     21  C   UNL     1      -4.636  -9.995  16.253  0.00  0.00    +0.028 A 
ATOM     22  C   UNL     1      -4.801 -12.673  17.015  0.00  0.00    +0.046 A 
ATOM     23  C   UNL     1      -4.998 -10.327  17.559  0.00  0.00    +0.007 A 
ATOM     24  C   UNL     1      -5.081 -11.666  17.940  0.00  0.00    -0.032 A 
ATOM     25  C   UNL     1      -5.471 -11.981  19.348  0.00  0.00    +0.045 C 
ENDBRANCH   5  17
ENDBRANCH   7  10
BRANCH   9   4
ATOM      2  O   UNL     1      -8.263  -8.899   6.937  0.00  0.00    -0.272 OA
ATOM      4  N   UNL     1      -6.263  -9.756   7.760  0.00  0.00    -0.306 N 
ATOM     18  C   UNL     1      -7.162  -9.412   6.757  0.00  0.00    +0.251 C 
ATOM     32  H   UNL     1      -5.393 -10.212   7.494  0.00  0.00    +0.149 HD
BRANCH  18  19
ATOM     19  C   UNL     1      -6.627  -9.742   5.379  0.00  0.00    +0.324 C 
BRANCH  19   3
ATOM      3  O   UNL     1      -6.644 -11.137   5.160  0.00  0.00    -0.483 OA
BRANCH   3  26
ATOM     26  C   UNL     1      -5.491 -11.710   4.677  0.00  0.00    +0.121 A 
ATOM     27  C   UNL     1      -4.358 -11.788   5.488  0.00  0.00    +0.045 A 
ATOM     28  C   UNL     1      -5.454 -12.213   3.377  0.00  0.00    +0.045 A 
ATOM     29  C   UNL     1      -3.189 -12.370   4.998  0.00  0.00    +0.004 A 
ATOM     30  C   UNL     1      -4.285 -12.793   2.887  0.00  0.00    +0.004 A 
ATOM     31  C   UNL     1      -3.152 -12.872   3.697  0.00  0.00    +0.000 A 
ENDBRANCH   3  26
ENDBRANCH  19   3
ENDBRANCH  18  19
ENDBRANCH   9   4
TORSDOF 6
ENDMDL
MODEL 7
REMARK VINA RESULT:      -6.6     29.808     32.836
REMARK  Name = 26743419
REMARK  9 active torsions:
REMARK  status: ('A' for Active; 'I' for Inactive)
REMARK    1  A    between atoms: O_3  and  C_19
REMARK    2  A    between atoms: O_3  and  C_26
REMARK    3  A    between atoms: N_4  and  C_9
REMARK    4  A    between atoms: N_5  and  C_17
REMARK    5  A    between atoms: C_7  and  C_10
REMARK    6  A    between atoms: C_13  and  C_15
REMARK    7  A    between atoms: C_14  and  C_16
REMARK    8  A    between atoms: C_18  and  C_19
REMARK    9  A    between atoms: C_24  and  C_25
REMARK                            x       y       z     vdW  Elec       q    Type
REMARK                         _______ _______ _______ _____ _____    ______ ____
ROOT
ATOM      7  C   UNL     1      -5.264 -10.366  10.756  0.00  0.00    +0.047 C 
ATOM      8  C   UNL     1      -4.774  -9.120   9.990  0.00  0.00    +0.039 C 
ATOM      9  C   UNL     1      -4.628  -9.557   8.528  0.00  0.00    +0.097 C 
ATOM     11  C   UNL     1      -4.845 -11.487   9.850  0.00  0.00    -0.021 C 
ATOM     12  C   UNL     1      -4.502 -11.041   8.636  0.00  0.00    -0.009 C 
ENDROOT
BRANCH   7  10
ATOM      5  N   UNL     1      -4.507 -10.625  14.331  0.00  0.00    -0.236 N 
ATOM      6  N   UNL     1      -3.238 -10.521  13.900  0.00  0.00    -0.171 NA
ATOM     10  C   UNL     1      -4.722 -10.455  12.164  0.00  0.00    +0.003 A 
ATOM     13  C   UNL     1      -5.434 -10.591  13.330  0.00  0.00    +0.046 A 
ATOM     14  C   UNL     1      -3.376 -10.417  12.575  0.00  0.00    +0.064 A 
ATOM     15  C   UNL     1      -6.888 -10.690  13.569  0.00  0.00    +0.066 C 
ATOM     16  C   UNL     1      -2.176 -10.283  11.730  0.00  0.00    +0.068 C 
BRANCH   5  17
ATOM      1 CL   UNL     1      -7.685  -9.740  18.225  0.00  0.00    -0.083 Cl
ATOM     17  C   UNL     1      -4.766 -10.752  15.696  0.00  0.00    +0.067 A 
ATOM     20  C   UNL     1      -5.952 -10.250  16.232  0.00  0.00    +0.048 A 
ATOM     21  C   UNL     1      -3.837 -11.381  16.525  0.00  0.00    +0.028 A 
ATOM     22  C   UNL     1      -6.209 -10.375  17.596  0.00  0.00    +0.046 A 
ATOM     23  C   UNL     1      -4.095 -11.507  17.890  0.00  0.00    +0.007 A 
ATOM     24  C   UNL     1      -5.280 -11.004  18.426  0.00  0.00    -0.032 A 
ATOM     25  C   UNL     1      -5.519 -11.160  19.893  0.00  0.00    +0.045 C 
ENDBRANCH   5  17
ENDBRANCH   7  10
BRANCH   9   4
ATOM      2  O   UNL     1      -5.296 -10.606   5.916  0.00  0.00    -0.272 OA
ATOM      4  N   UNL     1      -5.783  -9.238   7.733  0.00  0.00    -0.306 N 
ATOM     18  C   UNL     1      -6.022  -9.794   6.482  0.00  0.00    +0.251 C 
ATOM     32  H   UNL     1      -6.438  -8.544   8.087  0.00  0.00    +0.149 HD
BRANCH  18  19
ATOM     19  C   UNL     1      -7.310  -9.282   5.871  0.00  0.00    +0.324 C 
BRANCH  19   3
ATOM      3  O   UNL     1      -7.333  -7.870   5.870  0.00  0.00    -0.483 OA
BRANCH   3  26
ATOM     26  C   UNL     1      -8.398  -7.260   6.490  0.00  0.00    +0.121 A 
ATOM     27  C   UNL     1      -9.685  -7.405   5.970  0.00  0.00    +0.045 A 
ATOM     28  C   UNL     1      -8.193  -6.497   7.639  0.00  0.00    +0.045 A 
ATOM     29  C   UNL     1     -10.766  -6.787   6.599  0.00  0.00    +0.004 A 
ATOM     30  C   UNL     1      -9.273  -5.878   8.268  0.00  0.00    +0.004 A 
ATOM     31  C   UNL     1     -10.560  -6.023   7.748  0.00  0.00    +0.000 A 
ENDBRANCH   3  26
ENDBRANCH  19   3
ENDBRANCH  18  19
ENDBRANCH   9   4
TORSDOF 6
ENDMDL
MODEL 8
REMARK VINA RESULT:      -6.3     24.450     28.823
REMARK  Name = 26743419
REMARK  9 active torsions:
REMARK  status: ('A' for Active; 'I' for Inactive)
REMARK    1  A    between atoms: O_3  and  C_19
REMARK    2  A    between atoms: O_3  and  C_26
REMARK    3  A    between atoms: N_4  and  C_9
REMARK    4  A    between atoms: N_5  and  C_17
REMARK    5  A    between atoms: C_7  and  C_10
REMARK    6  A    between atoms: C_13  and  C_15
REMARK    7  A    between atoms: C_14  and  C_16
REMARK    8  A    between atoms: C_18  and  C_19
REMARK    9  A    between atoms: C_24  and  C_25
REMARK                            x       y       z     vdW  Elec       q    Type
REMARK                         _______ _______ _______ _____ _____    ______ ____
ROOT
ATOM      7  C   UNL     1       8.512   5.226  -4.917  0.00  0.00    +0.047 C 
ATOM      8  C   UNL     1       7.507   5.562  -3.796  0.00  0.00    +0.039 C 
ATOM      9  C   UNL     1       6.829   6.871  -4.218  0.00  0.00    +0.097 C 
ATOM     11  C   UNL     1       8.729   6.562  -5.567  0.00  0.00    -0.021 C 
ATOM     12  C   UNL     1       7.807   7.454  -5.185  0.00  0.00    -0.009 C 
ENDROOT
BRANCH   7  10
ATOM      5  N   UNL     1      11.575   4.036  -3.298  0.00  0.00    -0.236 N 
ATOM      6  N   UNL     1      11.492   3.068  -4.228  0.00  0.00    -0.171 NA
ATOM     10  C   UNL     1       9.770   4.558  -4.412  0.00  0.00    +0.003 A 
ATOM     13  C   UNL     1      10.567   4.952  -3.365  0.00  0.00    +0.046 A 
ATOM     14  C   UNL     1      10.388   3.393  -4.905  0.00  0.00    +0.064 A 
ATOM     15  C   UNL     1      10.453   6.101  -2.443  0.00  0.00    +0.066 C 
ATOM     16  C   UNL     1       9.954   2.548  -6.032  0.00  0.00    +0.068 C 
BRANCH   5  17
ATOM      1 CL   UNL     1      13.182   2.993   1.433  0.00  0.00    -0.083 Cl
ATOM     17  C   UNL     1      12.629   4.029  -2.384  0.00  0.00    +0.067 A 
ATOM     20  C   UNL     1      12.422   3.570  -1.082  0.00  0.00    +0.048 A 
ATOM     21  C   UNL     1      13.889   4.482  -2.770  0.00  0.00    +0.028 A 
ATOM     22  C   UNL     1      13.474   3.565  -0.169  0.00  0.00    +0.046 A 
ATOM     23  C   UNL     1      14.943   4.477  -1.856  0.00  0.00    +0.007 A 
ATOM     24  C   UNL     1      14.736   4.019  -0.555  0.00  0.00    -0.032 A 
ATOM     25  C   UNL     1      15.890   4.029   0.393  0.00  0.00    +0.045 C 
ENDBRANCH   5  17
ENDBRANCH   7  10
BRANCH   9   4
ATOM      2  O   UNL     1       4.245   6.444  -2.990  0.00  0.00    -0.272 OA
ATOM      4  N   UNL     1       5.575   6.658  -4.887  0.00  0.00    -0.306 N 
ATOM     18  C   UNL     1       4.377   6.459  -4.210  0.00  0.00    +0.251 C 
ATOM     32  H   UNL     1       5.569   6.612  -5.904  0.00  0.00    +0.149 HD
BRANCH  18  19
ATOM     19  C   UNL     1       3.215   6.261  -5.162  0.00  0.00    +0.324 C 
BRANCH  19   3
ATOM      3  O   UNL     1       2.119   5.673  -4.493  0.00  0.00    -0.483 OA
BRANCH   3  26
ATOM     26  C   UNL     1       1.869   4.345  -4.746  0.00  0.00    +0.121 A 
ATOM     27  C   UNL     1       2.794   3.586  -5.466  0.00  0.00    +0.045 A 
ATOM     28  C   UNL     1       0.693   3.756  -4.285  0.00  0.00    +0.045 A 
ATOM     29  C   UNL     1       2.540   2.238  -5.722  0.00  0.00    +0.004 A 
ATOM     30  C   UNL     1       0.439   2.409  -4.542  0.00  0.00    +0.004 A 
ATOM     31  C   UNL     1       1.362   1.650  -5.260  0.00  0.00    +0.000 A 
ENDBRANCH   3  26
ENDBRANCH  19   3
ENDBRANCH  18  19
ENDBRANCH   9   4
TORSDOF 6
ENDMDL
MODEL 9
REMARK VINA RESULT:      -6.3     30.696     36.120
REMARK  Name = 26743419
REMARK  9 active torsions:
REMARK  status: ('A' for Active; 'I' for Inactive)
REMARK    1  A    between atoms: O_3  and  C_19
REMARK    2  A    between atoms: O_3  and  C_26
REMARK    3  A    between atoms: N_4  and  C_9
REMARK    4  A    between atoms: N_5  and  C_17
REMARK    5  A    between atoms: C_7  and  C_10
REMARK    6  A    between atoms: C_13  and  C_15
REMARK    7  A    between atoms: C_14  and  C_16
REMARK    8  A    between atoms: C_18  and  C_19
REMARK    9  A    between atoms: C_24  and  C_25
REMARK                            x       y       z     vdW  Elec       q    Type
REMARK                         _______ _______ _______ _____ _____    ______ ____
ROOT
ATOM      7  C   UNL     1      -8.336  -8.826   5.909  0.00  0.00    +0.047 C 
ATOM      8  C   UNL     1      -7.489  -8.533   4.653  0.00  0.00    +0.039 C 
ATOM      9  C   UNL     1      -8.011  -9.480   3.565  0.00  0.00    +0.097 C 
ATOM     11  C   UNL     1      -8.851 -10.210   5.635  0.00  0.00    -0.021 C 
ATOM     12  C   UNL     1      -8.675 -10.560   4.356  0.00  0.00    -0.009 C 
ENDROOT
BRANCH   7  10
ATOM      5  N   UNL     1      -6.146  -8.940   8.844  0.00  0.00    -0.236 N 
ATOM      6  N   UNL     1      -6.891  -7.891   9.234  0.00  0.00    -0.171 NA
ATOM     10  C   UNL     1      -7.560  -8.685   7.199  0.00  0.00    +0.003 A 
ATOM     13  C   UNL     1      -6.506  -9.451   7.632  0.00  0.00    +0.046 A 
ATOM     14  C   UNL     1      -7.754  -7.740   8.224  0.00  0.00    +0.064 A 
ATOM     15  C   UNL     1      -5.826 -10.603   7.004  0.00  0.00    +0.066 C 
ATOM     16  C   UNL     1      -8.758  -6.664   8.284  0.00  0.00    +0.068 C 
BRANCH   5  17
ATOM      1 CL   UNL     1      -4.711 -12.002  12.667  0.00  0.00    -0.083 Cl
ATOM     17  C   UNL     1      -5.116  -9.399   9.665  0.00  0.00    +0.067 A 
ATOM     20  C   UNL     1      -5.379 -10.359  10.643  0.00  0.00    +0.048 A 
ATOM     21  C   UNL     1      -3.824  -8.898   9.509  0.00  0.00    +0.028 A 
ATOM     22  C   UNL     1      -4.350 -10.816  11.465  0.00  0.00    +0.046 A 
ATOM     23  C   UNL     1      -2.795  -9.357  10.331  0.00  0.00    +0.007 A 
ATOM     24  C   UNL     1      -3.057 -10.315  11.310  0.00  0.00    -0.032 A 
ATOM     25  C   UNL     1      -1.927 -10.781  12.169  0.00  0.00    +0.045 C 
ENDBRANCH   5  17
ENDBRANCH   7  10
BRANCH   9   4
ATOM      2  O   UNL     1      -7.527  -8.213   1.010  0.00  0.00    -0.272 OA
ATOM      4  N   UNL     1      -8.982  -8.859   2.706  0.00  0.00    -0.306 N 
ATOM     18  C   UNL     1      -8.655  -8.272   1.489  0.00  0.00    +0.251 C 
ATOM     32  H   UNL     1      -9.949  -8.815   3.021  0.00  0.00    +0.149 HD
BRANCH  18  19
ATOM     19  C   UNL     1      -9.871  -7.696   0.794  0.00  0.00    +0.324 C 
BRANCH  19   3
ATOM      3  O   UNL     1     -10.408  -8.627  -0.122  0.00  0.00    -0.483 OA
BRANCH   3  26
ATOM     26  C   UNL     1     -10.316  -8.318  -1.458  0.00  0.00    +0.121 A 
ATOM     27  C   UNL     1      -9.299  -8.877  -2.234  0.00  0.00    +0.045 A 
ATOM     28  C   UNL     1     -11.237  -7.447  -2.038  0.00  0.00    +0.045 A 
ATOM     29  C   UNL     1      -9.206  -8.564  -3.590  0.00  0.00    +0.004 A 
ATOM     30  C   UNL     1     -11.143  -7.133  -3.393  0.00  0.00    +0.004 A 
ATOM     31  C   UNL     1     -10.127  -7.692  -4.170  0.00  0.00    +0.000 A 
ENDBRANCH   3  26
ENDBRANCH  19   3
ENDBRANCH  18  19
ENDBRANCH   9   4
TORSDOF 6
ENDMDL
MODEL 10
REMARK VINA RESULT:      -6.3     30.181     32.983
REMARK  Name = 26743419
REMARK  9 active torsions:
REMARK  status: ('A' for Active; 'I' for Inactive)
REMARK    1  A    between atoms: O_3  and  C_19
REMARK    2  A    between atoms: O_3  and  C_26
REMARK    3  A    between atoms: N_4  and  C_9
REMARK    4  A    between atoms: N_5  and  C_17
REMARK    5  A    between atoms: C_7  and  C_10
REMARK    6  A    between atoms: C_13  and  C_15
REMARK    7  A    between atoms: C_14  and  C_16
REMARK    8  A    between atoms: C_18  and  C_19
REMARK    9  A    between atoms: C_24  and  C_25
REMARK                            x       y       z     vdW  Elec       q    Type
REMARK                         _______ _______ _______ _____ _____    ______ ____
ROOT
ATOM      7  C   UNL     1      -5.665  -9.496   9.837  0.00  0.00    +0.047 C 
ATOM      8  C   UNL     1      -5.023 -10.880  10.063  0.00  0.00    +0.039 C 
ATOM      9  C   UNL     1      -3.592 -10.605  10.542  0.00  0.00    +0.097 C 
ATOM     11  C   UNL     1      -4.467  -8.608   9.666  0.00  0.00    -0.021 C 
ATOM     12  C   UNL     1      -3.341  -9.216  10.055  0.00  0.00    -0.009 C 
ENDROOT
BRANCH   7  10
ATOM      5  N   UNL     1      -7.589  -9.657   6.723  0.00  0.00    -0.236 N 
ATOM      6  N   UNL     1      -8.566  -9.151   7.495  0.00  0.00    -0.171 NA
ATOM     10  C   UNL     1      -6.640  -9.472   8.682  0.00  0.00    +0.003 A 
ATOM     13  C   UNL     1      -6.415  -9.868   7.386  0.00  0.00    +0.046 A 
ATOM     14  C   UNL     1      -7.980  -9.040   8.691  0.00  0.00    +0.064 A 
ATOM     15  C   UNL     1      -5.207 -10.418   6.739  0.00  0.00    +0.066 C 
ATOM     16  C   UNL     1      -8.751  -8.510   9.829  0.00  0.00    +0.068 C 
BRANCH   5  17
ATOM      1 CL   UNL     1      -7.847  -7.846   1.958  0.00  0.00    -0.083 Cl
ATOM     17  C   UNL     1      -7.836  -9.914   5.374  0.00  0.00    +0.067 A 
ATOM     20  C   UNL     1      -7.732  -8.885   4.437  0.00  0.00    +0.048 A 
ATOM     21  C   UNL     1      -8.190 -11.199   4.963  0.00  0.00    +0.028 A 
ATOM     22  C   UNL     1      -7.982  -9.142   3.090  0.00  0.00    +0.046 A 
ATOM     23  C   UNL     1      -8.439 -11.456   3.615  0.00  0.00    +0.007 A 
ATOM     24  C   UNL     1      -8.336 -10.428   2.678  0.00  0.00    -0.032 A 
ATOM     25  C   UNL     1      -8.610 -10.744   1.244  0.00  0.00    +0.045 C 
ENDBRANCH   5  17
ENDBRANCH   7  10
BRANCH   9   4
ATOM      2  O   UNL     1      -2.485 -12.730  12.163  0.00  0.00    -0.272 OA
ATOM      4  N   UNL     1      -3.471 -10.632  11.975  0.00  0.00    -0.306 N 
ATOM     18  C   UNL     1      -2.922 -11.703  12.671  0.00  0.00    +0.251 C 
ATOM     32  H   UNL     1      -3.837  -9.845  12.507  0.00  0.00    +0.149 HD
BRANCH  18  19
ATOM     19  C   UNL     1      -2.918 -11.463  14.167  0.00  0.00    +0.324 C 
BRANCH  19   3
ATOM      3  O   UNL     1      -3.872 -10.482  14.516  0.00  0.00    -0.483 OA
BRANCH   3  26
ATOM     26  C   UNL     1      -4.434 -10.571  15.768  0.00  0.00    +0.121 A 
ATOM     27  C   UNL     1      -3.747 -11.219  16.796  0.00  0.00    +0.045 A 
ATOM     28  C   UNL     1      -5.689 -10.014  16.011  0.00  0.00    +0.045 A 
ATOM     29  C   UNL     1      -4.317 -11.309  18.066  0.00  0.00    +0.004 A 
ATOM     30  C   UNL     1      -6.258 -10.105  17.280  0.00  0.00    +0.004 A 
ATOM     31  C   UNL     1      -5.572 -10.752  18.308  0.00  0.00    +0.000 A 
ENDBRANCH   3  26
ENDBRANCH  19   3
ENDBRANCH  18  19
ENDBRANCH   9   4
TORSDOF 6
ENDMDL
