MODEL 1
REMARK VINA RESULT:      -7.8      0.000      0.000
REMARK  Name = 25390800
REMARK  5 active torsions:
REMARK  status: ('A' for Active; 'I' for Inactive)
REMARK    1  A    between atoms: N_5  and  C_11
REMARK    2  A    between atoms: N_6  and  C_12
REMARK    3  A    between atoms: C_16  and  C_17
REMARK    4  A    between atoms: C_18  and  C_22
REMARK    5  A    between atoms: C_27  and  C_30
REMARK                            x       y       z     vdW  Elec       q    Type
REMARK                         _______ _______ _______ _____ _____    ______ ____
ROOT
ATOM      5  N   UNL     1       7.657   6.110  -4.284  0.00  0.00    -0.306 N 
ATOM      7  N   UNL     1       5.460   5.455  -4.652  0.00  0.00    -0.214 NA
ATOM      8  N   UNL     1       5.992   7.682  -3.900  0.00  0.00    -0.223 NA
ATOM     15  C   UNL     1       6.311   6.430  -4.280  0.00  0.00    +0.216 A 
ATOM     18  C   UNL     1       4.156   5.800  -4.632  0.00  0.00    +0.076 A 
ATOM     20  C   UNL     1       4.671   7.958  -3.903  0.00  0.00    +0.116 A 
ATOM     21  C   UNL     1       3.699   7.049  -4.263  0.00  0.00    +0.048 A 
ATOM     36  H   UNL     1       8.299   6.822  -3.954  0.00  0.00    +0.149 HD
ENDROOT
BRANCH   5  11
ATOM      1  O   UNL     1      10.443   5.174  -5.256  0.00  0.00    -0.370 OA
ATOM      2  O   UNL     1       9.134   2.828  -3.669  0.00  0.00    -0.370 OA
ATOM      9  C   UNL     1       9.044   4.258  -3.563  0.00  0.00    +0.171 C 
ATOM     10  C   UNL     1      10.421   4.819  -3.864  0.00  0.00    +0.171 C 
ATOM     11  C   UNL     1       8.171   4.812  -4.664  0.00  0.00    +0.130 C 
ATOM     12  C   UNL     1      11.355   3.660  -3.601  0.00  0.00    +0.130 C 
ATOM     13  C   UNL     1       9.143   4.950  -5.822  0.00  0.00    +0.185 C 
ATOM     14  C   UNL     1      10.492   2.461  -3.953  0.00  0.00    +0.185 C 
BRANCH  12   6
ATOM      3  O   UNL     1      14.029   3.953  -2.596  0.00  0.00    -0.267 OA
ATOM      6  N   UNL     1      11.765   3.623  -2.218  0.00  0.00    -0.301 N 
ATOM     16  C   UNL     1      13.087   3.775  -1.828  0.00  0.00    +0.280 C 
ATOM     37  H   UNL     1      11.063   3.431  -1.508  0.00  0.00    +0.150 HD
BRANCH  16  17
ATOM      4  O   UNL     1      12.288   3.480   0.456  0.00  0.00    -0.458 OA
ATOM     17  C   UNL     1      13.349   3.685  -0.368  0.00  0.00    +0.189 A 
ATOM     19  C   UNL     1      14.516   3.771   0.356  0.00  0.00    +0.054 A 
ATOM     23  C   UNL     1      14.148   3.608   1.713  0.00  0.00    +0.042 A 
ATOM     24  C   UNL     1      12.783   3.435   1.721  0.00  0.00    +0.196 A 
ENDBRANCH  16  17
ENDBRANCH  12   6
ENDBRANCH   5  11
BRANCH  18  22
ATOM     22  C   UNL     1       3.240   4.758  -5.030  0.00  0.00    +0.001 A 
ATOM     25  C   UNL     1       3.511   3.984  -6.159  0.00  0.00    +0.010 A 
ATOM     26  C   UNL     1       2.083   4.525  -4.287  0.00  0.00    +0.010 A 
ATOM     27  C   UNL     1       1.466   2.747  -5.802  0.00  0.00    -0.018 A 
ATOM     28  C   UNL     1       2.624   2.979  -6.544  0.00  0.00    +0.009 A 
ATOM     29  C   UNL     1       1.196   3.520  -4.673  0.00  0.00    +0.009 A 
BRANCH  27  30
ATOM     30  C   UNL     1       0.546   1.704  -6.202  0.00  0.00    -0.018 A 
ATOM     31  C   UNL     1       0.382   0.575  -5.402  0.00  0.00    +0.008 A 
ATOM     32  C   UNL     1      -0.176   1.830  -7.388  0.00  0.00    +0.008 A 
ATOM     33  C   UNL     1      -0.506  -0.430  -5.786  0.00  0.00    +0.001 A 
ATOM     34  C   UNL     1      -1.064   0.826  -7.774  0.00  0.00    +0.001 A 
ATOM     35  C   UNL     1      -1.230  -0.304  -6.973  0.00  0.00    +0.000 A 
ENDBRANCH  27  30
ENDBRANCH  18  22
TORSDOF 5
ENDMDL
MODEL 2
REMARK VINA RESULT:      -7.8     34.113     36.519
REMARK  Name = 25390800
REMARK  5 active torsions:
REMARK  status: ('A' for Active; 'I' for Inactive)
REMARK    1  A    between atoms: N_5  and  C_11
REMARK    2  A    between atoms: N_6  and  C_12
REMARK    3  A    between atoms: C_16  and  C_17
REMARK    4  A    between atoms: C_18  and  C_22
REMARK    5  A    between atoms: C_27  and  C_30
REMARK                            x       y       z     vdW  Elec       q    Type
REMARK                         _______ _______ _______ _____ _____    ______ ____
ROOT
ATOM      5  N   UNL     1     -16.342   4.328  22.359  0.00  0.00    -0.306 N 
ATOM      7  N   UNL     1     -16.450   3.225  24.400  0.00  0.00    -0.214 NA
ATOM      8  N   UNL     1     -17.434   2.280  22.413  0.00  0.00    -0.223 NA
ATOM     15  C   UNL     1     -16.759   3.229  23.089  0.00  0.00    +0.216 A 
ATOM     18  C   UNL     1     -16.875   2.142  25.081  0.00  0.00    +0.076 A 
ATOM     20  C   UNL     1     -17.829   1.225  23.156  0.00  0.00    +0.116 A 
ATOM     21  C   UNL     1     -17.576   1.101  24.506  0.00  0.00    +0.048 A 
ATOM     36  H   UNL     1     -16.617   4.363  21.384  0.00  0.00    +0.149 HD
ENDROOT
BRANCH   5  11
ATOM      1  O   UNL     1     -13.338   5.075  22.321  0.00  0.00    -0.370 OA
ATOM      2  O   UNL     1     -14.992   7.720  22.418  0.00  0.00    -0.370 OA
ATOM      9  C   UNL     1     -15.240   6.425  21.847  0.00  0.00    +0.171 C 
ATOM     10  C   UNL     1     -13.919   5.910  21.307  0.00  0.00    +0.171 C 
ATOM     11  C   UNL     1     -15.607   5.436  22.928  0.00  0.00    +0.130 C 
ATOM     12  C   UNL     1     -13.090   7.160  21.114  0.00  0.00    +0.130 C 
ATOM     13  C   UNL     1     -14.250   4.967  23.424  0.00  0.00    +0.185 C 
ATOM     14  C   UNL     1     -13.616   8.070  22.209  0.00  0.00    +0.185 C 
BRANCH  12   6
ATOM      3  O   UNL     1     -11.225   7.200  18.931  0.00  0.00    -0.267 OA
ATOM      6  N   UNL     1     -13.305   7.733  19.807  0.00  0.00    -0.301 N 
ATOM     16  C   UNL     1     -12.339   7.704  18.812  0.00  0.00    +0.280 C 
ATOM     37  H   UNL     1     -14.180   8.218  19.628  0.00  0.00    +0.150 HD
BRANCH  16  17
ATOM      4  O   UNL     1     -11.736   9.048  16.870  0.00  0.00    -0.458 OA
ATOM     17  C   UNL     1     -12.705   8.361  17.532  0.00  0.00    +0.189 A 
ATOM     19  C   UNL     1     -13.894   8.417  16.842  0.00  0.00    +0.054 A 
ATOM     23  C   UNL     1     -13.639   9.186  15.681  0.00  0.00    +0.042 A 
ATOM     24  C   UNL     1     -12.313   9.547  15.746  0.00  0.00    +0.196 A 
ENDBRANCH  16  17
ENDBRANCH  12   6
ENDBRANCH   5  11
BRANCH  18  22
ATOM     22  C   UNL     1     -16.546   2.133  26.487  0.00  0.00    +0.001 A 
ATOM     25  C   UNL     1     -16.082   3.296  27.101  0.00  0.00    +0.010 A 
ATOM     26  C   UNL     1     -16.692   0.962  27.229  0.00  0.00    +0.010 A 
ATOM     27  C   UNL     1     -15.906   2.116  29.202  0.00  0.00    -0.018 A 
ATOM     28  C   UNL     1     -15.762   3.287  28.459  0.00  0.00    +0.009 A 
ATOM     29  C   UNL     1     -16.372   0.953  28.587  0.00  0.00    +0.009 A 
BRANCH  27  30
ATOM     30  C   UNL     1     -15.574   2.106  30.610  0.00  0.00    -0.018 A 
ATOM     31  C   UNL     1     -14.957   0.990  31.173  0.00  0.00    +0.008 A 
ATOM     32  C   UNL     1     -15.871   3.214  31.404  0.00  0.00    +0.008 A 
ATOM     33  C   UNL     1     -14.636   0.980  32.531  0.00  0.00    +0.001 A 
ATOM     34  C   UNL     1     -15.550   3.205  32.762  0.00  0.00    +0.001 A 
ATOM     35  C   UNL     1     -14.932   2.089  33.325  0.00  0.00    +0.000 A 
ENDBRANCH  27  30
ENDBRANCH  18  22
TORSDOF 5
ENDMDL
MODEL 3
REMARK VINA RESULT:      -7.6     24.223     27.427
REMARK  Name = 25390800
REMARK  5 active torsions:
REMARK  status: ('A' for Active; 'I' for Inactive)
REMARK    1  A    between atoms: N_5  and  C_11
REMARK    2  A    between atoms: N_6  and  C_12
REMARK    3  A    between atoms: C_16  and  C_17
REMARK    4  A    between atoms: C_18  and  C_22
REMARK    5  A    between atoms: C_27  and  C_30
REMARK                            x       y       z     vdW  Elec       q    Type
REMARK                         _______ _______ _______ _____ _____    ______ ____
ROOT
ATOM      5  N   UNL     1      -3.622 -11.790  16.732  0.00  0.00    -0.306 N 
ATOM      7  N   UNL     1      -3.332 -11.287  14.483  0.00  0.00    -0.214 NA
ATOM      8  N   UNL     1      -1.798 -10.474  16.155  0.00  0.00    -0.223 NA
ATOM     15  C   UNL     1      -2.884 -11.157  15.747  0.00  0.00    +0.216 A 
ATOM     18  C   UNL     1      -2.592 -10.654  13.550  0.00  0.00    +0.076 A 
ATOM     20  C   UNL     1      -1.105  -9.866  15.170  0.00  0.00    +0.116 A 
ATOM     21  C   UNL     1      -1.458  -9.922  13.838  0.00  0.00    +0.048 A 
ATOM     36  H   UNL     1      -3.322 -11.652  17.690  0.00  0.00    +0.149 HD
ENDROOT
BRANCH   5  11
ATOM      1  O   UNL     1      -6.105 -12.450  18.458  0.00  0.00    -0.370 OA
ATOM      2  O   UNL     1      -7.008 -12.320  15.474  0.00  0.00    -0.370 OA
ATOM      9  C   UNL     1      -5.987 -11.642  16.224  0.00  0.00    +0.171 C 
ATOM     10  C   UNL     1      -6.545 -11.378  17.609  0.00  0.00    +0.171 C 
ATOM     11  C   UNL     1      -4.815 -12.564  16.466  0.00  0.00    +0.130 C 
ATOM     12  C   UNL     1      -8.043 -11.438  17.419  0.00  0.00    +0.130 C 
ATOM     13  C   UNL     1      -5.240 -13.320  17.713  0.00  0.00    +0.185 C 
ATOM     14  C   UNL     1      -8.187 -12.437  16.285  0.00  0.00    +0.185 C 
BRANCH  12   6
ATOM      3  O   UNL     1     -10.773 -10.578  17.648  0.00  0.00    -0.267 OA
ATOM      6  N   UNL     1      -8.574 -10.147  17.051  0.00  0.00    -0.301 N 
ATOM     16  C   UNL     1      -9.915  -9.823  17.200  0.00  0.00    +0.280 C 
ATOM     37  H   UNL     1      -7.950  -9.469  16.623  0.00  0.00    +0.150 HD
BRANCH  16  17
ATOM      4  O   UNL     1      -9.516  -7.842  15.836  0.00  0.00    -0.458 OA
ATOM     17  C   UNL     1     -10.308  -8.463  16.749  0.00  0.00    +0.189 A 
ATOM     19  C   UNL     1     -11.375  -7.663  17.089  0.00  0.00    +0.054 A 
ATOM     23  C   UNL     1     -11.228  -6.473  16.336  0.00  0.00    +0.042 A 
ATOM     24  C   UNL     1     -10.083  -6.632  15.590  0.00  0.00    +0.196 A 
ENDBRANCH  16  17
ENDBRANCH  12   6
ENDBRANCH   5  11
BRANCH  18  22
ATOM     22  C   UNL     1      -3.068 -10.790  12.194  0.00  0.00    +0.001 A 
ATOM     25  C   UNL     1      -3.396 -12.050  11.693  0.00  0.00    +0.010 A 
ATOM     26  C   UNL     1      -3.198  -9.663  11.385  0.00  0.00    +0.010 A 
ATOM     27  C   UNL     1      -3.983 -11.053   9.572  0.00  0.00    -0.018 A 
ATOM     28  C   UNL     1      -3.854 -12.182  10.382  0.00  0.00    +0.009 A 
ATOM     29  C   UNL     1      -3.656  -9.794  10.073  0.00  0.00    +0.009 A 
BRANCH  27  30
ATOM     30  C   UNL     1      -4.458 -11.190   8.212  0.00  0.00    -0.018 A 
ATOM     31  C   UNL     1      -5.205 -10.167   7.628  0.00  0.00    +0.008 A 
ATOM     32  C   UNL     1      -4.167 -12.344   7.485  0.00  0.00    +0.008 A 
ATOM     33  C   UNL     1      -5.662 -10.298   6.316  0.00  0.00    +0.001 A 
ATOM     34  C   UNL     1      -4.623 -12.475   6.172  0.00  0.00    +0.001 A 
ATOM     35  C   UNL     1      -5.370 -11.452   5.588  0.00  0.00    +0.000 A 
ENDBRANCH  27  30
ENDBRANCH  18  22
TORSDOF 5
ENDMDL
MODEL 4
REMARK VINA RESULT:      -7.5     27.236     30.388
REMARK  Name = 25390800
REMARK  5 active torsions:
REMARK  status: ('A' for Active; 'I' for Inactive)
REMARK    1  A    between atoms: N_5  and  C_11
REMARK    2  A    between atoms: N_6  and  C_12
REMARK    3  A    between atoms: C_16  and  C_17
REMARK    4  A    between atoms: C_18  and  C_22
REMARK    5  A    between atoms: C_27  and  C_30
REMARK                            x       y       z     vdW  Elec       q    Type
REMARK                         _______ _______ _______ _____ _____    ______ ____
ROOT
ATOM      5  N   UNL     1      10.906  10.769  22.370  0.00  0.00    -0.306 N 
ATOM      7  N   UNL     1      12.723   9.380  21.965  0.00  0.00    -0.214 NA
ATOM      8  N   UNL     1      10.478   8.507  22.060  0.00  0.00    -0.223 NA
ATOM     15  C   UNL     1      11.390   9.497  22.119  0.00  0.00    +0.216 A 
ATOM     18  C   UNL     1      13.160   8.127  21.726  0.00  0.00    +0.076 A 
ATOM     20  C   UNL     1      10.985   7.280  21.818  0.00  0.00    +0.116 A 
ATOM     21  C   UNL     1      12.330   7.028  21.641  0.00  0.00    +0.048 A 
ATOM     36  H   UNL     1       9.910  10.855  22.540  0.00  0.00    +0.149 HD
ENDROOT
BRANCH   5  11
ATOM      1  O   UNL     1      10.887  13.195  24.291  0.00  0.00    -0.370 OA
ATOM      2  O   UNL     1      13.842  12.654  23.444  0.00  0.00    -0.370 OA
ATOM      9  C   UNL     1      12.699  11.802  23.630  0.00  0.00    +0.171 C 
ATOM     10  C   UNL     1      11.920  12.344  24.813  0.00  0.00    +0.171 C 
ATOM     11  C   UNL     1      11.747  11.941  22.465  0.00  0.00    +0.130 C 
ATOM     12  C   UNL     1      12.937  13.158  25.579  0.00  0.00    +0.130 C 
ATOM     13  C   UNL     1      10.918  13.152  22.857  0.00  0.00    +0.185 C 
ATOM     14  C   UNL     1      13.857  13.651  24.477  0.00  0.00    +0.185 C 
BRANCH  12   6
ATOM      3  O   UNL     1      14.964  14.036  27.415  0.00  0.00    -0.267 OA
ATOM      6  N   UNL     1      13.650  12.341  26.531  0.00  0.00    -0.301 N 
ATOM     16  C   UNL     1      14.618  12.858  27.380  0.00  0.00    +0.280 C 
ATOM     37  H   UNL     1      13.470  11.341  26.544  0.00  0.00    +0.150 HD
BRANCH  16  17
ATOM      4  O   UNL     1      14.568  11.406  29.338  0.00  0.00    -0.458 OA
ATOM     17  C   UNL     1      15.280  11.881  28.282  0.00  0.00    +0.189 A 
ATOM     19  C   UNL     1      16.540  11.328  28.261  0.00  0.00    +0.054 A 
ATOM     23  C   UNL     1      16.605  10.457  29.375  0.00  0.00    +0.042 A 
ATOM     24  C   UNL     1      15.381  10.541  29.998  0.00  0.00    +0.196 A 
ENDBRANCH  16  17
ENDBRANCH  12   6
ENDBRANCH   5  11
BRANCH  18  22
ATOM     22  C   UNL     1      14.588   7.997  21.560  0.00  0.00    +0.001 A 
ATOM     25  C   UNL     1      15.135   6.780  21.153  0.00  0.00    +0.010 A 
ATOM     26  C   UNL     1      15.421   9.087  21.807  0.00  0.00    +0.010 A 
ATOM     27  C   UNL     1      17.349   7.745  21.243  0.00  0.00    -0.018 A 
ATOM     28  C   UNL     1      16.515   6.654  20.995  0.00  0.00    +0.009 A 
ATOM     29  C   UNL     1      16.801   8.961  21.649  0.00  0.00    +0.009 A 
BRANCH  27  30
ATOM     30  C   UNL     1      18.780   7.614  21.079  0.00  0.00    -0.018 A 
ATOM     31  C   UNL     1      19.611   8.709  21.313  0.00  0.00    +0.008 A 
ATOM     32  C   UNL     1      19.328   6.393  20.688  0.00  0.00    +0.008 A 
ATOM     33  C   UNL     1      20.992   8.583  21.156  0.00  0.00    +0.001 A 
ATOM     34  C   UNL     1      20.709   6.266  20.531  0.00  0.00    +0.001 A 
ATOM     35  C   UNL     1      21.541   7.361  20.766  0.00  0.00    +0.000 A 
ENDBRANCH  27  30
ENDBRANCH  18  22
TORSDOF 5
ENDMDL
MODEL 5
REMARK VINA RESULT:      -7.3     26.614     28.778
REMARK  Name = 25390800
REMARK  5 active torsions:
REMARK  status: ('A' for Active; 'I' for Inactive)
REMARK    1  A    between atoms: N_5  and  C_11
REMARK    2  A    between atoms: N_6  and  C_12
REMARK    3  A    between atoms: C_16  and  C_17
REMARK    4  A    between atoms: C_18  and  C_22
REMARK    5  A    between atoms: C_27  and  C_30
REMARK                            x       y       z     vdW  Elec       q    Type
REMARK                         _______ _______ _______ _____ _____    ______ ____
ROOT
ATOM      5  N   UNL     1      -6.934 -11.115  17.634  0.00  0.00    -0.306 N 
ATOM      7  N   UNL     1      -8.898  -9.906  17.353  0.00  0.00    -0.214 NA
ATOM      8  N   UNL     1      -8.511 -11.221  19.335  0.00  0.00    -0.223 NA
ATOM     15  C   UNL     1      -8.168 -10.729  18.130  0.00  0.00    +0.216 A 
ATOM     18  C   UNL     1     -10.095  -9.554  17.864  0.00  0.00    +0.076 A 
ATOM     20  C   UNL     1      -9.722 -10.829  19.786  0.00  0.00    +0.116 A 
ATOM     21  C   UNL     1     -10.564  -9.989  19.087  0.00  0.00    +0.048 A 
ATOM     36  H   UNL     1      -6.404 -11.776  18.189  0.00  0.00    +0.149 HD
ENDROOT
BRANCH   5  11
ATOM      1  O   UNL     1      -4.091 -10.317  16.709  0.00  0.00    -0.370 OA
ATOM      2  O   UNL     1      -5.577 -11.593  14.279  0.00  0.00    -0.370 OA
ATOM      9  C   UNL     1      -5.650 -11.803  15.699  0.00  0.00    +0.171 C 
ATOM     10  C   UNL     1      -4.242 -11.669  16.247  0.00  0.00    +0.171 C 
ATOM     11  C   UNL     1      -6.413 -10.679  16.358  0.00  0.00    +0.130 C 
ATOM     12  C   UNL     1      -3.356 -11.919  15.049  0.00  0.00    +0.130 C 
ATOM     13  C   UNL     1      -5.339  -9.624  16.561  0.00  0.00    +0.185 C 
ATOM     14  C   UNL     1      -4.205 -11.399  13.902  0.00  0.00    +0.185 C 
BRANCH  12   6
ATOM      3  O   UNL     1      -1.242 -13.079  13.490  0.00  0.00    -0.267 OA
ATOM      6  N   UNL     1      -3.071 -13.325  14.894  0.00  0.00    -0.301 N 
ATOM     16  C   UNL     1      -2.022 -13.792  14.116  0.00  0.00    +0.280 C 
ATOM     37  H   UNL     1      -3.692 -13.998  15.335  0.00  0.00    +0.150 HD
BRANCH  16  17
ATOM      4  O   UNL     1      -2.961 -16.030  14.344  0.00  0.00    -0.458 OA
ATOM     17  C   UNL     1      -1.877 -15.268  14.038  0.00  0.00    +0.189 A 
ATOM     19  C   UNL     1      -0.807 -16.064  13.698  0.00  0.00    +0.054 A 
ATOM     23  C   UNL     1      -1.263 -17.400  13.800  0.00  0.00    +0.042 A 
ATOM     24  C   UNL     1      -2.578 -17.325  14.197  0.00  0.00    +0.196 A 
ENDBRANCH  16  17
ENDBRANCH  12   6
ENDBRANCH   5  11
BRANCH  18  22
ATOM     22  C   UNL     1     -10.881  -8.671  17.036  0.00  0.00    +0.001 A 
ATOM     25  C   UNL     1     -10.529  -7.326  16.920  0.00  0.00    +0.010 A 
ATOM     26  C   UNL     1     -11.991  -9.163  16.351  0.00  0.00    +0.010 A 
ATOM     27  C   UNL     1     -12.402  -6.964  15.437  0.00  0.00    -0.018 A 
ATOM     28  C   UNL     1     -11.290  -6.473  16.121  0.00  0.00    +0.009 A 
ATOM     29  C   UNL     1     -12.753  -8.309  15.552  0.00  0.00    +0.009 A 
BRANCH  27  30
ATOM     30  C   UNL     1     -13.192  -6.079  14.608  0.00  0.00    -0.018 A 
ATOM     31  C   UNL     1     -14.554  -6.318  14.434  0.00  0.00    +0.008 A 
ATOM     32  C   UNL     1     -12.589  -4.987  13.984  0.00  0.00    +0.008 A 
ATOM     33  C   UNL     1     -15.316  -5.465  13.636  0.00  0.00    +0.001 A 
ATOM     34  C   UNL     1     -13.351  -4.133  13.186  0.00  0.00    +0.001 A 
ATOM     35  C   UNL     1     -14.714  -4.371  13.012  0.00  0.00    +0.000 A 
ENDBRANCH  27  30
ENDBRANCH  18  22
TORSDOF 5
ENDMDL
MODEL 6
REMARK VINA RESULT:      -7.3     10.534     12.275
REMARK  Name = 25390800
REMARK  5 active torsions:
REMARK  status: ('A' for Active; 'I' for Inactive)
REMARK    1  A    between atoms: N_5  and  C_11
REMARK    2  A    between atoms: N_6  and  C_12
REMARK    3  A    between atoms: C_16  and  C_17
REMARK    4  A    between atoms: C_18  and  C_22
REMARK    5  A    between atoms: C_27  and  C_30
REMARK                            x       y       z     vdW  Elec       q    Type
REMARK                         _______ _______ _______ _____ _____    ______ ____
ROOT
ATOM      5  N   UNL     1       3.792  13.232   5.304  0.00  0.00    -0.306 N 
ATOM      7  N   UNL     1       1.758  12.252   5.848  0.00  0.00    -0.214 NA
ATOM      8  N   UNL     1       2.841  13.798   7.346  0.00  0.00    -0.223 NA
ATOM     15  C   UNL     1       2.751  13.089   6.205  0.00  0.00    +0.216 A 
ATOM     18  C   UNL     1       0.762  12.133   6.750  0.00  0.00    +0.076 A 
ATOM     20  C   UNL     1       1.812  13.631   8.203  0.00  0.00    +0.116 A 
ATOM     21  C   UNL     1       0.736  12.805   7.955  0.00  0.00    +0.048 A 
ATOM     36  H   UNL     1       4.568  13.819   5.590  0.00  0.00    +0.149 HD
ENDROOT
BRANCH   5  11
ATOM      1  O   UNL     1       6.104  12.749   3.305  0.00  0.00    -0.370 OA
ATOM      2  O   UNL     1       4.155  10.318   3.136  0.00  0.00    -0.370 OA
ATOM      9  C   UNL     1       4.531  11.205   4.202  0.00  0.00    +0.171 C 
ATOM     10  C   UNL     1       6.006  11.513   4.032  0.00  0.00    +0.171 C 
ATOM     11  C   UNL     1       3.852  12.544   4.034  0.00  0.00    +0.130 C 
ATOM     12  C   UNL     1       6.526  10.367   3.195  0.00  0.00    +0.130 C 
ATOM     13  C   UNL     1       4.787  13.274   3.085  0.00  0.00    +0.185 C 
ATOM     14  C   UNL     1       5.316  10.004   2.353  0.00  0.00    +0.185 C 
BRANCH  12   6
ATOM      3  O   UNL     1       9.152   9.911   4.264  0.00  0.00    -0.267 OA
ATOM      6  N   UNL     1       6.939   9.260   4.025  0.00  0.00    -0.301 N 
ATOM     16  C   UNL     1       8.237   9.125   4.495  0.00  0.00    +0.280 C 
ATOM     37  H   UNL     1       6.264   8.529   4.230  0.00  0.00    +0.150 HD
BRANCH  16  17
ATOM      4  O   UNL     1       8.505   8.050   6.667  0.00  0.00    -0.458 OA
ATOM     17  C   UNL     1       8.509   7.916   5.314  0.00  0.00    +0.189 A 
ATOM     19  C   UNL     1       8.777   6.614   4.958  0.00  0.00    +0.054 A 
ATOM     23  C   UNL     1       8.949   5.903   6.170  0.00  0.00    +0.042 A 
ATOM     24  C   UNL     1       8.774   6.821   7.179  0.00  0.00    +0.196 A 
ENDBRANCH  16  17
ENDBRANCH  12   6
ENDBRANCH   5  11
BRANCH  18  22
ATOM     22  C   UNL     1      -0.304  11.237   6.372  0.00  0.00    +0.001 A 
ATOM     25  C   UNL     1      -0.616  11.053   5.024  0.00  0.00    +0.010 A 
ATOM     26  C   UNL     1      -1.024  10.556   7.353  0.00  0.00    +0.010 A 
ATOM     27  C   UNL     1      -2.369   9.509   5.641  0.00  0.00    -0.018 A 
ATOM     28  C   UNL     1      -1.648  10.189   4.659  0.00  0.00    +0.009 A 
ATOM     29  C   UNL     1      -2.056   9.692   6.987  0.00  0.00    +0.009 A 
BRANCH  27  30
ATOM     30  C   UNL     1      -3.440   8.613   5.262  0.00  0.00    -0.018 A 
ATOM     31  C   UNL     1      -4.597   9.119   4.673  0.00  0.00    +0.008 A 
ATOM     32  C   UNL     1      -3.314   7.242   5.486  0.00  0.00    +0.008 A 
ATOM     33  C   UNL     1      -5.630   8.256   4.306  0.00  0.00    +0.001 A 
ATOM     34  C   UNL     1      -4.346   6.377   5.120  0.00  0.00    +0.001 A 
ATOM     35  C   UNL     1      -5.504   6.884   4.530  0.00  0.00    +0.000 A 
ENDBRANCH  27  30
ENDBRANCH  18  22
TORSDOF 5
ENDMDL
MODEL 7
REMARK VINA RESULT:      -7.3     26.351     30.086
REMARK  Name = 25390800
REMARK  5 active torsions:
REMARK  status: ('A' for Active; 'I' for Inactive)
REMARK    1  A    between atoms: N_5  and  C_11
REMARK    2  A    between atoms: N_6  and  C_12
REMARK    3  A    between atoms: C_16  and  C_17
REMARK    4  A    between atoms: C_18  and  C_22
REMARK    5  A    between atoms: C_27  and  C_30
REMARK                            x       y       z     vdW  Elec       q    Type
REMARK                         _______ _______ _______ _____ _____    ______ ____
ROOT
ATOM      5  N   UNL     1     -13.982  -6.300  14.857  0.00  0.00    -0.306 N 
ATOM      7  N   UNL     1     -12.457  -7.659  15.962  0.00  0.00    -0.214 NA
ATOM      8  N   UNL     1     -14.816  -7.780  16.440  0.00  0.00    -0.223 NA
ATOM     15  C   UNL     1     -13.741  -7.291  15.793  0.00  0.00    +0.216 A 
ATOM     18  C   UNL     1     -12.258  -8.622  16.885  0.00  0.00    +0.076 A 
ATOM     20  C   UNL     1     -14.544  -8.740  17.349  0.00  0.00    +0.116 A 
ATOM     21  C   UNL     1     -13.273  -9.205  17.616  0.00  0.00    +0.048 A 
ATOM     36  H   UNL     1     -14.940  -5.981  14.763  0.00  0.00    +0.149 HD
ENDROOT
BRANCH   5  11
ATOM      1  O   UNL     1     -13.398  -6.256  11.818  0.00  0.00    -0.370 OA
ATOM      2  O   UNL     1     -12.431  -3.547  13.029  0.00  0.00    -0.370 OA
ATOM      9  C   UNL     1     -13.495  -4.453  13.367  0.00  0.00    +0.171 C 
ATOM     10  C   UNL     1     -14.051  -5.000  12.067  0.00  0.00    +0.171 C 
ATOM     11  C   UNL     1     -12.943  -5.668  14.074  0.00  0.00    +0.130 C 
ATOM     12  C   UNL     1     -13.640  -3.978  11.032  0.00  0.00    +0.130 C 
ATOM     13  C   UNL     1     -12.534  -6.567  12.920  0.00  0.00    +0.185 C 
ATOM     14  C   UNL     1     -12.335  -3.448  11.600  0.00  0.00    +0.185 C 
BRANCH  12   6
ATOM      3  O   UNL     1     -14.569  -2.765   8.601  0.00  0.00    -0.267 OA
ATOM      6  N   UNL     1     -14.624  -2.929  10.914  0.00  0.00    -0.301 N 
ATOM     16  C   UNL     1     -15.010  -2.404   9.689  0.00  0.00    +0.280 C 
ATOM     37  H   UNL     1     -15.012  -2.529  11.764  0.00  0.00    +0.150 HD
BRANCH  16  17
ATOM      4  O   UNL     1     -17.211  -1.573  10.328  0.00  0.00    -0.458 OA
ATOM     17  C   UNL     1     -16.015  -1.311   9.739  0.00  0.00    +0.189 A 
ATOM     19  C   UNL     1     -15.974  -0.013   9.283  0.00  0.00    +0.054 A 
ATOM     23  C   UNL     1     -17.225   0.559   9.615  0.00  0.00    +0.042 A 
ATOM     24  C   UNL     1     -17.941  -0.430  10.248  0.00  0.00    +0.196 A 
ENDBRANCH  16  17
ENDBRANCH  12   6
ENDBRANCH   5  11
BRANCH  18  22
ATOM     22  C   UNL     1     -10.883  -9.020  17.070  0.00  0.00    +0.001 A 
ATOM     25  C   UNL     1      -9.898  -8.549  16.201  0.00  0.00    +0.010 A 
ATOM     26  C   UNL     1     -10.539  -9.876  18.115  0.00  0.00    +0.010 A 
ATOM     27  C   UNL     1      -8.225  -9.793  17.424  0.00  0.00    -0.018 A 
ATOM     28  C   UNL     1      -8.569  -8.936  16.378  0.00  0.00    +0.009 A 
ATOM     29  C   UNL     1      -9.210 -10.262  18.292  0.00  0.00    +0.009 A 
BRANCH  27  30
ATOM     30  C   UNL     1      -6.847 -10.194  17.607  0.00  0.00    -0.018 A 
ATOM     31  C   UNL     1      -5.895  -9.880  16.639  0.00  0.00    +0.008 A 
ATOM     32  C   UNL     1      -6.473 -10.895  18.753  0.00  0.00    +0.008 A 
ATOM     33  C   UNL     1      -4.566 -10.265  16.816  0.00  0.00    +0.001 A 
ATOM     34  C   UNL     1      -5.144 -11.281  18.931  0.00  0.00    +0.001 A 
ATOM     35  C   UNL     1      -4.190 -10.966  17.963  0.00  0.00    +0.000 A 
ENDBRANCH  27  30
ENDBRANCH  18  22
TORSDOF 5
ENDMDL
MODEL 8
REMARK VINA RESULT:      -7.3     23.831     27.056
REMARK  Name = 25390800
REMARK  5 active torsions:
REMARK  status: ('A' for Active; 'I' for Inactive)
REMARK    1  A    between atoms: N_5  and  C_11
REMARK    2  A    between atoms: N_6  and  C_12
REMARK    3  A    between atoms: C_16  and  C_17
REMARK    4  A    between atoms: C_18  and  C_22
REMARK    5  A    between atoms: C_27  and  C_30
REMARK                            x       y       z     vdW  Elec       q    Type
REMARK                         _______ _______ _______ _____ _____    ______ ____
ROOT
ATOM      5  N   UNL     1      -3.343 -10.264  12.288  0.00  0.00    -0.306 N 
ATOM      7  N   UNL     1      -4.163 -10.696  14.417  0.00  0.00    -0.214 NA
ATOM      8  N   UNL     1      -1.817 -10.296  14.038  0.00  0.00    -0.223 NA
ATOM     15  C   UNL     1      -3.097 -10.424  13.641  0.00  0.00    +0.216 A 
ATOM     18  C   UNL     1      -3.888 -10.850  15.729  0.00  0.00    +0.076 A 
ATOM     20  C   UNL     1      -1.613 -10.462  15.362  0.00  0.00    +0.116 A 
ATOM     21  C   UNL     1      -2.620 -10.743  16.263  0.00  0.00    +0.048 A 
ATOM     36  H   UNL     1      -2.538 -10.113  11.691  0.00  0.00    +0.149 HD
ENDROOT
BRANCH   5  11
ATOM      1  O   UNL     1      -4.694  -8.768   9.940  0.00  0.00    -0.370 OA
ATOM      2  O   UNL     1      -5.852 -11.665  10.037  0.00  0.00    -0.370 OA
ATOM      9  C   UNL     1      -4.574 -11.104  10.377  0.00  0.00    +0.171 C 
ATOM     10  C   UNL     1      -4.274 -10.016   9.364  0.00  0.00    +0.171 C 
ATOM     11  C   UNL     1      -4.657 -10.369  11.695  0.00  0.00    +0.130 C 
ATOM     12  C   UNL     1      -5.144 -10.369   8.179  0.00  0.00    +0.130 C 
ATOM     13  C   UNL     1      -5.158  -8.997  11.279  0.00  0.00    +0.185 C 
ATOM     14  C   UNL     1      -6.336 -11.039   8.839  0.00  0.00    +0.185 C 
BRANCH  12   6
ATOM      3  O   UNL     1      -5.749 -10.816   5.408  0.00  0.00    -0.267 OA
ATOM      6  N   UNL     1      -4.464 -11.273   7.283  0.00  0.00    -0.301 N 
ATOM     16  C   UNL     1      -4.830 -11.422   5.954  0.00  0.00    +0.280 C 
ATOM     37  H   UNL     1      -3.720 -11.858   7.655  0.00  0.00    +0.150 HD
BRANCH  16  17
ATOM      4  O   UNL     1      -4.426 -13.717   5.238  0.00  0.00    -0.458 OA
ATOM     17  C   UNL     1      -4.048 -12.413   5.171  0.00  0.00    +0.189 A 
ATOM     19  C   UNL     1      -2.958 -12.267   4.343  0.00  0.00    +0.054 A 
ATOM     23  C   UNL     1      -2.647 -13.564   3.872  0.00  0.00    +0.042 A 
ATOM     24  C   UNL     1      -3.568 -14.410   4.445  0.00  0.00    +0.196 A 
ENDBRANCH  16  17
ENDBRANCH  12   6
ENDBRANCH   5  11
BRANCH  18  22
ATOM     22  C   UNL     1      -5.027 -11.141  16.565  0.00  0.00    +0.001 A 
ATOM     25  C   UNL     1      -6.239 -10.485  16.346  0.00  0.00    +0.010 A 
ATOM     26  C   UNL     1      -4.917 -12.077  17.592  0.00  0.00    +0.010 A 
ATOM     27  C   UNL     1      -7.229 -11.701  18.185  0.00  0.00    -0.018 A 
ATOM     28  C   UNL     1      -7.340 -10.765  17.156  0.00  0.00    +0.009 A 
ATOM     29  C   UNL     1      -6.018 -12.357  18.403  0.00  0.00    +0.009 A 
BRANCH  27  30
ATOM     30  C   UNL     1      -8.370 -11.991  19.025  0.00  0.00    -0.018 A 
ATOM     31  C   UNL     1      -8.522 -13.261  19.580  0.00  0.00    +0.008 A 
ATOM     32  C   UNL     1      -9.318 -11.000  19.280  0.00  0.00    +0.008 A 
ATOM     33  C   UNL     1      -9.622 -13.541  20.392  0.00  0.00    +0.001 A 
ATOM     34  C   UNL     1     -10.418 -11.279  20.091  0.00  0.00    +0.001 A 
ATOM     35  C   UNL     1     -10.570 -12.549  20.647  0.00  0.00    +0.000 A 
ENDBRANCH  27  30
ENDBRANCH  18  22
TORSDOF 5
ENDMDL
MODEL 9
REMARK VINA RESULT:      -7.2     20.000     23.325
REMARK  Name = 25390800
REMARK  5 active torsions:
REMARK  status: ('A' for Active; 'I' for Inactive)
REMARK    1  A    between atoms: N_5  and  C_11
REMARK    2  A    between atoms: N_6  and  C_12
REMARK    3  A    between atoms: C_16  and  C_17
REMARK    4  A    between atoms: C_18  and  C_22
REMARK    5  A    between atoms: C_27  and  C_30
REMARK                            x       y       z     vdW  Elec       q    Type
REMARK                         _______ _______ _______ _____ _____    ______ ____
ROOT
ATOM      5  N   UNL     1      -3.520 -13.265   5.177  0.00  0.00    -0.306 N 
ATOM      7  N   UNL     1      -3.843 -12.171   7.199  0.00  0.00    -0.214 NA
ATOM      8  N   UNL     1      -5.037 -11.507   5.213  0.00  0.00    -0.223 NA
ATOM     15  C   UNL     1      -4.163 -12.272   5.895  0.00  0.00    +0.216 A 
ATOM     18  C   UNL     1      -4.484 -11.190   7.868  0.00  0.00    +0.076 A 
ATOM     20  C   UNL     1      -5.641 -10.546   5.943  0.00  0.00    +0.116 A 
ATOM     21  C   UNL     1      -5.402 -10.339   7.286  0.00  0.00    +0.048 A 
ATOM     36  H   UNL     1      -3.716 -13.312   4.183  0.00  0.00    +0.149 HD
ENDROOT
BRANCH   5  11
ATOM      1  O   UNL     1      -2.546 -16.080   4.336  0.00  0.00    -0.370 OA
ATOM      2  O   UNL     1      -0.175 -14.614   5.739  0.00  0.00    -0.370 OA
ATOM      9  C   UNL     1      -1.280 -14.158   4.942  0.00  0.00    +0.171 C 
ATOM     10  C   UNL     1      -1.516 -15.197   3.863  0.00  0.00    +0.171 C 
ATOM     11  C   UNL     1      -2.554 -14.173   5.754  0.00  0.00    +0.130 C 
ATOM     12  C   UNL     1      -0.197 -15.930   3.765  0.00  0.00    +0.130 C 
ATOM     13  C   UNL     1      -3.026 -15.609   5.604  0.00  0.00    +0.185 C 
ATOM     14  C   UNL     1       0.332 -15.837   5.185  0.00  0.00    +0.185 C 
BRANCH  12   6
ATOM      3  O   UNL     1       1.983 -17.149   2.348  0.00  0.00    -0.267 OA
ATOM      6  N   UNL     1       0.692 -15.284   2.830  0.00  0.00    -0.301 N 
ATOM     16  C   UNL     1       1.722 -15.959   2.192  0.00  0.00    +0.280 C 
ATOM     37  H   UNL     1       0.587 -14.285   2.671  0.00  0.00    +0.150 HD
BRANCH  16  17
ATOM      4  O   UNL     1       3.853 -15.535   1.085  0.00  0.00    -0.458 OA
ATOM     17  C   UNL     1       2.565 -15.145   1.279  0.00  0.00    +0.189 A 
ATOM     19  C   UNL     1       2.288 -14.012   0.549  0.00  0.00    +0.054 A 
ATOM     23  C   UNL     1       3.482 -13.686  -0.138  0.00  0.00    +0.042 A 
ATOM     24  C   UNL     1       4.403 -14.642   0.222  0.00  0.00    +0.196 A 
ENDBRANCH  16  17
ENDBRANCH  12   6
ENDBRANCH   5  11
BRANCH  18  22
ATOM     22  C   UNL     1      -4.145 -11.078   9.266  0.00  0.00    +0.001 A 
ATOM     25  C   UNL     1      -4.178 -12.208  10.084  0.00  0.00    +0.010 A 
ATOM     26  C   UNL     1      -3.787  -9.841   9.800  0.00  0.00    +0.010 A 
ATOM     27  C   UNL     1      -3.495 -10.860  11.970  0.00  0.00    -0.018 A 
ATOM     28  C   UNL     1      -3.852 -12.098  11.437  0.00  0.00    +0.009 A 
ATOM     29  C   UNL     1      -3.462  -9.731  11.152  0.00  0.00    +0.009 A 
BRANCH  27  30
ATOM     30  C   UNL     1      -3.157 -10.747  13.373  0.00  0.00    -0.018 A 
ATOM     31  C   UNL     1      -4.119 -11.017  14.345  0.00  0.00    +0.008 A 
ATOM     32  C   UNL     1      -1.870 -10.367  13.752  0.00  0.00    +0.008 A 
ATOM     33  C   UNL     1      -3.795 -10.909  15.698  0.00  0.00    +0.001 A 
ATOM     34  C   UNL     1      -1.544 -10.259  15.104  0.00  0.00    +0.001 A 
ATOM     35  C   UNL     1      -2.506 -10.530  16.077  0.00  0.00    +0.000 A 
ENDBRANCH  27  30
ENDBRANCH  18  22
TORSDOF 5
ENDMDL
MODEL 10
REMARK VINA RESULT:      -7.2     29.898     32.580
REMARK  Name = 25390800
REMARK  5 active torsions:
REMARK  status: ('A' for Active; 'I' for Inactive)
REMARK    1  A    between atoms: N_5  and  C_11
REMARK    2  A    between atoms: N_6  and  C_12
REMARK    3  A    between atoms: C_16  and  C_17
REMARK    4  A    between atoms: C_18  and  C_22
REMARK    5  A    between atoms: C_27  and  C_30
REMARK                            x       y       z     vdW  Elec       q    Type
REMARK                         _______ _______ _______ _____ _____    ______ ____
ROOT
ATOM      5  N   UNL     1      23.319 -10.231  21.267  0.00  0.00    -0.306 N 
ATOM      7  N   UNL     1      22.092  -8.563  22.318  0.00  0.00    -0.214 NA
ATOM      8  N   UNL     1      23.617  -9.961  23.554  0.00  0.00    -0.223 NA
ATOM     15  C   UNL     1      22.996  -9.554  22.430  0.00  0.00    +0.216 A 
ATOM     18  C   UNL     1      21.797  -7.928  23.471  0.00  0.00    +0.076 A 
ATOM     20  C   UNL     1      23.275  -9.283  24.669  0.00  0.00    +0.116 A 
ATOM     21  C   UNL     1      22.363  -8.248  24.688  0.00  0.00    +0.048 A 
ATOM     36  H   UNL     1      23.958 -11.013  21.353  0.00  0.00    +0.149 HD
ENDROOT
BRANCH   5  11
ATOM      1  O   UNL     1      23.322 -11.748  18.569  0.00  0.00    -0.370 OA
ATOM      2  O   UNL     1      20.659 -10.133  18.768  0.00  0.00    -0.370 OA
ATOM      9  C   UNL     1      21.507 -10.757  19.746  0.00  0.00    +0.171 C 
ATOM     10  C   UNL     1      22.033 -12.040  19.133  0.00  0.00    +0.171 C 
ATOM     11  C   UNL     1      22.745  -9.922  19.975  0.00  0.00    +0.130 C 
ATOM     12  C   UNL     1      21.039 -12.360  18.040  0.00  0.00    +0.130 C 
ATOM     13  C   UNL     1      23.670 -10.388  18.864  0.00  0.00    +0.185 C 
ATOM     14  C   UNL     1      20.574 -10.980  17.612  0.00  0.00    +0.185 C 
BRANCH  12   6
ATOM      3  O   UNL     1      20.926 -15.224  18.213  0.00  0.00    -0.267 OA
ATOM      6  N   UNL     1      19.943 -13.150  18.546  0.00  0.00    -0.301 N 
ATOM     16  C   UNL     1      19.980 -14.536  18.589  0.00  0.00    +0.280 C 
ATOM     37  H   UNL     1      19.093 -12.673  18.835  0.00  0.00    +0.150 HD
BRANCH  16  17
ATOM      4  O   UNL     1      18.456 -16.438  18.633  0.00  0.00    -0.458 OA
ATOM     17  C   UNL     1      18.760 -15.203  19.112  0.00  0.00    +0.189 A 
ATOM     19  C   UNL     1      17.825 -14.799  20.037  0.00  0.00    +0.054 A 
ATOM     23  C   UNL     1      16.887 -15.854  20.133  0.00  0.00    +0.042 A 
ATOM     24  C   UNL     1      17.315 -16.827  19.259  0.00  0.00    +0.196 A 
ENDBRANCH  16  17
ENDBRANCH  12   6
ENDBRANCH   5  11
BRANCH  18  22
ATOM     22  C   UNL     1      20.828  -6.864  23.356  0.00  0.00    +0.001 A 
ATOM     25  C   UNL     1      19.897  -6.879  22.317  0.00  0.00    +0.010 A 
ATOM     26  C   UNL     1      20.824  -5.822  24.282  0.00  0.00    +0.010 A 
ATOM     27  C   UNL     1      18.958  -4.806  23.130  0.00  0.00    -0.018 A 
ATOM     28  C   UNL     1      18.962  -5.850  22.204  0.00  0.00    +0.009 A 
ATOM     29  C   UNL     1      19.889  -4.793  24.169  0.00  0.00    +0.009 A 
BRANCH  27  30
ATOM     30  C   UNL     1      17.989  -3.738  23.013  0.00  0.00    -0.018 A 
ATOM     31  C   UNL     1      18.418  -2.425  22.826  0.00  0.00    +0.008 A 
ATOM     32  C   UNL     1      16.626  -4.023  23.088  0.00  0.00    +0.008 A 
ATOM     33  C   UNL     1      17.484  -1.395  22.712  0.00  0.00    +0.001 A 
ATOM     34  C   UNL     1      15.691  -2.994  22.974  0.00  0.00    +0.001 A 
ATOM     35  C   UNL     1      16.119  -1.680  22.786  0.00  0.00    +0.000 A 
ENDBRANCH  27  30
ENDBRANCH  18  22
TORSDOF 5
ENDMDL
