MODEL 1
REMARK VINA RESULT:      -7.2      0.000      0.000
REMARK  Name = 51137144
REMARK  7 active torsions:
REMARK  status: ('A' for Active; 'I' for Inactive)
REMARK    1  A    between atoms: S_1  and  C_22
REMARK    2  A    between atoms: S_1  and  C_28
REMARK    3  A    between atoms: N_8  and  C_14
REMARK    4  A    between atoms: C_10  and  C_15
REMARK    5  A    between atoms: C_14  and  C_16
REMARK    6  A    between atoms: C_27  and  C_29
REMARK    7  A    between atoms: C_28  and  C_30
REMARK                            x       y       z     vdW  Elec       q    Type
REMARK                         _______ _______ _______ _____ _____    ______ ____
ROOT
ATOM      8  N   UNL     1     -13.440   6.549  21.186  0.00  0.00    -0.297 NA
ATOM     10  C   UNL     1     -15.246   5.245  21.917  0.00  0.00    +0.090 C 
ATOM     11  C   UNL     1     -15.569   6.735  22.128  0.00  0.00    +0.029 C 
ATOM     12  C   UNL     1     -13.730   5.203  21.687  0.00  0.00    +0.097 C 
ATOM     13  C   UNL     1     -14.224   7.446  22.036  0.00  0.00    +0.085 C 
ENDROOT
BRANCH  10  15
ATOM      5  O   UNL     1     -16.581   3.355  22.685  0.00  0.00    -0.439 OA
ATOM      9  N   UNL     1     -15.351   4.361  24.303  0.00  0.00    -0.213 NA
ATOM     15  C   UNL     1     -15.698   4.334  23.035  0.00  0.00    +0.201 A 
ATOM     17  C   UNL     1     -16.059   3.316  24.846  0.00  0.00    +0.111 A 
ATOM     18  C   UNL     1     -16.813   2.699  23.859  0.00  0.00    +0.155 A 
ATOM     21  C   UNL     1     -16.124   2.822  26.157  0.00  0.00    +0.058 A 
ATOM     22  C   UNL     1     -16.954   1.719  26.405  0.00  0.00    +0.090 A 
ATOM     23  C   UNL     1     -17.646   1.605  24.066  0.00  0.00    +0.050 A 
ATOM     24  C   UNL     1     -17.698   1.125  25.379  0.00  0.00    +0.030 A 
BRANCH  22   1
ATOM      1  S   UNL     1     -17.059   1.074  28.028  0.00  0.00    -0.003 S 
ATOM      6  O   UNL     1     -18.196   0.168  28.100  0.00  0.00    -0.169 OA
ATOM      7  O   UNL     1     -15.734   0.607  28.407  0.00  0.00    -0.169 OA
BRANCH   1  28
ATOM     28  C   UNL     1     -17.453   2.485  29.036  0.00  0.00    +0.168 C 
ATOM     30  C   UNL     1     -16.292   2.873  29.923  0.00  0.00    +0.028 C 
ENDBRANCH   1  28
ENDBRANCH  22   1
ENDBRANCH  10  15
BRANCH   8  14
ATOM     14  C   UNL     1     -12.018   6.858  21.218  0.00  0.00    +0.119 C 
BRANCH  14  16
ATOM     16  C   UNL     1     -11.609   7.735  20.065  0.00  0.00    -0.033 A 
ATOM     19  C   UNL     1     -11.260   9.067  20.292  0.00  0.00    +0.005 A 
ATOM     20  C   UNL     1     -11.576   7.217  18.770  0.00  0.00    +0.005 A 
ATOM     25  C   UNL     1     -10.880   9.880  19.224  0.00  0.00    +0.012 A 
ATOM     26  C   UNL     1     -11.196   8.030  17.702  0.00  0.00    +0.012 A 
ATOM     27  C   UNL     1     -10.849   9.362  17.929  0.00  0.00    +0.055 A 
BRANCH  27  29
ATOM      2  F   UNL     1     -10.032   9.511  15.701  0.00  0.00    -0.166 F 
ATOM      3  F   UNL     1     -11.436  11.045  16.335  0.00  0.00    -0.166 F 
ATOM      4  F   UNL     1      -9.401  11.067  17.083  0.00  0.00    -0.166 F 
ATOM     29  C   UNL     1     -10.439  10.230  16.788  0.00  0.00    +0.417 C 
ENDBRANCH  27  29
ENDBRANCH  14  16
ENDBRANCH   8  14
TORSDOF 6
ENDMDL
MODEL 2
REMARK VINA RESULT:      -7.2     16.614     18.266
REMARK  Name = 51137144
REMARK  7 active torsions:
REMARK  status: ('A' for Active; 'I' for Inactive)
REMARK    1  A    between atoms: S_1  and  C_22
REMARK    2  A    between atoms: S_1  and  C_28
REMARK    3  A    between atoms: N_8  and  C_14
REMARK    4  A    between atoms: C_10  and  C_15
REMARK    5  A    between atoms: C_14  and  C_16
REMARK    6  A    between atoms: C_27  and  C_29
REMARK    7  A    between atoms: C_28  and  C_30
REMARK                            x       y       z     vdW  Elec       q    Type
REMARK                         _______ _______ _______ _____ _____    ______ ____
ROOT
ATOM      8  N   UNL     1      -8.169 -10.327  17.246  0.00  0.00    -0.297 NA
ATOM     10  C   UNL     1      -9.400  -8.333  17.175  0.00  0.00    +0.090 C 
ATOM     11  C   UNL     1     -10.019  -9.283  18.215  0.00  0.00    +0.029 C 
ATOM     12  C   UNL     1      -8.480  -9.226  16.332  0.00  0.00    +0.097 C 
ATOM     13  C   UNL     1      -9.441 -10.655  17.890  0.00  0.00    +0.085 C 
ENDROOT
BRANCH  10  15
ATOM      5  O   UNL     1     -11.712  -7.877  16.551  0.00  0.00    -0.439 OA
ATOM      9  N   UNL     1     -10.174  -6.637  15.440  0.00  0.00    -0.213 NA
ATOM     15  C   UNL     1     -10.402  -7.566  16.342  0.00  0.00    +0.201 A 
ATOM     17  C   UNL     1     -11.434  -6.298  15.010  0.00  0.00    +0.111 A 
ATOM     18  C   UNL     1     -12.378  -7.056  15.688  0.00  0.00    +0.155 A 
ATOM     21  C   UNL     1     -11.870  -5.367  14.056  0.00  0.00    +0.058 A 
ATOM     22  C   UNL     1     -13.249  -5.247  13.835  0.00  0.00    +0.090 A 
ATOM     23  C   UNL     1     -13.751  -6.965  15.495  0.00  0.00    +0.050 A 
ATOM     24  C   UNL     1     -14.169  -6.032  14.542  0.00  0.00    +0.030 A 
BRANCH  22   1
ATOM      1  S   UNL     1     -13.830  -4.094  12.654  0.00  0.00    -0.003 S 
ATOM      6  O   UNL     1     -14.480  -4.820  11.571  0.00  0.00    -0.169 OA
ATOM      7  O   UNL     1     -14.554  -3.054  13.367  0.00  0.00    -0.169 OA
BRANCH   1  28
ATOM     28  C   UNL     1     -12.351  -3.372  11.981  0.00  0.00    +0.168 C 
ATOM     30  C   UNL     1     -12.079  -3.872  10.581  0.00  0.00    +0.028 C 
ENDBRANCH   1  28
ENDBRANCH  22   1
ENDBRANCH  10  15
BRANCH   8  14
ATOM     14  C   UNL     1      -7.585 -11.470  16.559  0.00  0.00    +0.119 C 
BRANCH  14  16
ATOM     16  C   UNL     1      -6.137 -11.241  16.219  0.00  0.00    -0.033 A 
ATOM     19  C   UNL     1      -5.195 -11.104  17.239  0.00  0.00    +0.005 A 
ATOM     20  C   UNL     1      -5.736 -11.166  14.885  0.00  0.00    +0.005 A 
ATOM     25  C   UNL     1      -3.853 -10.891  16.925  0.00  0.00    +0.012 A 
ATOM     26  C   UNL     1      -4.393 -10.954  14.571  0.00  0.00    +0.012 A 
ATOM     27  C   UNL     1      -3.452 -10.816  15.591  0.00  0.00    +0.055 A 
BRANCH  27  29
ATOM      2  F   UNL     1      -1.851  -9.908  14.085  0.00  0.00    -0.166 F 
ATOM      3  F   UNL     1      -1.339  -9.873  16.198  0.00  0.00    -0.166 F 
ATOM      4  F   UNL     1      -1.303 -11.747  15.108  0.00  0.00    -0.166 F 
ATOM     29  C   UNL     1      -2.016 -10.592  15.255  0.00  0.00    +0.417 C 
ENDBRANCH  27  29
ENDBRANCH  14  16
ENDBRANCH   8  14
TORSDOF 6
ENDMDL
MODEL 3
REMARK VINA RESULT:      -7.0     19.472     20.448
REMARK  Name = 51137144
REMARK  7 active torsions:
REMARK  status: ('A' for Active; 'I' for Inactive)
REMARK    1  A    between atoms: S_1  and  C_22
REMARK    2  A    between atoms: S_1  and  C_28
REMARK    3  A    between atoms: N_8  and  C_14
REMARK    4  A    between atoms: C_10  and  C_15
REMARK    5  A    between atoms: C_14  and  C_16
REMARK    6  A    between atoms: C_27  and  C_29
REMARK    7  A    between atoms: C_28  and  C_30
REMARK                            x       y       z     vdW  Elec       q    Type
REMARK                         _______ _______ _______ _____ _____    ______ ____
ROOT
ATOM      8  N   UNL     1      -1.954 -10.953  13.719  0.00  0.00    -0.297 NA
ATOM     10  C   UNL     1      -3.160 -10.168  15.571  0.00  0.00    +0.090 C 
ATOM     11  C   UNL     1      -1.865 -10.847  16.051  0.00  0.00    +0.029 C 
ATOM     12  C   UNL     1      -3.327 -10.630  14.118  0.00  0.00    +0.097 C 
ATOM     13  C   UNL     1      -1.389 -11.672  14.862  0.00  0.00    +0.085 C 
ENDROOT
BRANCH  10  15
ATOM      5  O   UNL     1      -4.136 -11.039  17.628  0.00  0.00    -0.439 OA
ATOM      9  N   UNL     1      -5.639 -10.200  16.152  0.00  0.00    -0.213 NA
ATOM     15  C   UNL     1      -4.376 -10.449  16.422  0.00  0.00    +0.201 A 
ATOM     17  C   UNL     1      -6.298 -10.660  17.267  0.00  0.00    +0.111 A 
ATOM     18  C   UNL     1      -5.381 -11.175  18.171  0.00  0.00    +0.155 A 
ATOM     21  C   UNL     1      -7.661 -10.682  17.595  0.00  0.00    +0.058 A 
ATOM     22  C   UNL     1      -8.031 -11.228  18.833  0.00  0.00    +0.090 A 
ATOM     23  C   UNL     1      -5.710 -11.723  19.406  0.00  0.00    +0.050 A 
ATOM     24  C   UNL     1      -7.073 -11.737  19.719  0.00  0.00    +0.030 A 
BRANCH  22   1
ATOM      1  S   UNL     1      -9.723 -11.271  19.278  0.00  0.00    -0.003 S 
ATOM      6  O   UNL     1     -10.188 -12.650  19.219  0.00  0.00    -0.169 OA
ATOM      7  O   UNL     1      -9.879 -10.504  20.505  0.00  0.00    -0.169 OA
BRANCH   1  28
ATOM     28  C   UNL     1     -10.543 -10.389  17.970  0.00  0.00    +0.168 C 
ATOM     30  C   UNL     1     -11.719  -9.594  18.491  0.00  0.00    +0.028 C 
ENDBRANCH   1  28
ENDBRANCH  22   1
ENDBRANCH  10  15
BRANCH   8  14
ATOM     14  C   UNL     1      -1.902 -11.734  12.492  0.00  0.00    +0.119 C 
BRANCH  14  16
ATOM     16  C   UNL     1      -2.838 -11.195  11.444  0.00  0.00    -0.033 A 
ATOM     19  C   UNL     1      -2.668  -9.897  10.958  0.00  0.00    +0.005 A 
ATOM     20  C   UNL     1      -3.875 -11.991  10.957  0.00  0.00    +0.005 A 
ATOM     25  C   UNL     1      -3.534  -9.397   9.987  0.00  0.00    +0.012 A 
ATOM     26  C   UNL     1      -4.742 -11.490   9.986  0.00  0.00    +0.012 A 
ATOM     27  C   UNL     1      -4.572 -10.193   9.501  0.00  0.00    +0.055 A 
BRANCH  27  29
ATOM      2  F   UNL     1      -5.912  -8.387   8.730  0.00  0.00    -0.166 F 
ATOM      3  F   UNL     1      -4.944  -9.606   7.212  0.00  0.00    -0.166 F 
ATOM      4  F   UNL     1      -6.638 -10.394   8.313  0.00  0.00    -0.166 F 
ATOM     29  C   UNL     1      -5.497  -9.659   8.460  0.00  0.00    +0.417 C 
ENDBRANCH  27  29
ENDBRANCH  14  16
ENDBRANCH   8  14
TORSDOF 6
ENDMDL
MODEL 4
REMARK VINA RESULT:      -7.0      6.863     11.474
REMARK  Name = 51137144
REMARK  7 active torsions:
REMARK  status: ('A' for Active; 'I' for Inactive)
REMARK    1  A    between atoms: S_1  and  C_22
REMARK    2  A    between atoms: S_1  and  C_28
REMARK    3  A    between atoms: N_8  and  C_14
REMARK    4  A    between atoms: C_10  and  C_15
REMARK    5  A    between atoms: C_14  and  C_16
REMARK    6  A    between atoms: C_27  and  C_29
REMARK    7  A    between atoms: C_28  and  C_30
REMARK                            x       y       z     vdW  Elec       q    Type
REMARK                         _______ _______ _______ _____ _____    ______ ____
ROOT
ATOM      8  N   UNL     1     -17.093   2.205  26.807  0.00  0.00    -0.297 NA
ATOM     10  C   UNL     1     -16.914   4.150  25.510  0.00  0.00    +0.090 C 
ATOM     11  C   UNL     1     -18.055   3.272  24.966  0.00  0.00    +0.029 C 
ATOM     12  C   UNL     1     -16.107   3.218  26.423  0.00  0.00    +0.097 C 
ATOM     13  C   UNL     1     -17.817   1.896  25.574  0.00  0.00    +0.085 C 
ENDROOT
BRANCH  10  15
ATOM      5  O   UNL     1     -14.858   4.237  24.204  0.00  0.00    -0.439 OA
ATOM      9  N   UNL     1     -16.343   5.884  23.734  0.00  0.00    -0.213 NA
ATOM     15  C   UNL     1     -16.067   4.816  24.451  0.00  0.00    +0.201 A 
ATOM     17  C   UNL     1     -15.228   6.032  22.944  0.00  0.00    +0.111 A 
ATOM     18  C   UNL     1     -14.317   5.026  23.230  0.00  0.00    +0.155 A 
ATOM     21  C   UNL     1     -14.905   6.982  21.965  0.00  0.00    +0.058 A 
ATOM     22  C   UNL     1     -13.666   6.866  21.319  0.00  0.00    +0.090 A 
ATOM     23  C   UNL     1     -13.082   4.878  22.611  0.00  0.00    +0.050 A 
ATOM     24  C   UNL     1     -12.774   5.833  21.636  0.00  0.00    +0.030 A 
BRANCH  22   1
ATOM      1  S   UNL     1     -13.228   8.032  20.090  0.00  0.00    -0.003 S 
ATOM      6  O   UNL     1     -13.995   7.752  18.884  0.00  0.00    -0.169 OA
ATOM      7  O   UNL     1     -13.283   9.355  20.694  0.00  0.00    -0.169 OA
BRANCH   1  28
ATOM     28  C   UNL     1     -11.528   7.666  19.723  0.00  0.00    +0.168 C 
ATOM     30  C   UNL     1     -11.260   7.715  18.235  0.00  0.00    +0.028 C 
ENDBRANCH   1  28
ENDBRANCH  22   1
ENDBRANCH  10  15
BRANCH   8  14
ATOM     14  C   UNL     1     -16.476   1.027  27.399  0.00  0.00    +0.119 C 
BRANCH  14  16
ATOM     16  C   UNL     1     -16.016   1.283  28.809  0.00  0.00    -0.033 A 
ATOM     19  C   UNL     1     -15.039   0.468  29.382  0.00  0.00    +0.005 A 
ATOM     20  C   UNL     1     -16.564   2.335  29.543  0.00  0.00    +0.005 A 
ATOM     25  C   UNL     1     -14.612   0.704  30.688  0.00  0.00    +0.012 A 
ATOM     26  C   UNL     1     -16.136   2.572  30.849  0.00  0.00    +0.012 A 
ATOM     27  C   UNL     1     -15.161   1.757  31.422  0.00  0.00    +0.055 A 
BRANCH  27  29
ATOM      2  F   UNL     1     -14.694   0.881  33.583  0.00  0.00    -0.166 F 
ATOM      3  F   UNL     1     -13.433   2.512  32.893  0.00  0.00    -0.166 F 
ATOM      4  F   UNL     1     -15.479   2.907  33.494  0.00  0.00    -0.166 F 
ATOM     29  C   UNL     1     -14.701   2.012  32.818  0.00  0.00    +0.417 C 
ENDBRANCH  27  29
ENDBRANCH  14  16
ENDBRANCH   8  14
TORSDOF 6
ENDMDL
MODEL 5
REMARK VINA RESULT:      -6.8     28.242     31.302
REMARK  Name = 51137144
REMARK  7 active torsions:
REMARK  status: ('A' for Active; 'I' for Inactive)
REMARK    1  A    between atoms: S_1  and  C_22
REMARK    2  A    between atoms: S_1  and  C_28
REMARK    3  A    between atoms: N_8  and  C_14
REMARK    4  A    between atoms: C_10  and  C_15
REMARK    5  A    between atoms: C_14  and  C_16
REMARK    6  A    between atoms: C_27  and  C_29
REMARK    7  A    between atoms: C_28  and  C_30
REMARK                            x       y       z     vdW  Elec       q    Type
REMARK                         _______ _______ _______ _____ _____    ______ ____
ROOT
ATOM      8  N   UNL     1      13.023   8.471  20.785  0.00  0.00    -0.297 NA
ATOM     10  C   UNL     1      15.219   8.206  20.009  0.00  0.00    +0.090 C 
ATOM     11  C   UNL     1      14.278   7.285  19.212  0.00  0.00    +0.029 C 
ATOM     12  C   UNL     1      14.406   8.621  21.241  0.00  0.00    +0.097 C 
ATOM     13  C   UNL     1      13.004   7.209  20.045  0.00  0.00    +0.085 C 
ENDROOT
BRANCH  10  15
ATOM      5  O   UNL     1      16.961   6.556  19.576  0.00  0.00    -0.439 OA
ATOM      9  N   UNL     1      17.377   7.929  21.332  0.00  0.00    -0.213 NA
ATOM     15  C   UNL     1      16.555   7.593  20.363  0.00  0.00    +0.201 A 
ATOM     17  C   UNL     1      18.420   7.046  21.182  0.00  0.00    +0.111 A 
ATOM     18  C   UNL     1      18.168   6.205  20.109  0.00  0.00    +0.155 A 
ATOM     21  C   UNL     1      19.611   6.886  21.905  0.00  0.00    +0.058 A 
ATOM     22  C   UNL     1      20.494   5.875  21.502  0.00  0.00    +0.090 A 
ATOM     23  C   UNL     1      19.019   5.193  19.681  0.00  0.00    +0.050 A 
ATOM     24  C   UNL     1      20.202   5.047  20.412  0.00  0.00    +0.030 A 
BRANCH  22   1
ATOM      1  S   UNL     1      21.992   5.647  22.379  0.00  0.00    -0.003 S 
ATOM      6  O   UNL     1      22.478   6.946  22.821  0.00  0.00    -0.169 OA
ATOM      7  O   UNL     1      21.781   4.583  23.349  0.00  0.00    -0.169 OA
BRANCH   1  28
ATOM     28  C   UNL     1      23.133   5.053  21.152  0.00  0.00    +0.168 C 
ATOM     30  C   UNL     1      24.345   5.950  21.045  0.00  0.00    +0.028 C 
ENDBRANCH   1  28
ENDBRANCH  22   1
ENDBRANCH  10  15
BRANCH   8  14
ATOM     14  C   UNL     1      12.070   8.482  21.886  0.00  0.00    +0.119 C 
BRANCH  14  16
ATOM     16  C   UNL     1      11.651   9.881  22.250  0.00  0.00    -0.033 A 
ATOM     19  C   UNL     1      11.747  10.905  21.306  0.00  0.00    +0.005 A 
ATOM     20  C   UNL     1      11.164  10.154  23.528  0.00  0.00    +0.005 A 
ATOM     25  C   UNL     1      11.358  12.201  21.643  0.00  0.00    +0.012 A 
ATOM     26  C   UNL     1      10.775  11.451  23.864  0.00  0.00    +0.012 A 
ATOM     27  C   UNL     1      10.872  12.475  22.922  0.00  0.00    +0.055 A 
BRANCH  27  29
ATOM      2  F   UNL     1       9.491  14.350  22.443  0.00  0.00    -0.166 F 
ATOM      3  F   UNL     1       9.932  13.967  24.537  0.00  0.00    -0.166 F 
ATOM      4  F   UNL     1      11.472  14.768  23.237  0.00  0.00    -0.166 F 
ATOM     29  C   UNL     1      10.453  13.860  23.280  0.00  0.00    +0.417 C 
ENDBRANCH  27  29
ENDBRANCH  14  16
ENDBRANCH   8  14
TORSDOF 6
ENDMDL
MODEL 6
REMARK VINA RESULT:      -6.7     31.073     33.829
REMARK  Name = 51137144
REMARK  7 active torsions:
REMARK  status: ('A' for Active; 'I' for Inactive)
REMARK    1  A    between atoms: S_1  and  C_22
REMARK    2  A    between atoms: S_1  and  C_28
REMARK    3  A    between atoms: N_8  and  C_14
REMARK    4  A    between atoms: C_10  and  C_15
REMARK    5  A    between atoms: C_14  and  C_16
REMARK    6  A    between atoms: C_27  and  C_29
REMARK    7  A    between atoms: C_28  and  C_30
REMARK                            x       y       z     vdW  Elec       q    Type
REMARK                         _______ _______ _______ _____ _____    ______ ____
ROOT
ATOM      8  N   UNL     1      17.522   7.948  20.704  0.00  0.00    -0.297 NA
ATOM     10  C   UNL     1      19.347   6.567  20.194  0.00  0.00    +0.090 C 
ATOM     11  C   UNL     1      18.045   5.895  19.722  0.00  0.00    +0.029 C 
ATOM     12  C   UNL     1      18.888   7.671  21.154  0.00  0.00    +0.097 C 
ATOM     13  C   UNL     1      16.932   6.632  20.457  0.00  0.00    +0.085 C 
ENDROOT
BRANCH  10  15
ATOM      5  O   UNL     1      20.798   5.968  22.059  0.00  0.00    -0.439 OA
ATOM      9  N   UNL     1      20.865   4.525  20.311  0.00  0.00    -0.213 NA
ATOM     15  C   UNL     1      20.356   5.628  20.815  0.00  0.00    +0.201 A 
ATOM     17  C   UNL     1      21.716   4.091  21.298  0.00  0.00    +0.111 A 
ATOM     18  C   UNL     1      21.679   4.971  22.368  0.00  0.00    +0.155 A 
ATOM     21  C   UNL     1      22.556   2.969  21.371  0.00  0.00    +0.058 A 
ATOM     22  C   UNL     1      23.320   2.794  22.534  0.00  0.00    +0.090 A 
ATOM     23  C   UNL     1      22.420   4.831  23.535  0.00  0.00    +0.050 A 
ATOM     24  C   UNL     1      23.251   3.707  23.593  0.00  0.00    +0.030 A 
BRANCH  22   1
ATOM      1  S   UNL     1      24.377   1.405  22.662  0.00  0.00    -0.003 S 
ATOM      6  O   UNL     1      24.112   0.730  23.924  0.00  0.00    -0.169 OA
ATOM      7  O   UNL     1      24.293   0.666  21.412  0.00  0.00    -0.169 OA
BRANCH   1  28
ATOM     28  C   UNL     1      26.008   2.105  22.778  0.00  0.00    +0.168 C 
ATOM     30  C   UNL     1      26.453   2.694  21.459  0.00  0.00    +0.028 C 
ENDBRANCH   1  28
ENDBRANCH  22   1
ENDBRANCH  10  15
BRANCH   8  14
ATOM     14  C   UNL     1      16.763   8.722  21.676  0.00  0.00    +0.119 C 
BRANCH  14  16
ATOM     16  C   UNL     1      15.284   8.668  21.403  0.00  0.00    -0.033 A 
ATOM     19  C   UNL     1      14.728   9.482  20.415  0.00  0.00    +0.005 A 
ATOM     20  C   UNL     1      14.469   7.805  22.135  0.00  0.00    +0.005 A 
ATOM     25  C   UNL     1      13.357   9.433  20.161  0.00  0.00    +0.012 A 
ATOM     26  C   UNL     1      13.098   7.756  21.881  0.00  0.00    +0.012 A 
ATOM     27  C   UNL     1      12.542   8.570  20.894  0.00  0.00    +0.055 A 
BRANCH  27  29
ATOM      2  F   UNL     1      10.783   8.705  19.300  0.00  0.00    -0.166 F 
ATOM      3  F   UNL     1      10.502   7.323  20.954  0.00  0.00    -0.166 F 
ATOM      4  F   UNL     1      10.359   9.459  21.295  0.00  0.00    -0.166 F 
ATOM     29  C   UNL     1      11.077   8.515  20.620  0.00  0.00    +0.417 C 
ENDBRANCH  27  29
ENDBRANCH  14  16
ENDBRANCH   8  14
TORSDOF 6
ENDMDL
MODEL 7
REMARK VINA RESULT:      -6.7     19.214     20.803
REMARK  Name = 51137144
REMARK  7 active torsions:
REMARK  status: ('A' for Active; 'I' for Inactive)
REMARK    1  A    between atoms: S_1  and  C_22
REMARK    2  A    between atoms: S_1  and  C_28
REMARK    3  A    between atoms: N_8  and  C_14
REMARK    4  A    between atoms: C_10  and  C_15
REMARK    5  A    between atoms: C_14  and  C_16
REMARK    6  A    between atoms: C_27  and  C_29
REMARK    7  A    between atoms: C_28  and  C_30
REMARK                            x       y       z     vdW  Elec       q    Type
REMARK                         _______ _______ _______ _____ _____    ______ ____
ROOT
ATOM      8  N   UNL     1      -8.354  -8.704   8.234  0.00  0.00    -0.297 NA
ATOM     10  C   UNL     1      -6.087  -8.769   8.828  0.00  0.00    +0.090 C 
ATOM     11  C   UNL     1      -6.352  -9.781   7.700  0.00  0.00    +0.029 C 
ATOM     12  C   UNL     1      -7.477  -8.420   9.373  0.00  0.00    +0.097 C 
ATOM     13  C   UNL     1      -7.864  -9.969   7.686  0.00  0.00    +0.085 C 
ENDROOT
BRANCH  10  15
ATOM      5  O   UNL     1      -3.814  -9.013   9.675  0.00  0.00    -0.439 OA
ATOM      9  N   UNL     1      -5.421  -9.869  11.026  0.00  0.00    -0.213 NA
ATOM     15  C   UNL     1      -5.137  -9.250   9.901  0.00  0.00    +0.201 A 
ATOM     17  C   UNL     1      -4.187 -10.062  11.600  0.00  0.00    +0.111 A 
ATOM     18  C   UNL     1      -3.202  -9.540  10.776  0.00  0.00    +0.155 A 
ATOM     21  C   UNL     1      -3.811 -10.666  12.808  0.00  0.00    +0.058 A 
ATOM     22  C   UNL     1      -2.445 -10.711  13.125  0.00  0.00    +0.090 A 
ATOM     23  C   UNL     1      -1.841  -9.566  11.055  0.00  0.00    +0.050 A 
ATOM     24  C   UNL     1      -1.482 -10.171  12.264  0.00  0.00    +0.030 A 
BRANCH  22   1
ATOM      1  S   UNL     1      -1.938 -11.456  14.625  0.00  0.00    -0.003 S 
ATOM      6  O   UNL     1      -1.375 -12.766  14.331  0.00  0.00    -0.169 OA
ATOM      7  O   UNL     1      -1.153 -10.478  15.363  0.00  0.00    -0.169 OA
BRANCH   1  28
ATOM     28  C   UNL     1      -3.453 -11.728  15.514  0.00  0.00    +0.168 C 
ATOM     30  C   UNL     1      -3.630 -10.720  16.627  0.00  0.00    +0.028 C 
ENDBRANCH   1  28
ENDBRANCH  22   1
ENDBRANCH  10  15
BRANCH   8  14
ATOM     14  C   UNL     1      -9.757  -8.772   8.616  0.00  0.00    +0.119 C 
BRANCH  14  16
ATOM     16  C   UNL     1     -10.297  -7.423   9.010  0.00  0.00    -0.033 A 
ATOM     19  C   UNL     1      -9.773  -6.267   8.432  0.00  0.00    +0.005 A 
ATOM     20  C   UNL     1     -11.321  -7.329   9.953  0.00  0.00    +0.005 A 
ATOM     25  C   UNL     1     -10.272  -5.017   8.796  0.00  0.00    +0.012 A 
ATOM     26  C   UNL     1     -11.821  -6.078  10.317  0.00  0.00    +0.012 A 
ATOM     27  C   UNL     1     -11.297  -4.922   9.739  0.00  0.00    +0.055 A 
BRANCH  27  29
ATOM      2  F   UNL     1     -11.071  -2.557   9.651  0.00  0.00    -0.166 F 
ATOM      3  F   UNL     1     -13.096  -3.349   9.664  0.00  0.00    -0.166 F 
ATOM      4  F   UNL     1     -11.905  -3.395  11.476  0.00  0.00    -0.166 F 
ATOM     29  C   UNL     1     -11.833  -3.586  10.126  0.00  0.00    +0.417 C 
ENDBRANCH  27  29
ENDBRANCH  14  16
ENDBRANCH   8  14
TORSDOF 6
ENDMDL
MODEL 8
REMARK VINA RESULT:      -6.7     31.589     34.407
REMARK  Name = 51137144
REMARK  7 active torsions:
REMARK  status: ('A' for Active; 'I' for Inactive)
REMARK    1  A    between atoms: S_1  and  C_22
REMARK    2  A    between atoms: S_1  and  C_28
REMARK    3  A    between atoms: N_8  and  C_14
REMARK    4  A    between atoms: C_10  and  C_15
REMARK    5  A    between atoms: C_14  and  C_16
REMARK    6  A    between atoms: C_27  and  C_29
REMARK    7  A    between atoms: C_28  and  C_30
REMARK                            x       y       z     vdW  Elec       q    Type
REMARK                         _______ _______ _______ _____ _____    ______ ____
ROOT
ATOM      8  N   UNL     1      17.460   7.881  21.265  0.00  0.00    -0.297 NA
ATOM     10  C   UNL     1      19.350   7.029  22.362  0.00  0.00    +0.090 C 
ATOM     11  C   UNL     1      19.424   8.566  22.329  0.00  0.00    +0.029 C 
ATOM     12  C   UNL     1      18.280   6.669  21.323  0.00  0.00    +0.097 C 
ATOM     13  C   UNL     1      18.420   8.986  21.262  0.00  0.00    +0.085 C 
ENDROOT
BRANCH  10  15
ATOM      5  O   UNL     1      21.605   6.470  23.098  0.00  0.00    -0.439 OA
ATOM      9  N   UNL     1      21.024   5.592  21.090  0.00  0.00    -0.213 NA
ATOM     15  C   UNL     1      20.666   6.326  22.121  0.00  0.00    +0.201 A 
ATOM     17  C   UNL     1      22.308   5.214  21.403  0.00  0.00    +0.111 A 
ATOM     18  C   UNL     1      22.666   5.750  22.630  0.00  0.00    +0.155 A 
ATOM     21  C   UNL     1      23.236   4.424  20.710  0.00  0.00    +0.058 A 
ATOM     22  C   UNL     1      24.491   4.214  21.299  0.00  0.00    +0.090 A 
ATOM     23  C   UNL     1      23.899   5.564  23.245  0.00  0.00    +0.050 A 
ATOM     24  C   UNL     1      24.813   4.773  22.542  0.00  0.00    +0.030 A 
BRANCH  22   1
ATOM      1  S   UNL     1      25.675   3.232  20.465  0.00  0.00    -0.003 S 
ATOM      6  O   UNL     1      25.136   2.850  19.167  0.00  0.00    -0.169 OA
ATOM      7  O   UNL     1      26.956   3.917  20.544  0.00  0.00    -0.169 OA
BRANCH   1  28
ATOM     28  C   UNL     1      25.783   1.750  21.441  0.00  0.00    +0.168 C 
ATOM     30  C   UNL     1      24.460   1.019  21.484  0.00  0.00    +0.028 C 
ENDBRANCH   1  28
ENDBRANCH  22   1
ENDBRANCH  10  15
BRANCH   8  14
ATOM     14  C   UNL     1      16.584   7.904  20.103  0.00  0.00    +0.119 C 
BRANCH  14  16
ATOM     16  C   UNL     1      15.137   7.763  20.489  0.00  0.00    -0.033 A 
ATOM     19  C   UNL     1      14.637   8.465  21.587  0.00  0.00    +0.005 A 
ATOM     20  C   UNL     1      14.293   6.933  19.750  0.00  0.00    +0.005 A 
ATOM     25  C   UNL     1      13.295   8.336  21.945  0.00  0.00    +0.012 A 
ATOM     26  C   UNL     1      12.952   6.804  20.109  0.00  0.00    +0.012 A 
ATOM     27  C   UNL     1      12.452   7.504  21.207  0.00  0.00    +0.055 A 
BRANCH  27  29
ATOM      2  F   UNL     1      10.608   6.067  21.640  0.00  0.00    -0.166 F 
ATOM      3  F   UNL     1      10.725   7.893  22.814  0.00  0.00    -0.166 F 
ATOM      4  F   UNL     1      10.161   7.987  20.722  0.00  0.00    -0.166 F 
ATOM     29  C   UNL     1      11.017   7.369  21.588  0.00  0.00    +0.417 C 
ENDBRANCH  27  29
ENDBRANCH  14  16
ENDBRANCH   8  14
TORSDOF 6
ENDMDL
MODEL 9
REMARK VINA RESULT:      -6.6     18.745     20.020
REMARK  Name = 51137144
REMARK  7 active torsions:
REMARK  status: ('A' for Active; 'I' for Inactive)
REMARK    1  A    between atoms: S_1  and  C_22
REMARK    2  A    between atoms: S_1  and  C_28
REMARK    3  A    between atoms: N_8  and  C_14
REMARK    4  A    between atoms: C_10  and  C_15
REMARK    5  A    between atoms: C_14  and  C_16
REMARK    6  A    between atoms: C_27  and  C_29
REMARK    7  A    between atoms: C_28  and  C_30
REMARK                            x       y       z     vdW  Elec       q    Type
REMARK                         _______ _______ _______ _____ _____    ______ ____
ROOT
ATOM      8  N   UNL     1      -6.985  -8.488   8.410  0.00  0.00    -0.297 NA
ATOM     10  C   UNL     1      -5.359  -8.708  10.085  0.00  0.00    +0.090 C 
ATOM     11  C   UNL     1      -4.926  -9.503   8.841  0.00  0.00    +0.029 C 
ATOM     12  C   UNL     1      -6.851  -8.426   9.868  0.00  0.00    +0.097 C 
ATOM     13  C   UNL     1      -6.193  -9.651   8.008  0.00  0.00    +0.085 C 
ENDROOT
BRANCH  10  15
ATOM      5  O   UNL     1      -3.801  -9.846  11.575  0.00  0.00    -0.439 OA
ATOM      9  N   UNL     1      -5.895  -9.599  12.410  0.00  0.00    -0.213 NA
ATOM     15  C   UNL     1      -5.074  -9.389  11.404  0.00  0.00    +0.201 A 
ATOM     17  C   UNL     1      -5.107 -10.250  13.329  0.00  0.00    +0.111 A 
ATOM     18  C   UNL     1      -3.826 -10.403  12.821  0.00  0.00    +0.155 A 
ATOM     21  C   UNL     1      -5.393 -10.744  14.610  0.00  0.00    +0.058 A 
ATOM     22  C   UNL     1      -4.359 -11.373  15.319  0.00  0.00    +0.090 A 
ATOM     23  C   UNL     1      -2.777 -11.019  13.493  0.00  0.00    +0.050 A 
ATOM     24  C   UNL     1      -3.078 -11.506  14.769  0.00  0.00    +0.030 A 
BRANCH  22   1
ATOM      1  S   UNL     1      -4.678 -12.001  16.921  0.00  0.00    -0.003 S 
ATOM      6  O   UNL     1      -4.865 -13.442  16.830  0.00  0.00    -0.169 OA
ATOM      7  O   UNL     1      -3.673 -11.455  17.820  0.00  0.00    -0.169 OA
BRANCH   1  28
ATOM     28  C   UNL     1      -6.251 -11.299  17.362  0.00  0.00    +0.168 C 
ATOM     30  C   UNL     1      -6.184 -10.587  18.694  0.00  0.00    +0.028 C 
ENDBRANCH   1  28
ENDBRANCH  22   1
ENDBRANCH  10  15
BRANCH   8  14
ATOM     14  C   UNL     1      -8.373  -8.589   7.984  0.00  0.00    +0.119 C 
BRANCH  14  16
ATOM     16  C   UNL     1      -9.184  -7.402   8.430  0.00  0.00    -0.033 A 
ATOM     19  C   UNL     1      -8.739  -6.109   8.149  0.00  0.00    +0.005 A 
ATOM     20  C   UNL     1     -10.381  -7.592   9.121  0.00  0.00    +0.005 A 
ATOM     25  C   UNL     1      -9.489  -5.008   8.561  0.00  0.00    +0.012 A 
ATOM     26  C   UNL     1     -11.131  -6.491   9.533  0.00  0.00    +0.012 A 
ATOM     27  C   UNL     1     -10.686  -5.199   9.253  0.00  0.00    +0.055 A 
BRANCH  27  29
ATOM      2  F   UNL     1     -10.812  -2.844   9.556  0.00  0.00    -0.166 F 
ATOM      3  F   UNL     1     -12.649  -3.859   8.987  0.00  0.00    -0.166 F 
ATOM      4  F   UNL     1     -11.872  -4.076  11.000  0.00  0.00    -0.166 F 
ATOM     29  C   UNL     1     -11.490  -4.022   9.690  0.00  0.00    +0.417 C 
ENDBRANCH  27  29
ENDBRANCH  14  16
ENDBRANCH   8  14
TORSDOF 6
ENDMDL
MODEL 10
REMARK VINA RESULT:      -6.6     21.765     24.029
REMARK  Name = 51137144
REMARK  7 active torsions:
REMARK  status: ('A' for Active; 'I' for Inactive)
REMARK    1  A    between atoms: S_1  and  C_22
REMARK    2  A    between atoms: S_1  and  C_28
REMARK    3  A    between atoms: N_8  and  C_14
REMARK    4  A    between atoms: C_10  and  C_15
REMARK    5  A    between atoms: C_14  and  C_16
REMARK    6  A    between atoms: C_27  and  C_29
REMARK    7  A    between atoms: C_28  and  C_30
REMARK                            x       y       z     vdW  Elec       q    Type
REMARK                         _______ _______ _______ _____ _____    ______ ____
ROOT
ATOM      8  N   UNL     1      -3.784 -10.336  12.385  0.00  0.00    -0.297 NA
ATOM     10  C   UNL     1      -4.570  -9.237  10.469  0.00  0.00    +0.090 C 
ATOM     11  C   UNL     1      -5.621  -9.134  11.588  0.00  0.00    +0.029 C 
ATOM     12  C   UNL     1      -3.618 -10.348  10.929  0.00  0.00    +0.097 C 
ATOM     13  C   UNL     1      -5.226 -10.203  12.599  0.00  0.00    +0.085 C 
ENDROOT
BRANCH  10  15
ATOM      5  O   UNL     1      -4.519 -10.450   8.355  0.00  0.00    -0.439 OA
ATOM      9  N   UNL     1      -6.147  -8.878   8.501  0.00  0.00    -0.213 NA
ATOM     15  C   UNL     1      -5.136  -9.480   9.089  0.00  0.00    +0.201 A 
ATOM     17  C   UNL     1      -6.212  -9.495   7.275  0.00  0.00    +0.111 A 
ATOM     18  C   UNL     1      -5.217 -10.456   7.182  0.00  0.00    +0.155 A 
ATOM     21  C   UNL     1      -7.075  -9.304   6.186  0.00  0.00    +0.058 A 
ATOM     22  C   UNL     1      -6.887 -10.103   5.049  0.00  0.00    +0.090 A 
ATOM     23  C   UNL     1      -5.000 -11.266   6.073  0.00  0.00    +0.050 A 
ATOM     24  C   UNL     1      -5.870 -11.065   4.997  0.00  0.00    +0.030 A 
BRANCH  22   1
ATOM      1  S   UNL     1      -7.946  -9.895   3.671  0.00  0.00    -0.003 S 
ATOM      6  O   UNL     1      -7.382 -10.612   2.535  0.00  0.00    -0.169 OA
ATOM      7  O   UNL     1      -9.304 -10.181   4.108  0.00  0.00    -0.169 OA
BRANCH   1  28
ATOM     28  C   UNL     1      -7.842  -8.161   3.296  0.00  0.00    +0.168 C 
ATOM     30  C   UNL     1      -9.135  -7.446   3.619  0.00  0.00    +0.028 C 
ENDBRANCH   1  28
ENDBRANCH  22   1
ENDBRANCH  10  15
BRANCH   8  14
ATOM     14  C   UNL     1      -3.238 -11.529  13.016  0.00  0.00    +0.119 C 
BRANCH  14  16
ATOM     16  C   UNL     1      -3.553 -11.580  14.486  0.00  0.00    -0.033 A 
ATOM     19  C   UNL     1      -2.978 -10.651  15.355  0.00  0.00    +0.005 A 
ATOM     20  C   UNL     1      -4.422 -12.553  14.982  0.00  0.00    +0.005 A 
ATOM     25  C   UNL     1      -3.271 -10.697  16.718  0.00  0.00    +0.012 A 
ATOM     26  C   UNL     1      -4.714 -12.599  16.345  0.00  0.00    +0.012 A 
ATOM     27  C   UNL     1      -4.138 -11.672  17.213  0.00  0.00    +0.055 A 
BRANCH  27  29
ATOM      2  F   UNL     1      -5.305 -12.737  18.990  0.00  0.00    -0.166 F 
ATOM      3  F   UNL     1      -3.356 -11.897  19.462  0.00  0.00    -0.166 F 
ATOM      4  F   UNL     1      -5.050 -10.582  19.137  0.00  0.00    -0.166 F 
ATOM     29  C   UNL     1      -4.454 -11.718  18.670  0.00  0.00    +0.417 C 
ENDBRANCH  27  29
ENDBRANCH  14  16
ENDBRANCH   8  14
TORSDOF 6
ENDMDL
