REMARK  Name = 11912964
REMARK  4 active torsions:
REMARK  status: ('A' for Active; 'I' for Inactive)
REMARK    1  A    between atoms: N_5  and  C_11
REMARK    2  A    between atoms: N_6  and  C_12
REMARK    3  A    between atoms: C_13  and  C_18
REMARK    4  A    between atoms: C_20  and  C_23
REMARK                            x       y       z     vdW  Elec       q    Type
REMARK                         _______ _______ _______ _____ _____    ______ ____
ROOT
ATOM      1  O   UNL     1      -1.192   0.055   1.603  0.00  0.00    -0.370 OA
ATOM      2  O   UNL     1      -1.857   2.952   0.720  0.00  0.00    -0.370 OA
ATOM      9  C   UNL     1      -1.977   1.680   0.058  0.00  0.00    +0.171 C 
ATOM     10  C   UNL     1      -0.782   0.845   0.472  0.00  0.00    +0.171 C 
ATOM     11  C   UNL     1      -3.168   0.918   0.598  0.00  0.00    +0.130 C 
ATOM     12  C   UNL     1       0.249   1.864   0.896  0.00  0.00    +0.130 C 
ATOM     14  C   UNL     1      -2.588   0.281   1.852  0.00  0.00    +0.185 C 
ATOM     15  C   UNL     1      -0.605   3.003   1.422  0.00  0.00    +0.185 C 
ENDROOT
BRANCH  12   6
ATOM      6  N   UNL     1       1.015   2.300  -0.251  0.00  0.00    -0.306 N 
ATOM      7  N   UNL     1       2.510   0.499  -0.077  0.00  0.00    -0.211 NA
ATOM      8  N   UNL     1       2.754   2.146  -1.819  0.00  0.00    -0.223 NA
ATOM     19  C   UNL     1       2.126   1.628  -0.730  0.00  0.00    +0.216 A 
ATOM     20  C   UNL     1       3.596  -0.131  -0.571  0.00  0.00    +0.111 A 
ATOM     21  C   UNL     1       3.833   1.466  -2.260  0.00  0.00    +0.116 A 
ATOM     22  C   UNL     1       4.304   0.311  -1.670  0.00  0.00    +0.051 A 
ATOM     28  H   UNL     1       0.708   3.110  -0.777  0.00  0.00    +0.149 HD
BRANCH  20  23
ATOM      4  O   UNL     1       3.194  -1.638   1.203  0.00  0.00    -0.461 OA
ATOM     23  C   UNL     1       3.978  -1.321   0.141  0.00  0.00    +0.153 A 
ATOM     24  C   UNL     1       4.987  -2.240  -0.011  0.00  0.00    +0.051 A 
ATOM     25  C   UNL     1       4.813  -3.187   1.027  0.00  0.00    +0.042 A 
ATOM     26  C   UNL     1       3.710  -2.776   1.738  0.00  0.00    +0.196 A 
ENDBRANCH  20  23
ENDBRANCH  12   6
BRANCH  11   5
ATOM      3  O   UNL     1      -5.796  -0.317   0.343  0.00  0.00    -0.276 OA
ATOM      5  N   UNL     1      -3.579  -0.124  -0.340  0.00  0.00    -0.307 N 
ATOM     18  C   UNL     1      -4.861  -0.648  -0.382  0.00  0.00    +0.216 C 
ATOM     27  H   UNL     1      -2.877  -0.491  -0.978  0.00  0.00    +0.149 HD
BRANCH  18  13
ATOM     13  C   UNL     1      -5.021  -1.689  -1.458  0.00  0.00    +0.075 C 
ATOM     16  C   UNL     1      -5.545  -3.021  -1.066  0.00  0.00    +0.013 C 
ATOM     17  C   UNL     1      -4.101  -2.854  -1.441  0.00  0.00    +0.013 C 
ENDBRANCH  18  13
ENDBRANCH  11   5
TORSDOF 4
