MODEL 1
REMARK VINA RESULT:      -7.5      0.000      0.000
REMARK  Name = 45361456
REMARK  10 active torsions:
REMARK  status: ('A' for Active; 'I' for Inactive)
REMARK    1  A    between atoms: O_1  and  C_10
REMARK    2  A    between atoms: N_5  and  C_14
REMARK    3  A    between atoms: N_6  and  C_29
REMARK    4  A    between atoms: C_7  and  C_17
REMARK    5  A    between atoms: C_9  and  C_19
REMARK    6  A    between atoms: C_13  and  C_18
REMARK    7  A    between atoms: C_18  and  C_20
REMARK    8  A    between atoms: C_18  and  C_21
REMARK    9  A    between atoms: C_22  and  C_23
REMARK   10  A    between atoms: C_29  and  C_30
REMARK                            x       y       z     vdW  Elec       q    Type
REMARK                         _______ _______ _______ _____ _____    ______ ____
ROOT
ATOM      7  C   UNL     1      -3.096 -10.599  11.925  0.00  0.00    -0.027 C 
ATOM      8  C   UNL     1      -4.531 -10.283  12.464  0.00  0.00    +0.028 C 
ATOM      9  C   UNL     1      -4.834 -11.108  13.766  0.00  0.00    +0.012 C 
ATOM     10  C   UNL     1      -5.597 -10.401  11.336  0.00  0.00    +0.122 C 
ATOM     11  C   UNL     1      -2.789  -9.690  10.713  0.00  0.00    +0.007 C 
ATOM     12  C   UNL     1      -2.062 -10.280  13.028  0.00  0.00    +0.009 C 
ATOM     13  C   UNL     1      -5.230  -9.569  10.084  0.00  0.00    +0.029 C 
ATOM     14  C   UNL     1      -3.745 -10.836  14.841  0.00  0.00    +0.076 C 
ATOM     15  C   UNL     1      -3.808  -9.831   9.590  0.00  0.00    +0.007 C 
ATOM     16  C   UNL     1      -2.319 -11.032  14.326  0.00  0.00    +0.023 C 
ATOM     17  C   UNL     1      -2.938 -12.079  11.490  0.00  0.00    +0.011 C 
ATOM     19  C   UNL     1      -6.221 -10.824  14.367  0.00  0.00    +0.010 C 
ENDROOT
BRANCH  14   5
ATOM      3  O   UNL     1      -4.633 -10.002  17.477  0.00  0.00    -0.276 OA
ATOM      5  N   UNL     1      -3.928 -11.668  16.012  0.00  0.00    -0.312 N 
ATOM     22  C   UNL     1      -4.358 -11.174  17.230  0.00  0.00    +0.216 C 
ATOM     34  H   UNL     1      -3.677 -12.650  15.934  0.00  0.00    +0.149 HD
BRANCH  22  23
ATOM     23  C   UNL     1      -4.486 -12.253  18.266  0.00  0.00    +0.075 C 
ATOM     24  C   UNL     1      -5.019 -11.689  19.584  0.00  0.00    +0.013 C 
ATOM     25  C   UNL     1      -5.338 -13.403  17.725  0.00  0.00    +0.013 C 
ATOM     26  C   UNL     1      -6.521 -11.404  19.560  0.00  0.00    +0.001 C 
ATOM     27  C   UNL     1      -6.832 -13.085  17.709  0.00  0.00    +0.001 C 
ATOM     28  C   UNL     1      -7.320 -12.606  19.072  0.00  0.00    +0.000 C 
ENDBRANCH  22  23
ENDBRANCH  14   5
BRANCH  10   1
ATOM      1  O   UNL     1      -6.848  -9.899  11.807  0.00  0.00    -0.391 OA
ATOM     35  H   UNL     1      -6.857  -9.972  12.776  0.00  0.00    +0.210 HD
ENDBRANCH  10   1
BRANCH  13  18
ATOM     18  C   UNL     1      -6.222  -9.800   8.937  0.00  0.00    +0.077 C 
ATOM     20  C   UNL     1      -5.485  -9.820   7.602  0.00  0.00    +0.017 C 
BRANCH  18  21
ATOM      2  O   UNL     1      -8.327  -8.826   9.633  0.00  0.00    -0.276 OA
ATOM      6  N   UNL     1      -6.997  -7.648   8.141  0.00  0.00    -0.308 N 
ATOM     21  C   UNL     1      -7.304  -8.725   8.959  0.00  0.00    +0.217 C 
ATOM     36  H   UNL     1      -6.141  -7.661   7.596  0.00  0.00    +0.149 HD
BRANCH   6  29
ATOM     29  C   UNL     1      -7.870  -6.506   7.995  0.00  0.00    +0.178 C 
BRANCH  29  30
ATOM      4  O   UNL     1      -8.540  -7.223   5.771  0.00  0.00    -0.466 OA
ATOM     30  C   UNL     1      -8.947  -6.748   6.978  0.00  0.00    +0.122 A 
ATOM     31  C   UNL     1     -10.313  -6.587   6.998  0.00  0.00    +0.046 A 
ATOM     32  C   UNL     1     -10.775  -6.991   5.721  0.00  0.00    +0.041 A 
ATOM     33  C   UNL     1      -9.658  -7.368   5.013  0.00  0.00    +0.195 A 
ENDBRANCH  29  30
ENDBRANCH   6  29
ENDBRANCH  18  21
ENDBRANCH  13  18
TORSDOF 7
ENDMDL
MODEL 2
REMARK VINA RESULT:      -7.5     20.112     23.289
REMARK  Name = 45361456
REMARK  10 active torsions:
REMARK  status: ('A' for Active; 'I' for Inactive)
REMARK    1  A    between atoms: O_1  and  C_10
REMARK    2  A    between atoms: N_5  and  C_14
REMARK    3  A    between atoms: N_6  and  C_29
REMARK    4  A    between atoms: C_7  and  C_17
REMARK    5  A    between atoms: C_9  and  C_19
REMARK    6  A    between atoms: C_13  and  C_18
REMARK    7  A    between atoms: C_18  and  C_20
REMARK    8  A    between atoms: C_18  and  C_21
REMARK    9  A    between atoms: C_22  and  C_23
REMARK   10  A    between atoms: C_29  and  C_30
REMARK                            x       y       z     vdW  Elec       q    Type
REMARK                         _______ _______ _______ _____ _____    ______ ____
ROOT
ATOM      7  C   UNL     1     -16.359   6.412  22.231  0.00  0.00    -0.027 C 
ATOM      8  C   UNL     1     -14.940   5.934  22.688  0.00  0.00    +0.028 C 
ATOM      9  C   UNL     1     -13.911   6.028  21.504  0.00  0.00    +0.012 C 
ATOM     10  C   UNL     1     -15.012   4.554  23.403  0.00  0.00    +0.122 C 
ATOM     11  C   UNL     1     -17.317   6.414  23.445  0.00  0.00    +0.007 C 
ATOM     12  C   UNL     1     -16.259   7.862  21.707  0.00  0.00    +0.009 C 
ATOM     13  C   UNL     1     -16.048   4.533  24.551  0.00  0.00    +0.029 C 
ATOM     14  C   UNL     1     -13.874   7.474  20.936  0.00  0.00    +0.076 C 
ATOM     15  C   UNL     1     -17.420   5.055  24.124  0.00  0.00    +0.007 C 
ATOM     16  C   UNL     1     -15.255   8.021  20.574  0.00  0.00    +0.023 C 
ATOM     17  C   UNL     1     -16.961   5.510  21.124  0.00  0.00    +0.011 C 
ATOM     19  C   UNL     1     -12.486   5.599  21.891  0.00  0.00    +0.010 C 
ENDROOT
BRANCH  14   5
ATOM      3  O   UNL     1     -11.661   9.305  20.513  0.00  0.00    -0.276 OA
ATOM      5  N   UNL     1     -13.023   7.570  19.769  0.00  0.00    -0.312 N 
ATOM     22  C   UNL     1     -11.988   8.481  19.663  0.00  0.00    +0.216 C 
ATOM     34  H   UNL     1     -13.238   6.968  18.979  0.00  0.00    +0.149 HD
BRANCH  22  23
ATOM     23  C   UNL     1     -11.250   8.351  18.361  0.00  0.00    +0.075 C 
ATOM     24  C   UNL     1     -12.207   8.475  17.173  0.00  0.00    +0.013 C 
ATOM     25  C   UNL     1     -10.101   9.359  18.305  0.00  0.00    +0.013 C 
ATOM     26  C   UNL     1     -12.642   9.913  16.891  0.00  0.00    +0.001 C 
ATOM     27  C   UNL     1     -10.570  10.786  18.027  0.00  0.00    +0.001 C 
ATOM     28  C   UNL     1     -11.450  10.857  16.785  0.00  0.00    +0.000 C 
ENDBRANCH  22  23
ENDBRANCH  14   5
BRANCH  10   1
ATOM      1  O   UNL     1     -13.745   4.255  23.991  0.00  0.00    -0.391 OA
ATOM     35  H   UNL     1     -13.250   3.692  23.373  0.00  0.00    +0.210 HD
ENDBRANCH  10   1
BRANCH  13  18
ATOM     18  C   UNL     1     -16.199   3.132  25.156  0.00  0.00    +0.077 C 
ATOM     20  C   UNL     1     -17.262   2.344  24.398  0.00  0.00    +0.017 C 
BRANCH  18  21
ATOM      2  O   UNL     1     -17.694   3.254  27.056  0.00  0.00    -0.276 OA
ATOM      6  N   UNL     1     -15.407   3.318  27.438  0.00  0.00    -0.308 N 
ATOM     21  C   UNL     1     -16.538   3.239  26.639  0.00  0.00    +0.217 C 
ATOM     36  H   UNL     1     -14.489   3.329  27.005  0.00  0.00    +0.149 HD
BRANCH   6  29
ATOM     29  C   UNL     1     -15.474   3.429  28.877  0.00  0.00    +0.178 C 
BRANCH  29  30
ATOM      4  O   UNL     1     -13.904   1.955  30.003  0.00  0.00    -0.466 OA
ATOM     30  C   UNL     1     -15.176   2.124  29.556  0.00  0.00    +0.122 A 
ATOM     31  C   UNL     1     -15.939   1.014  29.838  0.00  0.00    +0.046 A 
ATOM     32  C   UNL     1     -15.079   0.105  30.501  0.00  0.00    +0.041 A 
ATOM     33  C   UNL     1     -13.853   0.724  30.577  0.00  0.00    +0.195 A 
ENDBRANCH  29  30
ENDBRANCH   6  29
ENDBRANCH  18  21
ENDBRANCH  13  18
TORSDOF 7
ENDMDL
MODEL 3
REMARK VINA RESULT:      -7.4      1.358      1.705
REMARK  Name = 45361456
REMARK  10 active torsions:
REMARK  status: ('A' for Active; 'I' for Inactive)
REMARK    1  A    between atoms: O_1  and  C_10
REMARK    2  A    between atoms: N_5  and  C_14
REMARK    3  A    between atoms: N_6  and  C_29
REMARK    4  A    between atoms: C_7  and  C_17
REMARK    5  A    between atoms: C_9  and  C_19
REMARK    6  A    between atoms: C_13  and  C_18
REMARK    7  A    between atoms: C_18  and  C_20
REMARK    8  A    between atoms: C_18  and  C_21
REMARK    9  A    between atoms: C_22  and  C_23
REMARK   10  A    between atoms: C_29  and  C_30
REMARK                            x       y       z     vdW  Elec       q    Type
REMARK                         _______ _______ _______ _____ _____    ______ ____
ROOT
ATOM      7  C   UNL     1      -3.653 -10.457  11.177  0.00  0.00    -0.027 C 
ATOM      8  C   UNL     1      -5.066 -10.219  11.805  0.00  0.00    +0.028 C 
ATOM      9  C   UNL     1      -5.244 -11.065  13.118  0.00  0.00    +0.012 C 
ATOM     10  C   UNL     1      -6.192 -10.386  10.744  0.00  0.00    +0.122 C 
ATOM     11  C   UNL     1      -3.469  -9.528   9.955  0.00  0.00    +0.007 C 
ATOM     12  C   UNL     1      -2.570 -10.090  12.216  0.00  0.00    +0.009 C 
ATOM     13  C   UNL     1      -5.948  -9.531   9.479  0.00  0.00    +0.029 C 
ATOM     14  C   UNL     1      -4.106 -10.741  14.126  0.00  0.00    +0.076 C 
ATOM     15  C   UNL     1      -4.547  -9.716   8.896  0.00  0.00    +0.007 C 
ATOM     16  C   UNL     1      -2.707 -10.860  13.521  0.00  0.00    +0.023 C 
ATOM     17  C   UNL     1      -3.446 -11.925  10.721  0.00  0.00    +0.011 C 
ATOM     19  C   UNL     1      -6.604 -10.855  13.805  0.00  0.00    +0.010 C 
ENDROOT
BRANCH  14   5
ATOM      3  O   UNL     1      -4.368  -9.902  16.893  0.00  0.00    -0.276 OA
ATOM      5  N   UNL     1      -4.173 -11.587  15.298  0.00  0.00    -0.312 N 
ATOM     22  C   UNL     1      -4.299 -11.089  16.582  0.00  0.00    +0.216 C 
ATOM     34  H   UNL     1      -4.071 -12.589  15.162  0.00  0.00    +0.149 HD
BRANCH  22  23
ATOM     23  C   UNL     1      -4.369 -12.182  17.609  0.00  0.00    +0.075 C 
ATOM     24  C   UNL     1      -4.498 -11.602  19.020  0.00  0.00    +0.013 C 
ATOM     25  C   UNL     1      -5.496 -13.157  17.264  0.00  0.00    +0.013 C 
ATOM     26  C   UNL     1      -5.900 -11.084  19.339  0.00  0.00    +0.001 C 
ATOM     27  C   UNL     1      -6.884 -12.606  17.589  0.00  0.00    +0.001 C 
ATOM     28  C   UNL     1      -6.974 -12.121  19.032  0.00  0.00    +0.000 C 
ENDBRANCH  22  23
ENDBRANCH  14   5
BRANCH  10   1
ATOM      1  O   UNL     1      -7.436  -9.952  11.296  0.00  0.00    -0.391 OA
ATOM     35  H   UNL     1      -7.852 -10.712  11.737  0.00  0.00    +0.210 HD
ENDBRANCH  10   1
BRANCH  13  18
ATOM     18  C   UNL     1      -6.996  -9.808   8.394  0.00  0.00    +0.077 C 
ATOM     20  C   UNL     1      -6.496 -10.894   7.447  0.00  0.00    +0.017 C 
BRANCH  18  21
ATOM      2  O   UNL     1      -7.383  -8.466   6.416  0.00  0.00    -0.276 OA
ATOM      6  N   UNL     1      -7.524  -7.446   8.494  0.00  0.00    -0.308 N 
ATOM     21  C   UNL     1      -7.319  -8.521   7.642  0.00  0.00    +0.217 C 
ATOM     36  H   UNL     1      -7.422  -7.575   9.496  0.00  0.00    +0.149 HD
BRANCH   6  29
ATOM     29  C   UNL     1      -7.842  -6.120   8.015  0.00  0.00    +0.178 C 
BRANCH  29  30
ATOM      4  O   UNL     1      -9.366  -4.369   8.736  0.00  0.00    -0.466 OA
ATOM     30  C   UNL     1      -9.216  -5.685   8.433  0.00  0.00    +0.122 A 
ATOM     31  C   UNL     1     -10.409  -6.354   8.584  0.00  0.00    +0.046 A 
ATOM     32  C   UNL     1     -11.352  -5.386   9.006  0.00  0.00    +0.041 A 
ATOM     33  C   UNL     1     -10.668  -4.195   9.084  0.00  0.00    +0.195 A 
ENDBRANCH  29  30
ENDBRANCH   6  29
ENDBRANCH  18  21
ENDBRANCH  13  18
TORSDOF 7
ENDMDL
MODEL 4
REMARK VINA RESULT:      -7.1      1.427      9.570
REMARK  Name = 45361456
REMARK  10 active torsions:
REMARK  status: ('A' for Active; 'I' for Inactive)
REMARK    1  A    between atoms: O_1  and  C_10
REMARK    2  A    between atoms: N_5  and  C_14
REMARK    3  A    between atoms: N_6  and  C_29
REMARK    4  A    between atoms: C_7  and  C_17
REMARK    5  A    between atoms: C_9  and  C_19
REMARK    6  A    between atoms: C_13  and  C_18
REMARK    7  A    between atoms: C_18  and  C_20
REMARK    8  A    between atoms: C_18  and  C_21
REMARK    9  A    between atoms: C_22  and  C_23
REMARK   10  A    between atoms: C_29  and  C_30
REMARK                            x       y       z     vdW  Elec       q    Type
REMARK                         _______ _______ _______ _____ _____    ______ ____
ROOT
ATOM      7  C   UNL     1      -3.688 -10.531  10.518  0.00  0.00    -0.027 C 
ATOM      8  C   UNL     1      -4.994 -10.189  11.309  0.00  0.00    +0.028 C 
ATOM      9  C   UNL     1      -5.781  -9.023  10.610  0.00  0.00    +0.012 C 
ATOM     10  C   UNL     1      -4.701  -9.983  12.823  0.00  0.00    +0.122 C 
ATOM     11  C   UNL     1      -2.998 -11.754  11.167  0.00  0.00    +0.007 C 
ATOM     12  C   UNL     1      -4.062 -10.916   9.069  0.00  0.00    +0.009 C 
ATOM     13  C   UNL     1      -3.919 -11.165  13.443  0.00  0.00    +0.029 C 
ATOM     14  C   UNL     1      -6.086  -9.390   9.130  0.00  0.00    +0.076 C 
ATOM     15  C   UNL     1      -2.673 -11.542  12.640  0.00  0.00    +0.007 C 
ATOM     16  C   UNL     1      -4.850  -9.833   8.347  0.00  0.00    +0.023 C 
ATOM     17  C   UNL     1      -2.684  -9.350  10.491  0.00  0.00    +0.011 C 
ATOM     19  C   UNL     1      -7.094  -8.653  11.321  0.00  0.00    +0.010 C 
ENDROOT
BRANCH  14   5
ATOM      3  O   UNL     1      -8.225  -9.538   7.172  0.00  0.00    -0.276 OA
ATOM      5  N   UNL     1      -6.708  -8.291   8.423  0.00  0.00    -0.312 N 
ATOM     22  C   UNL     1      -7.726  -8.465   7.504  0.00  0.00    +0.216 C 
ATOM     34  H   UNL     1      -6.336  -7.359   8.582  0.00  0.00    +0.149 HD
BRANCH  22  23
ATOM     23  C   UNL     1      -8.207  -7.160   6.936  0.00  0.00    +0.075 C 
ATOM     24  C   UNL     1      -9.438  -7.366   6.052  0.00  0.00    +0.013 C 
ATOM     25  C   UNL     1      -8.449  -6.154   8.063  0.00  0.00    +0.013 C 
ATOM     26  C   UNL     1     -10.724  -7.603   6.844  0.00  0.00    +0.001 C 
ATOM     27  C   UNL     1      -9.737  -6.421   8.838  0.00  0.00    +0.001 C 
ATOM     28  C   UNL     1     -10.940  -6.534   7.909  0.00  0.00    +0.000 C 
ENDBRANCH  22  23
ENDBRANCH  14   5
BRANCH  10   1
ATOM      1  O   UNL     1      -5.932  -9.889  13.540  0.00  0.00    -0.391 OA
ATOM     35  H   UNL     1      -5.748  -9.487  14.406  0.00  0.00    +0.210 HD
ENDBRANCH  10   1
BRANCH  13  18
ATOM     18  C   UNL     1      -3.525 -10.886  14.898  0.00  0.00    +0.077 C 
ATOM     20  C   UNL     1      -2.034 -11.140  15.097  0.00  0.00    +0.017 C 
BRANCH  18  21
ATOM      2  O   UNL     1      -5.396 -12.308  15.480  0.00  0.00    -0.276 OA
ATOM      6  N   UNL     1      -3.832 -11.807  17.118  0.00  0.00    -0.308 N 
ATOM     21  C   UNL     1      -4.364 -11.745  15.839  0.00  0.00    +0.217 C 
ATOM     36  H   UNL     1      -2.988 -11.285  17.335  0.00  0.00    +0.149 HD
BRANCH   6  29
ATOM     29  C   UNL     1      -4.451 -12.558  18.186  0.00  0.00    +0.178 C 
BRANCH  29  30
ATOM      4  O   UNL     1      -6.858 -12.643  18.514  0.00  0.00    -0.466 OA
ATOM     30  C   UNL     1      -5.720 -11.915  18.663  0.00  0.00    +0.122 A 
ATOM     31  C   UNL     1      -5.998 -10.699  19.244  0.00  0.00    +0.046 A 
ATOM     32  C   UNL     1      -7.396 -10.680  19.465  0.00  0.00    +0.041 A 
ATOM     33  C   UNL     1      -7.873 -11.885  19.005  0.00  0.00    +0.195 A 
ENDBRANCH  29  30
ENDBRANCH   6  29
ENDBRANCH  18  21
ENDBRANCH  13  18
TORSDOF 7
ENDMDL
MODEL 5
REMARK VINA RESULT:      -6.9     24.066     26.682
REMARK  Name = 45361456
REMARK  10 active torsions:
REMARK  status: ('A' for Active; 'I' for Inactive)
REMARK    1  A    between atoms: O_1  and  C_10
REMARK    2  A    between atoms: N_5  and  C_14
REMARK    3  A    between atoms: N_6  and  C_29
REMARK    4  A    between atoms: C_7  and  C_17
REMARK    5  A    between atoms: C_9  and  C_19
REMARK    6  A    between atoms: C_13  and  C_18
REMARK    7  A    between atoms: C_18  and  C_20
REMARK    8  A    between atoms: C_18  and  C_21
REMARK    9  A    between atoms: C_22  and  C_23
REMARK   10  A    between atoms: C_29  and  C_30
REMARK                            x       y       z     vdW  Elec       q    Type
REMARK                         _______ _______ _______ _____ _____    ______ ____
ROOT
ATOM      7  C   UNL     1       9.432   6.282   6.208  0.00  0.00    -0.027 C 
ATOM      8  C   UNL     1      10.506   7.316   5.730  0.00  0.00    +0.028 C 
ATOM      9  C   UNL     1      10.076   8.780   6.105  0.00  0.00    +0.012 C 
ATOM     10  C   UNL     1      10.883   7.091   4.238  0.00  0.00    +0.122 C 
ATOM     11  C   UNL     1       9.937   4.848   5.926  0.00  0.00    +0.007 C 
ATOM     12  C   UNL     1       9.240   6.423   7.735  0.00  0.00    +0.009 C 
ATOM     13  C   UNL     1      11.288   5.628   3.942  0.00  0.00    +0.029 C 
ATOM     14  C   UNL     1       9.813   8.891   7.632  0.00  0.00    +0.076 C 
ATOM     15  C   UNL     1      10.270   4.611   4.459  0.00  0.00    +0.007 C 
ATOM     16  C   UNL     1       8.848   7.830   8.161  0.00  0.00    +0.023 C 
ATOM     17  C   UNL     1       8.066   6.476   5.501  0.00  0.00    +0.011 C 
ATOM     19  C   UNL     1      11.103   9.848   5.689  0.00  0.00    +0.010 C 
ENDROOT
BRANCH  14   5
ATOM      3  O   UNL     1      11.017  10.812   9.446  0.00  0.00    -0.276 OA
ATOM      5  N   UNL     1       9.304  10.196   7.995  0.00  0.00    -0.312 N 
ATOM     22  C   UNL     1       9.955  11.044   8.873  0.00  0.00    +0.216 C 
ATOM     34  H   UNL     1       8.400  10.470   7.618  0.00  0.00    +0.149 HD
BRANCH  22  23
ATOM     23  C   UNL     1       9.224  12.342   9.054  0.00  0.00    +0.075 C 
ATOM     24  C   UNL     1      10.117  13.386   9.728  0.00  0.00    +0.013 C 
ATOM     25  C   UNL     1       8.660  12.821   7.715  0.00  0.00    +0.013 C 
ATOM     26  C   UNL     1      11.157  13.995   8.788  0.00  0.00    +0.001 C 
ATOM     27  C   UNL     1       9.725  13.418   6.797  0.00  0.00    +0.001 C 
ATOM     28  C   UNL     1      10.526  14.508   7.499  0.00  0.00    +0.000 C 
ENDBRANCH  22  23
ENDBRANCH  14   5
BRANCH  10   1
ATOM      1  O   UNL     1      12.009   7.902   3.903  0.00  0.00    -0.391 OA
ATOM     35  H   UNL     1      11.710   8.824   3.840  0.00  0.00    +0.210 HD
ENDBRANCH  10   1
BRANCH  13  18
ATOM     18  C   UNL     1      11.528   5.395   2.445  0.00  0.00    +0.077 C 
ATOM     20  C   UNL     1      10.766   4.160   1.976  0.00  0.00    +0.017 C 
BRANCH  18  21
ATOM      2  O   UNL     1      13.798   6.214   2.246  0.00  0.00    -0.276 OA
ATOM      6  N   UNL     1      13.388   3.968   1.834  0.00  0.00    -0.308 N 
ATOM     21  C   UNL     1      13.022   5.263   2.172  0.00  0.00    +0.217 C 
ATOM     36  H   UNL     1      12.674   3.249   1.768  0.00  0.00    +0.149 HD
BRANCH   6  29
ATOM     29  C   UNL     1      14.750   3.596   1.529  0.00  0.00    +0.178 C 
BRANCH  29  30
ATOM      4  O   UNL     1      14.137   3.921  -0.801  0.00  0.00    -0.466 OA
ATOM     30  C   UNL     1      15.132   3.963   0.124  0.00  0.00    +0.122 A 
ATOM     31  C   UNL     1      16.317   4.348  -0.458  0.00  0.00    +0.046 A 
ATOM     32  C   UNL     1      16.031   4.557  -1.829  0.00  0.00    +0.041 A 
ATOM     33  C   UNL     1      14.692   4.284  -1.987  0.00  0.00    +0.195 A 
ENDBRANCH  29  30
ENDBRANCH   6  29
ENDBRANCH  18  21
ENDBRANCH  13  18
TORSDOF 7
ENDMDL
MODEL 6
REMARK VINA RESULT:      -6.8      3.491      5.598
REMARK  Name = 45361456
REMARK  10 active torsions:
REMARK  status: ('A' for Active; 'I' for Inactive)
REMARK    1  A    between atoms: O_1  and  C_10
REMARK    2  A    between atoms: N_5  and  C_14
REMARK    3  A    between atoms: N_6  and  C_29
REMARK    4  A    between atoms: C_7  and  C_17
REMARK    5  A    between atoms: C_9  and  C_19
REMARK    6  A    between atoms: C_13  and  C_18
REMARK    7  A    between atoms: C_18  and  C_20
REMARK    8  A    between atoms: C_18  and  C_21
REMARK    9  A    between atoms: C_22  and  C_23
REMARK   10  A    between atoms: C_29  and  C_30
REMARK                            x       y       z     vdW  Elec       q    Type
REMARK                         _______ _______ _______ _____ _____    ______ ____
ROOT
ATOM      7  C   UNL     1      -4.695 -11.038  16.850  0.00  0.00    -0.027 C 
ATOM      8  C   UNL     1      -5.486 -10.474  15.624  0.00  0.00    +0.028 C 
ATOM      9  C   UNL     1      -7.035 -10.637  15.834  0.00  0.00    +0.012 C 
ATOM     10  C   UNL     1      -4.931 -11.039  14.284  0.00  0.00    +0.122 C 
ATOM     11  C   UNL     1      -3.186 -10.761  16.662  0.00  0.00    +0.007 C 
ATOM     12  C   UNL     1      -5.154 -10.302  18.129  0.00  0.00    +0.009 C 
ATOM     13  C   UNL     1      -3.402 -10.850  14.149  0.00  0.00    +0.029 C 
ATOM     14  C   UNL     1      -7.473  -9.957  17.161  0.00  0.00    +0.076 C 
ATOM     15  C   UNL     1      -2.629 -11.346  15.371  0.00  0.00    +0.007 C 
ATOM     16  C   UNL     1      -6.653 -10.403  18.372  0.00  0.00    +0.023 C 
ATOM     17  C   UNL     1      -4.901 -12.563  17.038  0.00  0.00    +0.011 C 
ATOM     19  C   UNL     1      -7.877 -10.076  14.676  0.00  0.00    +0.010 C 
ENDROOT
BRANCH  14   5
ATOM      3  O   UNL     1      -9.562  -7.964  17.466  0.00  0.00    -0.276 OA
ATOM      5  N   UNL     1      -8.873 -10.187  17.446  0.00  0.00    -0.312 N 
ATOM     22  C   UNL     1      -9.796  -9.166  17.572  0.00  0.00    +0.216 C 
ATOM     34  H   UNL     1      -9.168 -11.147  17.605  0.00  0.00    +0.149 HD
BRANCH  22  23
ATOM     23  C   UNL     1     -11.180  -9.682  17.842  0.00  0.00    +0.075 C 
ATOM     24  C   UNL     1     -12.237  -8.638  17.475  0.00  0.00    +0.013 C 
ATOM     25  C   UNL     1     -11.392 -11.017  17.126  0.00  0.00    +0.013 C 
ATOM     26  C   UNL     1     -12.475  -8.517  15.971  0.00  0.00    +0.001 C 
ATOM     27  C   UNL     1     -11.621 -10.861  15.624  0.00  0.00    +0.001 C 
ATOM     28  C   UNL     1     -12.741  -9.871  15.325  0.00  0.00    +0.000 C 
ENDBRANCH  22  23
ENDBRANCH  14   5
BRANCH  10   1
ATOM      1  O   UNL     1      -5.527 -10.343  13.189  0.00  0.00    -0.391 OA
ATOM     35  H   UNL     1      -6.420 -10.067  13.456  0.00  0.00    +0.210 HD
ENDBRANCH  10   1
BRANCH  13  18
ATOM     18  C   UNL     1      -2.855 -11.528  12.887  0.00  0.00    +0.077 C 
ATOM     20  C   UNL     1      -1.644 -12.388  13.235  0.00  0.00    +0.017 C 
BRANCH  18  21
ATOM      2  O   UNL     1      -1.418  -9.902  11.811  0.00  0.00    -0.276 OA
ATOM      6  N   UNL     1      -3.543 -10.249  10.948  0.00  0.00    -0.308 N 
ATOM     21  C   UNL     1      -2.505 -10.475  11.840  0.00  0.00    +0.217 C 
ATOM     36  H   UNL     1      -4.420 -10.748  11.064  0.00  0.00    +0.149 HD
BRANCH   6  29
ATOM     29  C   UNL     1      -3.450  -9.294   9.868  0.00  0.00    +0.178 C 
BRANCH  29  30
ATOM      4  O   UNL     1      -5.009  -9.811   8.076  0.00  0.00    -0.466 OA
ATOM     30  C   UNL     1      -4.773  -9.075   9.194  0.00  0.00    +0.122 A 
ATOM     31  C   UNL     1      -5.846  -8.260   9.471  0.00  0.00    +0.046 A 
ATOM     32  C   UNL     1      -6.802  -8.512   8.457  0.00  0.00    +0.041 A 
ATOM     33  C   UNL     1      -6.245  -9.463   7.634  0.00  0.00    +0.195 A 
ENDBRANCH  29  30
ENDBRANCH   6  29
ENDBRANCH  18  21
ENDBRANCH  13  18
TORSDOF 7
ENDMDL
MODEL 7
REMARK VINA RESULT:      -6.8     29.316     32.214
REMARK  Name = 45361456
REMARK  10 active torsions:
REMARK  status: ('A' for Active; 'I' for Inactive)
REMARK    1  A    between atoms: O_1  and  C_10
REMARK    2  A    between atoms: N_5  and  C_14
REMARK    3  A    between atoms: N_6  and  C_29
REMARK    4  A    between atoms: C_7  and  C_17
REMARK    5  A    between atoms: C_9  and  C_19
REMARK    6  A    between atoms: C_13  and  C_18
REMARK    7  A    between atoms: C_18  and  C_20
REMARK    8  A    between atoms: C_18  and  C_21
REMARK    9  A    between atoms: C_22  and  C_23
REMARK   10  A    between atoms: C_29  and  C_30
REMARK                            x       y       z     vdW  Elec       q    Type
REMARK                         _______ _______ _______ _____ _____    ______ ____
ROOT
ATOM      7  C   UNL     1      21.326   7.469  22.754  0.00  0.00    -0.027 C 
ATOM      8  C   UNL     1      20.362   6.542  21.943  0.00  0.00    +0.028 C 
ATOM      9  C   UNL     1      21.170   5.449  21.155  0.00  0.00    +0.012 C 
ATOM     10  C   UNL     1      19.360   7.375  21.092  0.00  0.00    +0.122 C 
ATOM     11  C   UNL     1      20.496   8.459  23.604  0.00  0.00    +0.007 C 
ATOM     12  C   UNL     1      22.163   6.603  23.723  0.00  0.00    +0.009 C 
ATOM     13  C   UNL     1      18.607   8.434  21.931  0.00  0.00    +0.029 C 
ATOM     14  C   UNL     1      22.065   4.633  22.130  0.00  0.00    +0.076 C 
ATOM     15  C   UNL     1      19.542   9.304  22.771  0.00  0.00    +0.007 C 
ATOM     16  C   UNL     1      22.949   5.507  23.018  0.00  0.00    +0.023 C 
ATOM     17  C   UNL     1      22.281   8.279  21.840  0.00  0.00    +0.011 C 
ATOM     19  C   UNL     1      20.280   4.482  20.355  0.00  0.00    +0.010 C 
ENDROOT
BRANCH  14   5
ATOM      3  O   UNL     1      23.098   2.104  23.112  0.00  0.00    -0.276 OA
ATOM      5  N   UNL     1      22.910   3.694  21.423  0.00  0.00    -0.312 N 
ATOM     22  C   UNL     1      23.352   2.509  21.980  0.00  0.00    +0.216 C 
ATOM     34  H   UNL     1      23.226   3.954  20.492  0.00  0.00    +0.149 HD
BRANCH  22  23
ATOM     23  C   UNL     1      24.192   1.712  21.025  0.00  0.00    +0.075 C 
ATOM     24  C   UNL     1      24.882   2.624  20.008  0.00  0.00    +0.013 C 
ATOM     25  C   UNL     1      25.178   0.833  21.797  0.00  0.00    +0.013 C 
ATOM     26  C   UNL     1      26.082   3.376  20.582  0.00  0.00    +0.001 C 
ATOM     27  C   UNL     1      26.362   1.616  22.362  0.00  0.00    +0.001 C 
ATOM     28  C   UNL     1      27.057   2.440  21.285  0.00  0.00    +0.000 C 
ENDBRANCH  22  23
ENDBRANCH  14   5
BRANCH  10   1
ATOM      1  O   UNL     1      18.367   6.509  20.542  0.00  0.00    -0.391 OA
ATOM     35  H   UNL     1      18.547   5.606  20.853  0.00  0.00    +0.210 HD
ENDBRANCH  10   1
BRANCH  13  18
ATOM     18  C   UNL     1      17.723   9.330  21.054  0.00  0.00    +0.077 C 
ATOM     20  C   UNL     1      18.263  10.757  21.050  0.00  0.00    +0.017 C 
BRANCH  18  21
ATOM      2  O   UNL     1      15.699  10.270  21.994  0.00  0.00    -0.276 OA
ATOM      6  N   UNL     1      15.723   8.019  21.438  0.00  0.00    -0.308 N 
ATOM     21  C   UNL     1      16.281   9.284  21.549  0.00  0.00    +0.217 C 
ATOM     36  H   UNL     1      16.288   7.252  21.085  0.00  0.00    +0.149 HD
BRANCH   6  29
ATOM     29  C   UNL     1      14.369   7.724  21.845  0.00  0.00    +0.178 C 
BRANCH  29  30
ATOM      4  O   UNL     1      13.530   6.973  19.691  0.00  0.00    -0.466 OA
ATOM     30  C   UNL     1      13.397   7.863  20.709  0.00  0.00    +0.122 A 
ATOM     31  C   UNL     1      12.358   8.730  20.461  0.00  0.00    +0.046 A 
ATOM     32  C   UNL     1      11.818   8.346  19.209  0.00  0.00    +0.041 A 
ATOM     33  C   UNL     1      12.566   7.274  18.783  0.00  0.00    +0.195 A 
ENDBRANCH  29  30
ENDBRANCH   6  29
ENDBRANCH  18  21
ENDBRANCH  13  18
TORSDOF 7
ENDMDL
MODEL 8
REMARK VINA RESULT:      -6.8     23.283     26.087
REMARK  Name = 45361456
REMARK  10 active torsions:
REMARK  status: ('A' for Active; 'I' for Inactive)
REMARK    1  A    between atoms: O_1  and  C_10
REMARK    2  A    between atoms: N_5  and  C_14
REMARK    3  A    between atoms: N_6  and  C_29
REMARK    4  A    between atoms: C_7  and  C_17
REMARK    5  A    between atoms: C_9  and  C_19
REMARK    6  A    between atoms: C_13  and  C_18
REMARK    7  A    between atoms: C_18  and  C_20
REMARK    8  A    between atoms: C_18  and  C_21
REMARK    9  A    between atoms: C_22  and  C_23
REMARK   10  A    between atoms: C_29  and  C_30
REMARK                            x       y       z     vdW  Elec       q    Type
REMARK                         _______ _______ _______ _____ _____    ______ ____
ROOT
ATOM      7  C   UNL     1       9.768   6.305   6.265  0.00  0.00    -0.027 C 
ATOM      8  C   UNL     1      10.289   7.273   5.150  0.00  0.00    +0.028 C 
ATOM      9  C   UNL     1      11.397   6.577   4.279  0.00  0.00    +0.012 C 
ATOM     10  C   UNL     1      10.675   8.659   5.740  0.00  0.00    +0.122 C 
ATOM     11  C   UNL     1       8.604   6.978   7.028  0.00  0.00    +0.007 C 
ATOM     12  C   UNL     1       9.219   5.021   5.603  0.00  0.00    +0.009 C 
ATOM     13  C   UNL     1       9.541   9.280   6.589  0.00  0.00    +0.029 C 
ATOM     14  C   UNL     1      10.856   5.249   3.680  0.00  0.00    +0.076 C 
ATOM     15  C   UNL     1       8.989   8.318   7.641  0.00  0.00    +0.007 C 
ATOM     16  C   UNL     1      10.241   4.317   4.724  0.00  0.00    +0.023 C 
ATOM     17  C   UNL     1      10.874   5.922   7.282  0.00  0.00    +0.011 C 
ATOM     19  C   UNL     1      11.934   7.464   3.143  0.00  0.00    +0.010 C 
ENDROOT
BRANCH  14   5
ATOM      3  O   UNL     1      10.634   3.960   1.088  0.00  0.00    -0.276 OA
ATOM      5  N   UNL     1      11.886   4.524   2.967  0.00  0.00    -0.312 N 
ATOM     22  C   UNL     1      11.682   3.942   1.730  0.00  0.00    +0.216 C 
ATOM     34  H   UNL     1      12.782   4.402   3.432  0.00  0.00    +0.149 HD
BRANCH  22  23
ATOM     23  C   UNL     1      12.920   3.275   1.206  0.00  0.00    +0.075 C 
ATOM     24  C   UNL     1      12.911   3.224  -0.324  0.00  0.00    +0.013 C 
ATOM     25  C   UNL     1      14.166   3.962   1.768  0.00  0.00    +0.013 C 
ATOM     26  C   UNL     1      13.243   4.564  -0.979  0.00  0.00    +0.001 C 
ATOM     27  C   UNL     1      14.466   5.301   1.096  0.00  0.00    +0.001 C 
ATOM     28  C   UNL     1      14.526   5.169  -0.421  0.00  0.00    +0.000 C 
ENDBRANCH  22  23
ENDBRANCH  14   5
BRANCH  10   1
ATOM      1  O   UNL     1      10.935   9.575   4.675  0.00  0.00    -0.391 OA
ATOM     35  H   UNL     1      10.113   9.693   4.171  0.00  0.00    +0.210 HD
ENDBRANCH  10   1
BRANCH  13  18
ATOM     18  C   UNL     1       9.987  10.581   7.269  0.00  0.00    +0.077 C 
ATOM     20  C   UNL     1       9.925  10.430   8.785  0.00  0.00    +0.017 C 
BRANCH  18  21
ATOM      2  O   UNL     1       9.075  12.822   7.374  0.00  0.00    -0.276 OA
ATOM      6  N   UNL     1       8.403  11.431   5.644  0.00  0.00    -0.308 N 
ATOM     21  C   UNL     1       9.120  11.741   6.791  0.00  0.00    +0.217 C 
ATOM     36  H   UNL     1       8.478  10.501   5.244  0.00  0.00    +0.149 HD
BRANCH   6  29
ATOM     29  C   UNL     1       7.510  12.369   5.004  0.00  0.00    +0.178 C 
BRANCH  29  30
ATOM      4  O   UNL     1       5.347  12.429   3.896  0.00  0.00    -0.466 OA
ATOM     30  C   UNL     1       6.428  11.675   4.228  0.00  0.00    +0.122 A 
ATOM     31  C   UNL     1       6.283  10.389   3.760  0.00  0.00    +0.046 A 
ATOM     32  C   UNL     1       5.032  10.352   3.097  0.00  0.00    +0.041 A 
ATOM     33  C   UNL     1       4.503  11.617   3.208  0.00  0.00    +0.195 A 
ENDBRANCH  29  30
ENDBRANCH   6  29
ENDBRANCH  18  21
ENDBRANCH  13  18
TORSDOF 7
ENDMDL
MODEL 9
REMARK VINA RESULT:      -6.7     23.823     25.768
REMARK  Name = 45361456
REMARK  10 active torsions:
REMARK  status: ('A' for Active; 'I' for Inactive)
REMARK    1  A    between atoms: O_1  and  C_10
REMARK    2  A    between atoms: N_5  and  C_14
REMARK    3  A    between atoms: N_6  and  C_29
REMARK    4  A    between atoms: C_7  and  C_17
REMARK    5  A    between atoms: C_9  and  C_19
REMARK    6  A    between atoms: C_13  and  C_18
REMARK    7  A    between atoms: C_18  and  C_20
REMARK    8  A    between atoms: C_18  and  C_21
REMARK    9  A    between atoms: C_22  and  C_23
REMARK   10  A    between atoms: C_29  and  C_30
REMARK                            x       y       z     vdW  Elec       q    Type
REMARK                         _______ _______ _______ _____ _____    ______ ____
ROOT
ATOM      7  C   UNL     1      13.787   4.912   0.889  0.00  0.00    -0.027 C 
ATOM      8  C   UNL     1      12.235   5.086   0.993  0.00  0.00    +0.028 C 
ATOM      9  C   UNL     1      11.785   5.205   2.494  0.00  0.00    +0.012 C 
ATOM     10  C   UNL     1      11.489   4.009   0.154  0.00  0.00    +0.122 C 
ATOM     11  C   UNL     1      14.208   4.912  -0.599  0.00  0.00    +0.007 C 
ATOM     12  C   UNL     1      14.477   6.114   1.574  0.00  0.00    +0.009 C 
ATOM     13  C   UNL     1      11.987   3.944  -1.308  0.00  0.00    +0.029 C 
ATOM     14  C   UNL     1      12.541   6.370   3.192  0.00  0.00    +0.076 C 
ATOM     15  C   UNL     1      13.508   3.834  -1.415  0.00  0.00    +0.007 C 
ATOM     16  C   UNL     1      14.058   6.295   3.026  0.00  0.00    +0.023 C 
ATOM     17  C   UNL     1      14.282   3.597   1.546  0.00  0.00    +0.011 C 
ATOM     19  C   UNL     1      10.270   5.407   2.668  0.00  0.00    +0.010 C 
ENDROOT
BRANCH  14   5
ATOM      3  O   UNL     1      11.729   8.703   4.717  0.00  0.00    -0.276 OA
ATOM      5  N   UNL     1      12.237   6.434   4.606  0.00  0.00    -0.312 N 
ATOM     22  C   UNL     1      11.856   7.600   5.244  0.00  0.00    +0.216 C 
ATOM     34  H   UNL     1      12.360   5.586   5.152  0.00  0.00    +0.149 HD
BRANCH  22  23
ATOM     23  C   UNL     1      11.576   7.383   6.703  0.00  0.00    +0.075 C 
ATOM     24  C   UNL     1      10.847   8.585   7.308  0.00  0.00    +0.013 C 
ATOM     25  C   UNL     1      10.820   6.068   6.904  0.00  0.00    +0.013 C 
ATOM     26  C   UNL     1       9.366   8.646   6.937  0.00  0.00    +0.001 C 
ATOM     27  C   UNL     1       9.345   6.162   6.519  0.00  0.00    +0.001 C 
ATOM     28  C   UNL     1       8.654   7.328   7.217  0.00  0.00    +0.000 C 
ENDBRANCH  22  23
ENDBRANCH  14   5
BRANCH  10   1
ATOM      1  O   UNL     1      10.098   4.329   0.097  0.00  0.00    -0.391 OA
ATOM     35  H   UNL     1       9.937   5.086   0.686  0.00  0.00    +0.210 HD
ENDBRANCH  10   1
BRANCH  13  18
ATOM     18  C   UNL     1      11.334   2.792  -2.082  0.00  0.00    +0.077 C 
ATOM     20  C   UNL     1      12.374   1.725  -2.412  0.00  0.00    +0.017 C 
BRANCH  18  21
ATOM      2  O   UNL     1      11.197   3.271  -4.451  0.00  0.00    -0.276 OA
ATOM      6  N   UNL     1       9.414   3.868  -3.093  0.00  0.00    -0.308 N 
ATOM     21  C   UNL     1      10.665   3.325  -3.344  0.00  0.00    +0.217 C 
ATOM     36  H   UNL     1       9.064   3.897  -2.140  0.00  0.00    +0.149 HD
BRANCH   6  29
ATOM     29  C   UNL     1       8.587   4.439  -4.131  0.00  0.00    +0.178 C 
BRANCH  29  30
ATOM      4  O   UNL     1       8.386   6.245  -2.517  0.00  0.00    -0.466 OA
ATOM     30  C   UNL     1       8.116   5.820  -3.779  0.00  0.00    +0.122 A 
ATOM     31  C   UNL     1       7.442   6.791  -4.483  0.00  0.00    +0.046 A 
ATOM     32  C   UNL     1       7.289   7.884  -3.595  0.00  0.00    +0.041 A 
ATOM     33  C   UNL     1       7.880   7.501  -2.413  0.00  0.00    +0.195 A 
ENDBRANCH  29  30
ENDBRANCH   6  29
ENDBRANCH  18  21
ENDBRANCH  13  18
TORSDOF 7
ENDMDL
MODEL 10
REMARK VINA RESULT:      -6.6     25.962     28.787
REMARK  Name = 45361456
REMARK  10 active torsions:
REMARK  status: ('A' for Active; 'I' for Inactive)
REMARK    1  A    between atoms: O_1  and  C_10
REMARK    2  A    between atoms: N_5  and  C_14
REMARK    3  A    between atoms: N_6  and  C_29
REMARK    4  A    between atoms: C_7  and  C_17
REMARK    5  A    between atoms: C_9  and  C_19
REMARK    6  A    between atoms: C_13  and  C_18
REMARK    7  A    between atoms: C_18  and  C_20
REMARK    8  A    between atoms: C_18  and  C_21
REMARK    9  A    between atoms: C_22  and  C_23
REMARK   10  A    between atoms: C_29  and  C_30
REMARK                            x       y       z     vdW  Elec       q    Type
REMARK                         _______ _______ _______ _____ _____    ______ ____
ROOT
ATOM      7  C   UNL     1      13.878  10.344   5.768  0.00  0.00    -0.027 C 
ATOM      8  C   UNL     1      14.279   8.919   5.260  0.00  0.00    +0.028 C 
ATOM      9  C   UNL     1      15.759   8.909   4.734  0.00  0.00    +0.012 C 
ATOM     10  C   UNL     1      13.216   8.350   4.277  0.00  0.00    +0.122 C 
ATOM     11  C   UNL     1      12.460  10.293   6.381  0.00  0.00    +0.007 C 
ATOM     12  C   UNL     1      14.858  10.777   6.882  0.00  0.00    +0.009 C 
ATOM     13  C   UNL     1      11.783   8.398   4.857  0.00  0.00    +0.029 C 
ATOM     14  C   UNL     1      16.727   9.417   5.839  0.00  0.00    +0.076 C 
ATOM     15  C   UNL     1      11.409   9.774   5.409  0.00  0.00    +0.007 C 
ATOM     16  C   UNL     1      16.314  10.761   6.438  0.00  0.00    +0.023 C 
ATOM     17  C   UNL     1      13.893  11.403   4.636  0.00  0.00    +0.011 C 
ATOM     19  C   UNL     1      16.229   7.528   4.245  0.00  0.00    +0.010 C 
ENDROOT
BRANCH  14   5
ATOM      3  O   UNL     1      19.125   8.279   7.015  0.00  0.00    -0.276 OA
ATOM      5  N   UNL     1      18.085   9.530   5.351  0.00  0.00    -0.312 N 
ATOM     22  C   UNL     1      19.167   8.948   5.986  0.00  0.00    +0.216 C 
ATOM     34  H   UNL     1      18.243  10.109   4.530  0.00  0.00    +0.149 HD
BRANCH  22  23
ATOM     23  C   UNL     1      20.455   9.201   5.257  0.00  0.00    +0.075 C 
ATOM     24  C   UNL     1      21.541   8.219   5.704  0.00  0.00    +0.013 C 
ATOM     25  C   UNL     1      20.218   9.173   3.745  0.00  0.00    +0.013 C 
ATOM     26  C   UNL     1      21.374   6.819   5.117  0.00  0.00    +0.001 C 
ATOM     27  C   UNL     1      20.050   7.760   3.191  0.00  0.00    +0.001 C 
ATOM     28  C   UNL     1      21.204   6.853   3.603  0.00  0.00    +0.000 C 
ENDBRANCH  22  23
ENDBRANCH  14   5
BRANCH  10   1
ATOM      1  O   UNL     1      13.501   6.977   4.007  0.00  0.00    -0.391 OA
ATOM     35  H   UNL     1      12.982   6.707   3.231  0.00  0.00    +0.210 HD
ENDBRANCH  10   1
BRANCH  13  18
ATOM     18  C   UNL     1      10.736   7.957   3.827  0.00  0.00    +0.077 C 
ATOM     20  C   UNL     1       9.863   9.142   3.426  0.00  0.00    +0.017 C 
BRANCH  18  21
ATOM      2  O   UNL     1       8.678   6.754   4.253  0.00  0.00    -0.276 OA
ATOM      6  N   UNL     1      10.665   5.879   5.070  0.00  0.00    -0.308 N 
ATOM     21  C   UNL     1       9.898   6.815   4.392  0.00  0.00    +0.217 C 
ATOM     36  H   UNL     1      11.666   6.024   5.162  0.00  0.00    +0.149 HD
BRANCH   6  29
ATOM     29  C   UNL     1      10.095   4.708   5.695  0.00  0.00    +0.178 C 
BRANCH  29  30
ATOM      4  O   UNL     1       9.772   3.849   7.946  0.00  0.00    -0.466 OA
ATOM     30  C   UNL     1       9.770   4.944   7.141  0.00  0.00    +0.122 A 
ATOM     31  C   UNL     1       9.458   6.073   7.863  0.00  0.00    +0.046 A 
ATOM     32  C   UNL     1       9.255   5.643   9.197  0.00  0.00    +0.041 A 
ATOM     33  C   UNL     1       9.458   4.282   9.194  0.00  0.00    +0.195 A 
ENDBRANCH  29  30
ENDBRANCH   6  29
ENDBRANCH  18  21
ENDBRANCH  13  18
TORSDOF 7
ENDMDL
