REMARK  Name = 75536153
REMARK  11 active torsions:
REMARK  status: ('A' for Active; 'I' for Inactive)
REMARK    1  A    between atoms: O_3  and  C_26
REMARK    2  A    between atoms: O_3  and  C_31
REMARK    3  A    between atoms: N_4  and  C_15
REMARK    4  A    between atoms: N_7  and  C_28
REMARK    5  A    between atoms: C_8  and  C_12
REMARK    6  A    between atoms: C_9  and  C_15
REMARK    7  A    between atoms: C_11  and  C_16
REMARK    8  A    between atoms: C_12  and  C_17
REMARK    9  A    between atoms: C_12  and  C_18
REMARK   10  A    between atoms: C_13  and  C_19
REMARK   11  A    between atoms: C_16  and  C_20
REMARK                            x       y       z     vdW  Elec       q    Type
REMARK                         _______ _______ _______ _____ _____    ______ ____
ROOT
ATOM      8  C   UNL     1       0.218   2.436  -0.934  0.00  0.00    +0.000 C 
ATOM      9  C   UNL     1       1.070   3.575  -0.320  0.00  0.00    +0.032 C 
ATOM     10  C   UNL     1      -1.222   2.496  -0.401  0.00  0.00    +0.012 C 
ATOM     11  C   UNL     1      -1.280   2.376   1.134  0.00  0.00    +0.022 C 
ATOM     13  C   UNL     1      -0.270   3.282   1.808  0.00  0.00    -0.073 C 
ATOM     14  C   UNL     1       0.766   3.819   1.140  0.00  0.00    -0.022 C 
ATOM     19  C   UNL     1      -0.504   3.593   3.260  0.00  0.00    +0.039 C 
ENDROOT
BRANCH   8  12
ATOM     12  C   UNL     1       0.207   2.497  -2.465  0.00  0.00    -0.013 C 
ATOM     17  C   UNL     1      -0.089   1.120  -3.050  0.00  0.00    +0.007 C 
ATOM     18  C   UNL     1      -0.814   3.521  -2.949  0.00  0.00    +0.007 C 
ENDBRANCH   8  12
BRANCH   9  15
ATOM     15  C   UNL     1       2.568   3.298  -0.489  0.00  0.00    +0.113 C 
BRANCH  15   4
ATOM      2  O   UNL     1       3.727   0.889  -1.517  0.00  0.00    -0.253 OA
ATOM      4  N   UNL     1       2.961   2.150   0.265  0.00  0.00    -0.299 N 
ATOM      7  N   UNL     1       3.808   0.040   0.670  0.00  0.00    -0.269 N 
ATOM     21  C   UNL     1       3.526   0.996  -0.310  0.00  0.00    +0.304 C 
ATOM     35  H   UNL     1       2.891   2.188   1.277  0.00  0.00    +0.150 HD
ATOM     37  H   UNL     1       3.577   0.288   1.629  0.00  0.00    +0.156 HD
BRANCH   7  28
ATOM      1  F   UNL     1       6.038  -4.987  -0.024  0.00  0.00    -0.205 F 
ATOM     28  C   UNL     1       4.377  -1.242   0.493  0.00  0.00    +0.035 A 
ATOM     29  C   UNL     1       4.728  -1.679  -0.784  0.00  0.00    +0.026 A 
ATOM     30  C   UNL     1       4.587  -2.070   1.596  0.00  0.00    +0.026 A 
ATOM     32  C   UNL     1       5.290  -2.944  -0.959  0.00  0.00    +0.040 A 
ATOM     33  C   UNL     1       5.149  -3.335   1.421  0.00  0.00    +0.040 A 
ATOM     34  C   UNL     1       5.500  -3.772   0.144  0.00  0.00    +0.124 A 
ENDBRANCH   7  28
ENDBRANCH  15   4
ENDBRANCH   9  15
BRANCH  11  16
ATOM     16  C   UNL     1      -1.097   0.921   1.581  0.00  0.00    +0.082 C 
BRANCH  16  20
ATOM      5  N   UNL     1      -3.410  -0.012   1.384  0.00  0.00    -0.342 N 
ATOM      6  N   UNL     1      -1.916  -0.810  -0.056  0.00  0.00    -0.232 NA
ATOM     20  C   UNL     1      -2.116   0.019   0.945  0.00  0.00    +0.109 A 
ATOM     22  C   UNL     1      -4.091  -0.922   0.616  0.00  0.00    +0.070 A 
ATOM     23  C   UNL     1      -3.137  -1.406  -0.275  0.00  0.00    +0.089 A 
ATOM     24  C   UNL     1      -5.419  -1.350   0.624  0.00  0.00    +0.073 A 
ATOM     25  C   UNL     1      -3.512  -2.375  -1.220  0.00  0.00    +0.033 A 
ATOM     26  C   UNL     1      -5.775  -2.314  -0.324  0.00  0.00    +0.122 A 
ATOM     27  C   UNL     1      -4.840  -2.819  -1.231  0.00  0.00    +0.048 A 
ATOM     36  H   UNL     1      -3.798   0.537   2.139  0.00  0.00    +0.167 HD
BRANCH  26   3
ATOM      3  O   UNL     1      -7.060  -2.770  -0.362  0.00  0.00    -0.495 OA
ATOM     31  C   UNL     1      -7.969  -2.219   0.587  0.00  0.00    +0.277 C 
ENDBRANCH  26   3
ENDBRANCH  16  20
ENDBRANCH  11  16
TORSDOF 7
