MODEL 1
REMARK VINA RESULT:      -7.1      0.000      0.000
REMARK  Name = 11879690
REMARK  10 active torsions:
REMARK  status: ('A' for Active; 'I' for Inactive)
REMARK    1  A    between atoms: S_1  and  C_23
REMARK    2  A    between atoms: S_1  and  C_34
REMARK    3  A    between atoms: O_4  and  C_21
REMARK    4  A    between atoms: O_4  and  C_24
REMARK    5  A    between atoms: O_7  and  C_35
REMARK    6  A    between atoms: N_9  and  C_17
REMARK    7  A    between atoms: N_10  and  C_18
REMARK    8  A    between atoms: N_14  and  C_25
REMARK    9  A    between atoms: C_22  and  C_23
REMARK   10  A    between atoms: C_34  and  C_35
REMARK                            x       y       z     vdW  Elec       q    Type
REMARK                         _______ _______ _______ _____ _____    ______ ____
ROOT
ATOM      2  O   UNL     1      13.302   7.884  21.881  0.00  0.00    -0.370 OA
ATOM      3  O   UNL     1      10.295   8.132  20.993  0.00  0.00    -0.370 OA
ATOM     15  C   UNL     1      11.537   8.632  20.464  0.00  0.00    +0.176 C 
ATOM     16  C   UNL     1      12.416   8.989  21.646  0.00  0.00    +0.171 C 
ATOM     17  C   UNL     1      12.281   7.517  19.754  0.00  0.00    +0.171 C 
ATOM     18  C   UNL     1      11.449   9.140  22.799  0.00  0.00    +0.130 C 
ATOM     19  C   UNL     1      13.099   6.884  20.873  0.00  0.00    +0.190 C 
ATOM     20  C   UNL     1      10.347   8.165  22.426  0.00  0.00    +0.185 C 
ENDROOT
BRANCH  17   9
ATOM      9  N   UNL     1      13.061   8.000  18.612  0.00  0.00    -0.187 N 
ATOM     11  N   UNL     1      12.964   7.411  17.416  0.00  0.00    -0.041 NA
ATOM     12  N   UNL     1      14.409   9.107  17.335  0.00  0.00    -0.071 NA
ATOM     13  N   UNL     1      13.792   8.094  16.636  0.00  0.00    -0.020 NA
ATOM     21  C   UNL     1      13.939   9.029  18.559  0.00  0.00    +0.342 A 
BRANCH  21   4
ATOM      4  O   UNL     1      14.255   9.808  19.576  0.00  0.00    -0.423 OA
BRANCH   4  24
ATOM     24  C   UNL     1      15.560   9.954  20.029  0.00  0.00    +0.134 A 
ATOM     25  C   UNL     1      17.533   8.996  20.984  0.00  0.00    +0.033 A 
ATOM     26  C   UNL     1      16.223   8.850  20.529  0.00  0.00    +0.069 A 
ATOM     29  C   UNL     1      16.156  11.198  19.964  0.00  0.00    +0.046 A 
ATOM     32  C   UNL     1      18.155  10.244  20.929  0.00  0.00    +0.023 A 
ATOM     33  C   UNL     1      17.467  11.345  20.419  0.00  0.00    +0.005 A 
BRANCH  25  14
ATOM      6  O   UNL     1      20.114   6.014  20.663  0.00  0.00    -0.377 OA
ATOM     14  N   UNL     1      18.217   7.901  21.493  0.00  0.00    -0.325 N 
ATOM     27  C   UNL     1      17.812   6.519  21.224  0.00  0.00    +0.133 C 
ATOM     28  C   UNL     1      19.610   8.027  21.939  0.00  0.00    +0.133 C 
ATOM     30  C   UNL     1      18.764   5.927  20.191  0.00  0.00    +0.178 C 
ATOM     31  C   UNL     1      20.507   7.372  20.887  0.00  0.00    +0.178 C 
ENDBRANCH  25  14
ENDBRANCH   4  24
ENDBRANCH  21   4
ENDBRANCH  17   9
BRANCH  18  10
ATOM      5  O   UNL     1      11.256  10.787  25.171  0.00  0.00    -0.275 OA
ATOM     10  N   UNL     1      10.945  10.489  22.887  0.00  0.00    -0.307 N 
ATOM     22  C   UNL     1      10.892  11.205  24.073  0.00  0.00    +0.223 C 
ATOM     36  H   UNL     1      10.555  10.907  22.046  0.00  0.00    +0.149 HD
BRANCH  22  23
ATOM     23  C   UNL     1      10.307  12.588  23.904  0.00  0.00    +0.165 C 
BRANCH  23   1
ATOM      1  S   UNL     1      10.743  13.591  25.344  0.00  0.00    -0.140 S 
BRANCH   1  34
ATOM     34  C   UNL     1      12.358  14.180  24.784  0.00  0.00    +0.189 C 
BRANCH  34  35
ATOM      8  O   UNL     1      14.578  14.095  25.717  0.00  0.00    -0.250 OA
ATOM     35  C   UNL     1      13.421  13.693  25.726  0.00  0.00    +0.315 C 
BRANCH  35   7
ATOM      7  O   UNL     1      12.960  12.768  26.605  0.00  0.00    -0.480 OA
ATOM     37  H   UNL     1      13.661  12.138  26.874  0.00  0.00    +0.295 HD
ENDBRANCH  35   7
ENDBRANCH  34  35
ENDBRANCH   1  34
ENDBRANCH  23   1
ENDBRANCH  22  23
ENDBRANCH  18  10
TORSDOF 10
ENDMDL
MODEL 2
REMARK VINA RESULT:      -6.9      2.899      7.681
REMARK  Name = 11879690
REMARK  10 active torsions:
REMARK  status: ('A' for Active; 'I' for Inactive)
REMARK    1  A    between atoms: S_1  and  C_23
REMARK    2  A    between atoms: S_1  and  C_34
REMARK    3  A    between atoms: O_4  and  C_21
REMARK    4  A    between atoms: O_4  and  C_24
REMARK    5  A    between atoms: O_7  and  C_35
REMARK    6  A    between atoms: N_9  and  C_17
REMARK    7  A    between atoms: N_10  and  C_18
REMARK    8  A    between atoms: N_14  and  C_25
REMARK    9  A    between atoms: C_22  and  C_23
REMARK   10  A    between atoms: C_34  and  C_35
REMARK                            x       y       z     vdW  Elec       q    Type
REMARK                         _______ _______ _______ _____ _____    ______ ____
ROOT
ATOM      2  O   UNL     1      15.874  12.750  23.060  0.00  0.00    -0.370 OA
ATOM      3  O   UNL     1      15.047  10.738  20.788  0.00  0.00    -0.370 OA
ATOM     15  C   UNL     1      14.719  10.857  22.184  0.00  0.00    +0.176 C 
ATOM     16  C   UNL     1      15.970  11.326  22.900  0.00  0.00    +0.171 C 
ATOM     17  C   UNL     1      13.717  11.979  22.386  0.00  0.00    +0.171 C 
ATOM     18  C   UNL     1      17.096  10.980  21.951  0.00  0.00    +0.130 C 
ATOM     19  C   UNL     1      14.606  13.203  22.567  0.00  0.00    +0.190 C 
ATOM     20  C   UNL     1      16.422  11.096  20.596  0.00  0.00    +0.185 C 
ENDROOT
BRANCH  17   9
ATOM      9  N   UNL     1      12.792  11.715  23.490  0.00  0.00    -0.187 N 
ATOM     11  N   UNL     1      13.122  12.019  24.749  0.00  0.00    -0.041 NA
ATOM     12  N   UNL     1      11.085  11.116  24.674  0.00  0.00    -0.071 NA
ATOM     13  N   UNL     1      12.071  11.651  25.471  0.00  0.00    -0.020 NA
ATOM     21  C   UNL     1      11.555  11.166  23.449  0.00  0.00    +0.342 A 
BRANCH  21   4
ATOM      4  O   UNL     1      10.945  10.758  22.352  0.00  0.00    -0.423 OA
BRANCH   4  24
ATOM     24  C   UNL     1      11.211   9.528  21.763  0.00  0.00    +0.134 A 
ATOM     25  C   UNL     1      12.046   8.263  19.913  0.00  0.00    +0.033 A 
ATOM     26  C   UNL     1      11.779   9.497  20.504  0.00  0.00    +0.069 A 
ATOM     29  C   UNL     1      10.899   8.373  22.453  0.00  0.00    +0.046 A 
ATOM     32  C   UNL     1      11.739   7.084  20.591  0.00  0.00    +0.023 A 
ATOM     33  C   UNL     1      11.165   7.138  21.861  0.00  0.00    +0.005 A 
BRANCH  25  14
ATOM      6  O   UNL     1      12.748   9.752  16.314  0.00  0.00    -0.377 OA
ATOM     14  N   UNL     1      12.615   8.208  18.648  0.00  0.00    -0.325 N 
ATOM     27  C   UNL     1      11.862   7.808  17.457  0.00  0.00    +0.133 C 
ATOM     28  C   UNL     1      13.839   8.958  18.342  0.00  0.00    +0.133 C 
ATOM     30  C   UNL     1      11.539   9.058  16.645  0.00  0.00    +0.178 C 
ATOM     31  C   UNL     1      13.455  10.168  17.488  0.00  0.00    +0.178 C 
ENDBRANCH  25  14
ENDBRANCH   4  24
ENDBRANCH  21   4
ENDBRANCH  17   9
BRANCH  18  10
ATOM      5  O   UNL     1      19.564   9.819  20.983  0.00  0.00    -0.275 OA
ATOM     10  N   UNL     1      17.581   9.640  22.181  0.00  0.00    -0.307 N 
ATOM     22  C   UNL     1      18.783   9.169  21.675  0.00  0.00    +0.223 C 
ATOM     36  H   UNL     1      16.978   8.997  22.687  0.00  0.00    +0.149 HD
BRANCH  22  23
ATOM     23  C   UNL     1      19.054   7.729  22.041  0.00  0.00    +0.165 C 
BRANCH  23   1
ATOM      1  S   UNL     1      17.611   6.730  21.607  0.00  0.00    -0.140 S 
BRANCH   1  34
ATOM     34  C   UNL     1      17.723   6.861  19.807  0.00  0.00    +0.189 C 
BRANCH  34  35
ATOM      8  O   UNL     1      15.443   6.178  19.434  0.00  0.00    -0.250 OA
ATOM     35  C   UNL     1      16.632   6.043  19.178  0.00  0.00    +0.315 C 
BRANCH  35   7
ATOM      7  O   UNL     1      17.104   5.145  18.277  0.00  0.00    -0.480 OA
ATOM     37  H   UNL     1      16.474   4.408  18.132  0.00  0.00    +0.295 HD
ENDBRANCH  35   7
ENDBRANCH  34  35
ENDBRANCH   1  34
ENDBRANCH  23   1
ENDBRANCH  22  23
ENDBRANCH  18  10
TORSDOF 10
ENDMDL
MODEL 3
REMARK VINA RESULT:      -6.8      1.763      2.254
REMARK  Name = 11879690
REMARK  10 active torsions:
REMARK  status: ('A' for Active; 'I' for Inactive)
REMARK    1  A    between atoms: S_1  and  C_23
REMARK    2  A    between atoms: S_1  and  C_34
REMARK    3  A    between atoms: O_4  and  C_21
REMARK    4  A    between atoms: O_4  and  C_24
REMARK    5  A    between atoms: O_7  and  C_35
REMARK    6  A    between atoms: N_9  and  C_17
REMARK    7  A    between atoms: N_10  and  C_18
REMARK    8  A    between atoms: N_14  and  C_25
REMARK    9  A    between atoms: C_22  and  C_23
REMARK   10  A    between atoms: C_34  and  C_35
REMARK                            x       y       z     vdW  Elec       q    Type
REMARK                         _______ _______ _______ _____ _____    ______ ____
ROOT
ATOM      2  O   UNL     1      13.158   7.635  21.935  0.00  0.00    -0.370 OA
ATOM      3  O   UNL     1      10.275   8.310  20.875  0.00  0.00    -0.370 OA
ATOM     15  C   UNL     1      11.601   8.494  20.348  0.00  0.00    +0.176 C 
ATOM     16  C   UNL     1      12.503   8.842  21.514  0.00  0.00    +0.171 C 
ATOM     17  C   UNL     1      12.137   7.174  19.826  0.00  0.00    +0.171 C 
ATOM     18  C   UNL     1      11.555   9.326  22.589  0.00  0.00    +0.130 C 
ATOM     19  C   UNL     1      12.793   6.561  21.058  0.00  0.00    +0.190 C 
ATOM     20  C   UNL     1      10.298   8.529  22.292  0.00  0.00    +0.185 C 
ENDROOT
BRANCH  17   9
ATOM      9  N   UNL     1      13.021   7.343  18.671  0.00  0.00    -0.187 N 
ATOM     11  N   UNL     1      12.545   7.778  17.500  0.00  0.00    -0.041 NA
ATOM     12  N   UNL     1      14.737   7.398  17.357  0.00  0.00    -0.071 NA
ATOM     13  N   UNL     1      13.601   7.811  16.698  0.00  0.00    -0.020 NA
ATOM     21  C   UNL     1      14.353   7.114  18.580  0.00  0.00    +0.342 A 
BRANCH  21   4
ATOM      4  O   UNL     1      15.114   6.677  19.566  0.00  0.00    -0.423 OA
BRANCH   4  24
ATOM     24  C   UNL     1      16.108   7.457  20.143  0.00  0.00    +0.134 A 
ATOM     25  C   UNL     1      18.247   7.623  21.202  0.00  0.00    +0.033 A 
ATOM     26  C   UNL     1      17.249   6.841  20.622  0.00  0.00    +0.069 A 
ATOM     29  C   UNL     1      15.927   8.823  20.223  0.00  0.00    +0.046 A 
ATOM     32  C   UNL     1      18.085   9.005  21.293  0.00  0.00    +0.023 A 
ATOM     33  C   UNL     1      16.925   9.606  20.804  0.00  0.00    +0.005 A 
BRANCH  25  14
ATOM      6  O   UNL     1      22.169   7.449  21.694  0.00  0.00    -0.377 OA
ATOM     14  N   UNL     1      19.401   7.025  21.691  0.00  0.00    -0.325 N 
ATOM     27  C   UNL     1      20.274   6.193  20.860  0.00  0.00    +0.133 C 
ATOM     28  C   UNL     1      20.056   7.535  22.901  0.00  0.00    +0.133 C 
ATOM     30  C   UNL     1      21.516   7.001  20.501  0.00  0.00    +0.178 C 
ATOM     31  C   UNL     1      21.316   8.291  22.478  0.00  0.00    +0.178 C 
ENDBRANCH  25  14
ENDBRANCH   4  24
ENDBRANCH  21   4
ENDBRANCH  17   9
BRANCH  18  10
ATOM      5  O   UNL     1      11.016  11.190  24.736  0.00  0.00    -0.275 OA
ATOM     10  N   UNL     1      11.315  10.744  22.475  0.00  0.00    -0.307 N 
ATOM     22  C   UNL     1      11.064  11.563  23.565  0.00  0.00    +0.223 C 
ATOM     36  H   UNL     1      11.267  11.145  21.542  0.00  0.00    +0.149 HD
BRANCH  22  23
ATOM     23  C   UNL     1      10.827  13.004  23.180  0.00  0.00    +0.165 C 
BRANCH  23   1
ATOM      1  S   UNL     1      11.472  13.281  21.513  0.00  0.00    -0.140 S 
BRANCH   1  34
ATOM     34  C   UNL     1      13.158  13.765  21.953  0.00  0.00    +0.189 C 
BRANCH  34  35
ATOM      8  O   UNL     1      14.373  11.723  22.355  0.00  0.00    -0.250 OA
ATOM     35  C   UNL     1      14.104  12.652  21.605  0.00  0.00    +0.315 C 
BRANCH  35   7
ATOM      7  O   UNL     1      14.622  12.776  20.357  0.00  0.00    -0.480 OA
ATOM     37  H   UNL     1      14.678  13.714  20.076  0.00  0.00    +0.295 HD
ENDBRANCH  35   7
ENDBRANCH  34  35
ENDBRANCH   1  34
ENDBRANCH  23   1
ENDBRANCH  22  23
ENDBRANCH  18  10
TORSDOF 10
ENDMDL
MODEL 4
REMARK VINA RESULT:      -6.8      4.754      8.497
REMARK  Name = 11879690
REMARK  10 active torsions:
REMARK  status: ('A' for Active; 'I' for Inactive)
REMARK    1  A    between atoms: S_1  and  C_23
REMARK    2  A    between atoms: S_1  and  C_34
REMARK    3  A    between atoms: O_4  and  C_21
REMARK    4  A    between atoms: O_4  and  C_24
REMARK    5  A    between atoms: O_7  and  C_35
REMARK    6  A    between atoms: N_9  and  C_17
REMARK    7  A    between atoms: N_10  and  C_18
REMARK    8  A    between atoms: N_14  and  C_25
REMARK    9  A    between atoms: C_22  and  C_23
REMARK   10  A    between atoms: C_34  and  C_35
REMARK                            x       y       z     vdW  Elec       q    Type
REMARK                         _______ _______ _______ _____ _____    ______ ____
ROOT
ATOM      2  O   UNL     1      13.335   8.413  15.922  0.00  0.00    -0.370 OA
ATOM      3  O   UNL     1      14.827  10.905  17.129  0.00  0.00    -0.370 OA
ATOM     15  C   UNL     1      13.546  10.294  17.370  0.00  0.00    +0.176 C 
ATOM     16  C   UNL     1      13.022   9.810  16.033  0.00  0.00    +0.171 C 
ATOM     17  C   UNL     1      13.723   9.033  18.195  0.00  0.00    +0.171 C 
ATOM     18  C   UNL     1      13.805  10.606  15.014  0.00  0.00    +0.130 C 
ATOM     19  C   UNL     1      13.950   7.961  17.136  0.00  0.00    +0.190 C 
ATOM     20  C   UNL     1      15.124  10.835  15.728  0.00  0.00    +0.185 C 
ENDROOT
BRANCH  17   9
ATOM      9  N   UNL     1      12.593   8.788  19.095  0.00  0.00    -0.187 N 
ATOM     11  N   UNL     1      11.407   8.398  18.616  0.00  0.00    -0.041 NA
ATOM     12  N   UNL     1      11.329   8.583  20.837  0.00  0.00    -0.071 NA
ATOM     13  N   UNL     1      10.636   8.273  19.688  0.00  0.00    -0.020 NA
ATOM     21  C   UNL     1      12.541   8.899  20.443  0.00  0.00    +0.342 A 
BRANCH  21   4
ATOM      4  O   UNL     1      13.550   9.266  21.211  0.00  0.00    -0.423 OA
BRANCH   4  24
ATOM     24  C   UNL     1      13.792  10.592  21.543  0.00  0.00    +0.134 A 
ATOM     25  C   UNL     1      13.374  12.474  22.960  0.00  0.00    +0.033 A 
ATOM     26  C   UNL     1      13.132  11.143  22.626  0.00  0.00    +0.069 A 
ATOM     29  C   UNL     1      14.683  11.323  20.783  0.00  0.00    +0.046 A 
ATOM     32  C   UNL     1      14.271  13.231  22.205  0.00  0.00    +0.023 A 
ATOM     33  C   UNL     1      14.926  12.655  21.117  0.00  0.00    +0.005 A 
BRANCH  25  14
ATOM      6  O   UNL     1      10.173  13.084  25.205  0.00  0.00    -0.377 OA
ATOM     14  N   UNL     1      12.721  13.048  24.043  0.00  0.00    -0.325 N 
ATOM     27  C   UNL     1      11.872  14.235  23.917  0.00  0.00    +0.133 C 
ATOM     28  C   UNL     1      12.469  12.274  25.263  0.00  0.00    +0.133 C 
ATOM     30  C   UNL     1      10.413  13.797  23.986  0.00  0.00    +0.178 C 
ATOM     31  C   UNL     1      10.985  11.908  25.297  0.00  0.00    +0.178 C 
ENDBRANCH  25  14
ENDBRANCH   4  24
ENDBRANCH  21   4
ENDBRANCH  17   9
BRANCH  18  10
ATOM      5  O   UNL     1      13.638  11.916  12.438  0.00  0.00    -0.275 OA
ATOM     10  N   UNL     1      13.151  11.855  14.710  0.00  0.00    -0.307 N 
ATOM     22  C   UNL     1      13.121  12.409  13.439  0.00  0.00    +0.223 C 
ATOM     36  H   UNL     1      12.747  12.380  15.481  0.00  0.00    +0.149 HD
BRANCH  22  23
ATOM     23  C   UNL     1      12.390  13.730  13.387  0.00  0.00    +0.165 C 
BRANCH  23   1
ATOM      1  S   UNL     1      11.254  13.718  11.979  0.00  0.00    -0.140 S 
BRANCH   1  34
ATOM     34  C   UNL     1      10.201  12.341  12.493  0.00  0.00    +0.189 C 
BRANCH  34  35
ATOM      8  O   UNL     1       8.894  13.838  13.855  0.00  0.00    -0.250 OA
ATOM     35  C   UNL     1       8.936  12.878  13.097  0.00  0.00    +0.315 C 
BRANCH  35   7
ATOM      7  O   UNL     1       7.833  12.195  12.698  0.00  0.00    -0.480 OA
ATOM     37  H   UNL     1       7.650  12.322  11.743  0.00  0.00    +0.295 HD
ENDBRANCH  35   7
ENDBRANCH  34  35
ENDBRANCH   1  34
ENDBRANCH  23   1
ENDBRANCH  22  23
ENDBRANCH  18  10
TORSDOF 10
ENDMDL
MODEL 5
REMARK VINA RESULT:      -6.5      4.839      8.784
REMARK  Name = 11879690
REMARK  10 active torsions:
REMARK  status: ('A' for Active; 'I' for Inactive)
REMARK    1  A    between atoms: S_1  and  C_23
REMARK    2  A    between atoms: S_1  and  C_34
REMARK    3  A    between atoms: O_4  and  C_21
REMARK    4  A    between atoms: O_4  and  C_24
REMARK    5  A    between atoms: O_7  and  C_35
REMARK    6  A    between atoms: N_9  and  C_17
REMARK    7  A    between atoms: N_10  and  C_18
REMARK    8  A    between atoms: N_14  and  C_25
REMARK    9  A    between atoms: C_22  and  C_23
REMARK   10  A    between atoms: C_34  and  C_35
REMARK                            x       y       z     vdW  Elec       q    Type
REMARK                         _______ _______ _______ _____ _____    ______ ____
ROOT
ATOM      2  O   UNL     1      14.869   9.455  14.516  0.00  0.00    -0.370 OA
ATOM      3  O   UNL     1      14.984  11.797  16.612  0.00  0.00    -0.370 OA
ATOM     15  C   UNL     1      13.917  11.014  16.048  0.00  0.00    +0.176 C 
ATOM     16  C   UNL     1      14.269  10.757  14.596  0.00  0.00    +0.171 C 
ATOM     17  C   UNL     1      13.893   9.638  16.687  0.00  0.00    +0.171 C 
ATOM     18  C   UNL     1      15.286  11.825  14.263  0.00  0.00    +0.130 C 
ATOM     19  C   UNL     1      14.846   8.836  15.809  0.00  0.00    +0.190 C 
ATOM     20  C   UNL     1      15.969  12.048  15.600  0.00  0.00    +0.185 C 
ENDROOT
BRANCH  17   9
ATOM      9  N   UNL     1      12.538   9.092  16.794  0.00  0.00    -0.187 N 
ATOM     11  N   UNL     1      11.683   9.172  15.769  0.00  0.00    -0.041 NA
ATOM     12  N   UNL     1      10.729   8.143  17.502  0.00  0.00    -0.071 NA
ATOM     13  N   UNL     1      10.575   8.588  16.208  0.00  0.00    -0.020 NA
ATOM     21  C   UNL     1      11.955   8.466  17.843  0.00  0.00    +0.342 A 
BRANCH  21   4
ATOM      4  O   UNL     1      12.538   8.234  19.004  0.00  0.00    -0.423 OA
BRANCH   4  24
ATOM     24  C   UNL     1      11.871   8.366  20.215  0.00  0.00    +0.134 A 
ATOM     25  C   UNL     1      11.091   9.753  22.002  0.00  0.00    +0.033 A 
ATOM     26  C   UNL     1      11.760   9.620  20.786  0.00  0.00    +0.069 A 
ATOM     29  C   UNL     1      11.339   7.241  20.814  0.00  0.00    +0.046 A 
ATOM     32  C   UNL     1      10.546   8.630  22.624  0.00  0.00    +0.023 A 
ATOM     33  C   UNL     1      10.670   7.374  22.031  0.00  0.00    +0.005 A 
BRANCH  25  14
ATOM      6  O   UNL     1      12.589  12.946  23.797  0.00  0.00    -0.377 OA
ATOM     14  N   UNL     1      10.969  11.003  22.594  0.00  0.00    -0.325 N 
ATOM     27  C   UNL     1      10.937  11.191  24.046  0.00  0.00    +0.133 C 
ATOM     28  C   UNL     1      11.314  12.221  21.852  0.00  0.00    +0.133 C 
ATOM     30  C   UNL     1      12.291  11.731  24.495  0.00  0.00    +0.178 C 
ATOM     31  C   UNL     1      12.653  12.738  22.381  0.00  0.00    +0.178 C 
ENDBRANCH  25  14
ENDBRANCH   4  24
ENDBRANCH  21   4
ENDBRANCH  17   9
BRANCH  18  10
ATOM      5  O   UNL     1      13.735  12.161  11.843  0.00  0.00    -0.275 OA
ATOM     10  N   UNL     1      14.645  13.031  13.796  0.00  0.00    -0.307 N 
ATOM     22  C   UNL     1      13.918  13.098  12.617  0.00  0.00    +0.223 C 
ATOM     36  H   UNL     1      14.790  13.884  14.329  0.00  0.00    +0.149 HD
BRANCH  22  23
ATOM     23  C   UNL     1      13.364  14.476  12.342  0.00  0.00    +0.165 C 
BRANCH  23   1
ATOM      1  S   UNL     1      11.852  14.705  13.308  0.00  0.00    -0.140 S 
BRANCH   1  34
ATOM     34  C   UNL     1      10.694  13.867  12.200  0.00  0.00    +0.189 C 
BRANCH  34  35
ATOM      8  O   UNL     1       8.886  12.501  13.019  0.00  0.00    -0.250 OA
ATOM     35  C   UNL     1      10.090  12.688  12.908  0.00  0.00    +0.315 C 
BRANCH  35   7
ATOM      7  O   UNL     1      11.025  11.837  13.400  0.00  0.00    -0.480 OA
ATOM     37  H   UNL     1      11.773  12.316  13.816  0.00  0.00    +0.295 HD
ENDBRANCH  35   7
ENDBRANCH  34  35
ENDBRANCH   1  34
ENDBRANCH  23   1
ENDBRANCH  22  23
ENDBRANCH  18  10
TORSDOF 10
ENDMDL
MODEL 6
REMARK VINA RESULT:      -6.5     27.860     29.799
REMARK  Name = 11879690
REMARK  10 active torsions:
REMARK  status: ('A' for Active; 'I' for Inactive)
REMARK    1  A    between atoms: S_1  and  C_23
REMARK    2  A    between atoms: S_1  and  C_34
REMARK    3  A    between atoms: O_4  and  C_21
REMARK    4  A    between atoms: O_4  and  C_24
REMARK    5  A    between atoms: O_7  and  C_35
REMARK    6  A    between atoms: N_9  and  C_17
REMARK    7  A    between atoms: N_10  and  C_18
REMARK    8  A    between atoms: N_14  and  C_25
REMARK    9  A    between atoms: C_22  and  C_23
REMARK   10  A    between atoms: C_34  and  C_35
REMARK                            x       y       z     vdW  Elec       q    Type
REMARK                         _______ _______ _______ _____ _____    ______ ____
ROOT
ATOM      2  O   UNL     1      -5.205 -10.609  18.105  0.00  0.00    -0.370 OA
ATOM      3  O   UNL     1      -6.812 -11.674  15.621  0.00  0.00    -0.370 OA
ATOM     15  C   UNL     1      -5.676 -10.805  15.777  0.00  0.00    +0.176 C 
ATOM     16  C   UNL     1      -5.911  -9.979  17.026  0.00  0.00    +0.171 C 
ATOM     17  C   UNL     1      -4.438 -11.626  16.085  0.00  0.00    +0.171 C 
ATOM     18  C   UNL     1      -7.403 -10.065  17.255  0.00  0.00    +0.130 C 
ATOM     19  C   UNL     1      -4.469 -11.734  17.605  0.00  0.00    +0.190 C 
ATOM     20  C   UNL     1      -7.739 -11.432  16.689  0.00  0.00    +0.185 C 
ENDROOT
BRANCH  17   9
ATOM      9  N   UNL     1      -3.218 -11.034  15.530  0.00  0.00    -0.187 N 
ATOM     11  N   UNL     1      -2.275 -10.528  16.331  0.00  0.00    -0.041 NA
ATOM     12  N   UNL     1      -1.681 -10.310  14.193  0.00  0.00    -0.071 NA
ATOM     13  N   UNL     1      -1.334 -10.086  15.507  0.00  0.00    -0.020 NA
ATOM     21  C   UNL     1      -2.854 -10.900  14.233  0.00  0.00    +0.342 A 
BRANCH  21   4
ATOM      4  O   UNL     1      -3.572 -11.300  13.201  0.00  0.00    -0.423 OA
BRANCH   4  24
ATOM     24  C   UNL     1      -3.793 -10.497  12.089  0.00  0.00    +0.134 A 
ATOM     25  C   UNL     1      -5.304  -9.281  10.689  0.00  0.00    +0.033 A 
ATOM     26  C   UNL     1      -5.082 -10.086  11.805  0.00  0.00    +0.069 A 
ATOM     29  C   UNL     1      -2.720 -10.133  11.300  0.00  0.00    +0.046 A 
ATOM     32  C   UNL     1      -4.235  -8.901   9.878  0.00  0.00    +0.023 A 
ATOM     33  C   UNL     1      -2.942  -9.328  10.183  0.00  0.00    +0.005 A 
BRANCH  25  14
ATOM      6  O   UNL     1      -8.792  -9.691   8.865  0.00  0.00    -0.377 OA
ATOM     14  N   UNL     1      -6.591  -8.858  10.384  0.00  0.00    -0.325 N 
ATOM     27  C   UNL     1      -6.923  -8.173   9.132  0.00  0.00    +0.133 C 
ATOM     28  C   UNL     1      -7.754  -9.449  11.055  0.00  0.00    +0.133 C 
ATOM     30  C   UNL     1      -7.632  -9.160   8.212  0.00  0.00    +0.178 C 
ATOM     31  C   UNL     1      -8.448 -10.388  10.067  0.00  0.00    +0.178 C 
ENDBRANCH  25  14
ENDBRANCH   4  24
ENDBRANCH  21   4
ENDBRANCH  17   9
BRANCH  18  10
ATOM      5  O   UNL     1      -9.963  -8.896  17.934  0.00  0.00    -0.275 OA
ATOM     10  N   UNL     1      -8.102  -9.020  16.547  0.00  0.00    -0.307 N 
ATOM     22  C   UNL     1      -9.332  -8.519  16.949  0.00  0.00    +0.223 C 
ATOM     36  H   UNL     1      -7.698  -8.682  15.677  0.00  0.00    +0.149 HD
BRANCH  22  23
ATOM     23  C   UNL     1      -9.861  -7.444  16.030  0.00  0.00    +0.165 C 
BRANCH  23   1
ATOM      1  S   UNL     1     -11.301  -8.085  15.143  0.00  0.00    -0.140 S 
BRANCH   1  34
ATOM     34  C   UNL     1     -12.522  -6.873  15.698  0.00  0.00    +0.189 C 
BRANCH  34  35
ATOM      8  O   UNL     1     -12.184  -5.065  14.142  0.00  0.00    -0.250 OA
ATOM     35  C   UNL     1     -12.892  -5.976  14.552  0.00  0.00    +0.315 C 
BRANCH  35   7
ATOM      7  O   UNL     1     -14.092  -6.292  14.004  0.00  0.00    -0.480 OA
ATOM     37  H   UNL     1     -14.603  -6.907  14.573  0.00  0.00    +0.295 HD
ENDBRANCH  35   7
ENDBRANCH  34  35
ENDBRANCH   1  34
ENDBRANCH  23   1
ENDBRANCH  22  23
ENDBRANCH  18  10
TORSDOF 10
ENDMDL
MODEL 7
REMARK VINA RESULT:      -6.5      3.030      6.897
REMARK  Name = 11879690
REMARK  10 active torsions:
REMARK  status: ('A' for Active; 'I' for Inactive)
REMARK    1  A    between atoms: S_1  and  C_23
REMARK    2  A    between atoms: S_1  and  C_34
REMARK    3  A    between atoms: O_4  and  C_21
REMARK    4  A    between atoms: O_4  and  C_24
REMARK    5  A    between atoms: O_7  and  C_35
REMARK    6  A    between atoms: N_9  and  C_17
REMARK    7  A    between atoms: N_10  and  C_18
REMARK    8  A    between atoms: N_14  and  C_25
REMARK    9  A    between atoms: C_22  and  C_23
REMARK   10  A    between atoms: C_34  and  C_35
REMARK                            x       y       z     vdW  Elec       q    Type
REMARK                         _______ _______ _______ _____ _____    ______ ____
ROOT
ATOM      2  O   UNL     1      13.402   7.337  17.273  0.00  0.00    -0.370 OA
ATOM      3  O   UNL     1      13.904   9.271  19.702  0.00  0.00    -0.370 OA
ATOM     15  C   UNL     1      14.439   9.182  18.369  0.00  0.00    +0.176 C 
ATOM     16  C   UNL     1      14.562   7.710  18.032  0.00  0.00    +0.171 C 
ATOM     17  C   UNL     1      13.431   9.722  17.372  0.00  0.00    +0.171 C 
ATOM     18  C   UNL     1      14.555   7.017  19.376  0.00  0.00    +0.130 C 
ATOM     19  C   UNL     1      12.591   8.496  17.036  0.00  0.00    +0.190 C 
ATOM     20  C   UNL     1      13.697   7.947  20.214  0.00  0.00    +0.185 C 
ENDROOT
BRANCH  17   9
ATOM      9  N   UNL     1      14.069  10.372  16.224  0.00  0.00    -0.187 N 
ATOM     11  N   UNL     1      14.521   9.652  15.193  0.00  0.00    -0.041 NA
ATOM     12  N   UNL     1      14.895  11.823  14.851  0.00  0.00    -0.071 NA
ATOM     13  N   UNL     1      15.026  10.546  14.353  0.00  0.00    -0.020 NA
ATOM     21  C   UNL     1      14.298  11.689  16.013  0.00  0.00    +0.342 A 
BRANCH  21   4
ATOM      4  O   UNL     1      13.969  12.657  16.848  0.00  0.00    -0.423 OA
BRANCH   4  24
ATOM     24  C   UNL     1      14.396  12.682  18.169  0.00  0.00    +0.134 A 
ATOM     25  C   UNL     1      13.881  12.777  20.503  0.00  0.00    +0.033 A 
ATOM     26  C   UNL     1      13.453  12.752  19.177  0.00  0.00    +0.069 A 
ATOM     29  C   UNL     1      15.750  12.634  18.437  0.00  0.00    +0.046 A 
ATOM     32  C   UNL     1      15.244  12.731  20.797  0.00  0.00    +0.023 A 
ATOM     33  C   UNL     1      16.179  12.660  19.764  0.00  0.00    +0.005 A 
BRANCH  25  14
ATOM      6  O   UNL     1      11.999  11.275  23.643  0.00  0.00    -0.377 OA
ATOM     14  N   UNL     1      12.951  12.850  21.532  0.00  0.00    -0.325 N 
ATOM     27  C   UNL     1      11.628  12.228  21.447  0.00  0.00    +0.133 C 
ATOM     28  C   UNL     1      13.373  13.146  22.905  0.00  0.00    +0.133 C 
ATOM     30  C   UNL     1      11.632  10.961  22.294  0.00  0.00    +0.178 C 
ATOM     31  C   UNL     1      13.309  11.849  23.713  0.00  0.00    +0.178 C 
ENDBRANCH  25  14
ENDBRANCH   4  24
ENDBRANCH  21   4
ENDBRANCH  17   9
BRANCH  18  10
ATOM      5  O   UNL     1      16.751   5.456  18.320  0.00  0.00    -0.275 OA
ATOM     10  N   UNL     1      15.888   6.908  19.916  0.00  0.00    -0.307 N 
ATOM     22  C   UNL     1      16.882   6.131  19.339  0.00  0.00    +0.223 C 
ATOM     36  H   UNL     1      16.085   7.375  20.798  0.00  0.00    +0.149 HD
BRANCH  22  23
ATOM     23  C   UNL     1      18.183   6.170  20.105  0.00  0.00    +0.165 C 
BRANCH  23   1
ATOM      1  S   UNL     1      18.169   7.598  21.215  0.00  0.00    -0.140 S 
BRANCH   1  34
ATOM     34  C   UNL     1      19.922   7.613  21.658  0.00  0.00    +0.189 C 
BRANCH  34  35
ATOM      8  O   UNL     1      20.971   5.492  22.112  0.00  0.00    -0.250 OA
ATOM     35  C   UNL     1      20.239   6.400  22.484  0.00  0.00    +0.315 C 
BRANCH  35   7
ATOM      7  O   UNL     1      19.638   6.422  23.700  0.00  0.00    -0.480 OA
ATOM     37  H   UNL     1      20.147   6.954  24.349  0.00  0.00    +0.295 HD
ENDBRANCH  35   7
ENDBRANCH  34  35
ENDBRANCH   1  34
ENDBRANCH  23   1
ENDBRANCH  22  23
ENDBRANCH  18  10
TORSDOF 10
ENDMDL
MODEL 8
REMARK VINA RESULT:      -6.5      3.925      5.993
REMARK  Name = 11879690
REMARK  10 active torsions:
REMARK  status: ('A' for Active; 'I' for Inactive)
REMARK    1  A    between atoms: S_1  and  C_23
REMARK    2  A    between atoms: S_1  and  C_34
REMARK    3  A    between atoms: O_4  and  C_21
REMARK    4  A    between atoms: O_4  and  C_24
REMARK    5  A    between atoms: O_7  and  C_35
REMARK    6  A    between atoms: N_9  and  C_17
REMARK    7  A    between atoms: N_10  and  C_18
REMARK    8  A    between atoms: N_14  and  C_25
REMARK    9  A    between atoms: C_22  and  C_23
REMARK   10  A    between atoms: C_34  and  C_35
REMARK                            x       y       z     vdW  Elec       q    Type
REMARK                         _______ _______ _______ _____ _____    ______ ____
ROOT
ATOM      2  O   UNL     1      13.081   6.780  19.325  0.00  0.00    -0.370 OA
ATOM      3  O   UNL     1      14.515   9.230  20.680  0.00  0.00    -0.370 OA
ATOM     15  C   UNL     1      14.486   8.705  19.340  0.00  0.00    +0.176 C 
ATOM     16  C   UNL     1      14.450   7.194  19.451  0.00  0.00    +0.171 C 
ATOM     17  C   UNL     1      13.177   9.074  18.669  0.00  0.00    +0.171 C 
ATOM     18  C   UNL     1      14.958   6.909  20.847  0.00  0.00    +0.130 C 
ATOM     19  C   UNL     1      12.257   7.923  19.059  0.00  0.00    +0.190 C 
ATOM     20  C   UNL     1      14.506   8.140  21.611  0.00  0.00    +0.185 C 
ENDROOT
BRANCH  17   9
ATOM      9  N   UNL     1      13.325   9.289  17.227  0.00  0.00    -0.187 N 
ATOM     11  N   UNL     1      13.113   8.295  16.360  0.00  0.00    -0.041 NA
ATOM     12  N   UNL     1      13.682  10.162  15.282  0.00  0.00    -0.071 NA
ATOM     13  N   UNL     1      13.333   8.835  15.168  0.00  0.00    -0.020 NA
ATOM     21  C   UNL     1      13.669  10.421  16.569  0.00  0.00    +0.342 A 
BRANCH  21   4
ATOM      4  O   UNL     1      13.944  11.577  17.144  0.00  0.00    -0.423 OA
BRANCH   4  24
ATOM     24  C   UNL     1      15.244  12.022  17.344  0.00  0.00    +0.134 A 
ATOM     25  C   UNL     1      17.047  12.531  18.832  0.00  0.00    +0.033 A 
ATOM     26  C   UNL     1      15.742  12.083  18.631  0.00  0.00    +0.069 A 
ATOM     29  C   UNL     1      16.002  12.390  16.249  0.00  0.00    +0.046 A 
ATOM     32  C   UNL     1      17.830  12.907  17.741  0.00  0.00    +0.023 A 
ATOM     33  C   UNL     1      17.308  12.837  16.450  0.00  0.00    +0.005 A 
BRANCH  25  14
ATOM      6  O   UNL     1      18.824  10.942  21.991  0.00  0.00    -0.377 OA
ATOM     14  N   UNL     1      17.566  12.602  20.118  0.00  0.00    -0.325 N 
ATOM     27  C   UNL     1      16.832  12.132  21.295  0.00  0.00    +0.133 C 
ATOM     28  C   UNL     1      19.012  12.721  20.338  0.00  0.00    +0.133 C 
ATOM     30  C   UNL     1      17.422  10.797  21.734  0.00  0.00    +0.178 C 
ATOM     31  C   UNL     1      19.533  11.367  20.821  0.00  0.00    +0.178 C 
ENDBRANCH  25  14
ENDBRANCH   4  24
ENDBRANCH  21   4
ENDBRANCH  17   9
BRANCH  18  10
ATOM      5  O   UNL     1      16.624   5.592  18.881  0.00  0.00    -0.275 OA
ATOM     10  N   UNL     1      16.395   6.781  20.864  0.00  0.00    -0.307 N 
ATOM     22  C   UNL     1      17.112   6.129  19.873  0.00  0.00    +0.223 C 
ATOM     36  H   UNL     1      16.894   7.133  21.677  0.00  0.00    +0.149 HD
BRANCH  22  23
ATOM     23  C   UNL     1      18.600   6.115  20.132  0.00  0.00    +0.165 C 
BRANCH  23   1
ATOM      1  S   UNL     1      18.981   7.312  21.434  0.00  0.00    -0.140 S 
BRANCH   1  34
ATOM     34  C   UNL     1      20.279   6.382  22.283  0.00  0.00    +0.189 C 
BRANCH  34  35
ATOM      8  O   UNL     1      21.445   7.958  23.684  0.00  0.00    -0.250 OA
ATOM     35  C   UNL     1      20.616   7.064  23.578  0.00  0.00    +0.315 C 
BRANCH  35   7
ATOM      7  O   UNL     1      19.889   6.594  24.623  0.00  0.00    -0.480 OA
ATOM     37  H   UNL     1      18.937   6.519  24.401  0.00  0.00    +0.295 HD
ENDBRANCH  35   7
ENDBRANCH  34  35
ENDBRANCH   1  34
ENDBRANCH  23   1
ENDBRANCH  22  23
ENDBRANCH  18  10
TORSDOF 10
ENDMDL
MODEL 9
REMARK VINA RESULT:      -6.4      4.201      7.468
REMARK  Name = 11879690
REMARK  10 active torsions:
REMARK  status: ('A' for Active; 'I' for Inactive)
REMARK    1  A    between atoms: S_1  and  C_23
REMARK    2  A    between atoms: S_1  and  C_34
REMARK    3  A    between atoms: O_4  and  C_21
REMARK    4  A    between atoms: O_4  and  C_24
REMARK    5  A    between atoms: O_7  and  C_35
REMARK    6  A    between atoms: N_9  and  C_17
REMARK    7  A    between atoms: N_10  and  C_18
REMARK    8  A    between atoms: N_14  and  C_25
REMARK    9  A    between atoms: C_22  and  C_23
REMARK   10  A    between atoms: C_34  and  C_35
REMARK                            x       y       z     vdW  Elec       q    Type
REMARK                         _______ _______ _______ _____ _____    ______ ____
ROOT
ATOM      2  O   UNL     1      11.742   9.553  16.988  0.00  0.00    -0.370 OA
ATOM      3  O   UNL     1      14.369   7.927  16.400  0.00  0.00    -0.370 OA
ATOM     15  C   UNL     1      13.753   8.429  17.599  0.00  0.00    +0.176 C 
ATOM     16  C   UNL     1      13.135   9.770  17.259  0.00  0.00    +0.171 C 
ATOM     17  C   UNL     1      12.578   7.549  17.983  0.00  0.00    +0.171 C 
ATOM     18  C   UNL     1      13.853  10.203  16.000  0.00  0.00    +0.130 C 
ATOM     19  C   UNL     1      11.418   8.174  17.216  0.00  0.00    +0.190 C 
ATOM     20  C   UNL     1      14.178   8.876  15.341  0.00  0.00    +0.185 C 
ENDROOT
BRANCH  17   9
ATOM      9  N   UNL     1      12.388   7.465  19.433  0.00  0.00    -0.187 N 
ATOM     11  N   UNL     1      11.252   7.878  20.002  0.00  0.00    -0.041 NA
ATOM     12  N   UNL     1      12.664   7.112  21.548  0.00  0.00    -0.071 NA
ATOM     13  N   UNL     1      11.425   7.658  21.299  0.00  0.00    -0.020 NA
ATOM     21  C   UNL     1      13.243   7.000  20.375  0.00  0.00    +0.342 A 
BRANCH  21   4
ATOM      4  O   UNL     1      14.450   6.523  20.133  0.00  0.00    -0.423 OA
BRANCH   4  24
ATOM     24  C   UNL     1      15.605   7.159  20.567  0.00  0.00    +0.134 A 
ATOM     25  C   UNL     1      16.761   9.172  21.147  0.00  0.00    +0.033 A 
ATOM     26  C   UNL     1      15.600   8.533  20.712  0.00  0.00    +0.069 A 
ATOM     29  C   UNL     1      16.726   6.400  20.840  0.00  0.00    +0.046 A 
ATOM     32  C   UNL     1      17.904   8.425  21.429  0.00  0.00    +0.023 A 
ATOM     33  C   UNL     1      17.887   7.039  21.275  0.00  0.00    +0.005 A 
BRANCH  25  14
ATOM      6  O   UNL     1      15.177  12.771  20.700  0.00  0.00    -0.377 OA
ATOM     14  N   UNL     1      16.778  10.552  21.299  0.00  0.00    -0.325 N 
ATOM     27  C   UNL     1      17.157  11.463  20.217  0.00  0.00    +0.133 C 
ATOM     28  C   UNL     1      16.007  11.200  22.366  0.00  0.00    +0.133 C 
ATOM     30  C   UNL     1      15.893  12.102  19.655  0.00  0.00    +0.178 C 
ATOM     31  C   UNL     1      14.781  11.861  21.733  0.00  0.00    +0.178 C 
ENDBRANCH  25  14
ENDBRANCH   4  24
ENDBRANCH  21   4
ENDBRANCH  17   9
BRANCH  18  10
ATOM      5  O   UNL     1      15.282  12.030  14.269  0.00  0.00    -0.275 OA
ATOM     10  N   UNL     1      15.053  10.942  16.309  0.00  0.00    -0.307 N 
ATOM     22  C   UNL     1      15.671  11.800  15.412  0.00  0.00    +0.223 C 
ATOM     36  H   UNL     1      15.496  10.773  17.209  0.00  0.00    +0.149 HD
BRANCH  22  23
ATOM     23  C   UNL     1      16.921  12.438  15.970  0.00  0.00    +0.165 C 
BRANCH  23   1
ATOM      1  S   UNL     1      18.073  12.758  14.613  0.00  0.00    -0.140 S 
BRANCH   1  34
ATOM     34  C   UNL     1      18.768  11.097  14.452  0.00  0.00    +0.189 C 
BRANCH  34  35
ATOM      8  O   UNL     1      20.844  12.200  13.922  0.00  0.00    -0.250 OA
ATOM     35  C   UNL     1      20.155  11.189  13.883  0.00  0.00    +0.315 C 
BRANCH  35   7
ATOM      7  O   UNL     1      20.574  10.022  13.331  0.00  0.00    -0.480 OA
ATOM     37  H   UNL     1      21.327  10.157  12.718  0.00  0.00    +0.295 HD
ENDBRANCH  35   7
ENDBRANCH  34  35
ENDBRANCH   1  34
ENDBRANCH  23   1
ENDBRANCH  22  23
ENDBRANCH  18  10
TORSDOF 10
ENDMDL
MODEL 10
REMARK VINA RESULT:      -6.4      4.591      7.113
REMARK  Name = 11879690
REMARK  10 active torsions:
REMARK  status: ('A' for Active; 'I' for Inactive)
REMARK    1  A    between atoms: S_1  and  C_23
REMARK    2  A    between atoms: S_1  and  C_34
REMARK    3  A    between atoms: O_4  and  C_21
REMARK    4  A    between atoms: O_4  and  C_24
REMARK    5  A    between atoms: O_7  and  C_35
REMARK    6  A    between atoms: N_9  and  C_17
REMARK    7  A    between atoms: N_10  and  C_18
REMARK    8  A    between atoms: N_14  and  C_25
REMARK    9  A    between atoms: C_22  and  C_23
REMARK   10  A    between atoms: C_34  and  C_35
REMARK                            x       y       z     vdW  Elec       q    Type
REMARK                         _______ _______ _______ _____ _____    ______ ____
ROOT
ATOM      2  O   UNL     1      11.843   9.463  17.248  0.00  0.00    -0.370 OA
ATOM      3  O   UNL     1      14.345   7.816  16.288  0.00  0.00    -0.370 OA
ATOM     15  C   UNL     1      13.900   8.301  17.567  0.00  0.00    +0.176 C 
ATOM     16  C   UNL     1      13.263   9.657  17.336  0.00  0.00    +0.171 C 
ATOM     17  C   UNL     1      12.772   7.429  18.086  0.00  0.00    +0.171 C 
ATOM     18  C   UNL     1      13.815  10.107  16.002  0.00  0.00    +0.130 C 
ATOM     19  C   UNL     1      11.532   8.085  17.490  0.00  0.00    +0.190 C 
ATOM     20  C   UNL     1      14.031   8.789  15.282  0.00  0.00    +0.185 C 
ENDROOT
BRANCH  17   9
ATOM      9  N   UNL     1      12.774   7.317  19.547  0.00  0.00    -0.187 N 
ATOM     11  N   UNL     1      11.638   7.418  20.244  0.00  0.00    -0.041 NA
ATOM     12  N   UNL     1      13.366   7.081  21.613  0.00  0.00    -0.071 NA
ATOM     13  N   UNL     1      12.006   7.271  21.511  0.00  0.00    -0.020 NA
ATOM     21  C   UNL     1      13.821   7.113  20.381  0.00  0.00    +0.342 A 
BRANCH  21   4
ATOM      4  O   UNL     1      15.077   6.975  20.000  0.00  0.00    -0.423 OA
BRANCH   4  24
ATOM     24  C   UNL     1      16.086   7.826  20.428  0.00  0.00    +0.134 A 
ATOM     25  C   UNL     1      18.293   8.140  21.297  0.00  0.00    +0.033 A 
ATOM     26  C   UNL     1      17.280   7.285  20.865  0.00  0.00    +0.069 A 
ATOM     29  C   UNL     1      15.867   9.190  20.405  0.00  0.00    +0.046 A 
ATOM     32  C   UNL     1      18.094   9.520  21.282  0.00  0.00    +0.023 A 
ATOM     33  C   UNL     1      16.881  10.046  20.837  0.00  0.00    +0.005 A 
BRANCH  25  14
ATOM      6  O   UNL     1      21.869   6.559  20.687  0.00  0.00    -0.377 OA
ATOM     14  N   UNL     1      19.500   7.617  21.742  0.00  0.00    -0.325 N 
ATOM     27  C   UNL     1      19.760   6.177  21.815  0.00  0.00    +0.133 C 
ATOM     28  C   UNL     1      20.719   8.433  21.735  0.00  0.00    +0.133 C 
ATOM     30  C   UNL     1      20.663   5.787  20.650  0.00  0.00    +0.178 C 
ATOM     31  C   UNL     1      21.601   7.962  20.578  0.00  0.00    +0.178 C 
ENDBRANCH  25  14
ENDBRANCH   4  24
ENDBRANCH  21   4
ENDBRANCH  17   9
BRANCH  18  10
ATOM      5  O   UNL     1      15.156  11.757  14.039  0.00  0.00    -0.275 OA
ATOM     10  N   UNL     1      15.057  10.824  16.164  0.00  0.00    -0.307 N 
ATOM     22  C   UNL     1      15.627  11.595  15.162  0.00  0.00    +0.223 C 
ATOM     36  H   UNL     1      15.565  10.703  17.037  0.00  0.00    +0.149 HD
BRANCH  22  23
ATOM     23  C   UNL     1      16.935  12.227  15.575  0.00  0.00    +0.165 C 
BRANCH  23   1
ATOM      1  S   UNL     1      17.956  12.478  14.104  0.00  0.00    -0.140 S 
BRANCH   1  34
ATOM     34  C   UNL     1      19.334  11.393  14.544  0.00  0.00    +0.189 C 
BRANCH  34  35
ATOM      8  O   UNL     1      20.175  11.747  12.314  0.00  0.00    -0.250 OA
ATOM     35  C   UNL     1      20.101  11.032  13.304  0.00  0.00    +0.315 C 
BRANCH  35   7
ATOM      7  O   UNL     1      20.721   9.829  13.403  0.00  0.00    -0.480 OA
ATOM     37  H   UNL     1      20.196   9.190  13.930  0.00  0.00    +0.295 HD
ENDBRANCH  35   7
ENDBRANCH  34  35
ENDBRANCH   1  34
ENDBRANCH  23   1
ENDBRANCH  22  23
ENDBRANCH  18  10
TORSDOF 10
ENDMDL
