MODEL 1
REMARK VINA RESULT:      -6.9      0.000      0.000
REMARK  Name = 26742949
REMARK  8 active torsions:
REMARK  status: ('A' for Active; 'I' for Inactive)
REMARK    1  A    between atoms: C_8  and  C_14
REMARK    2  A    between atoms: C_9  and  C_12
REMARK    3  A    between atoms: C_12  and  C_15
REMARK    4  A    between atoms: C_14  and  C_16
REMARK    5  A    between atoms: C_18  and  C_19
REMARK    6  A    between atoms: C_19  and  C_20
REMARK    7  A    between atoms: C_20  and  C_22
REMARK    8  A    between atoms: C_22  and  C_23
REMARK                            x       y       z     vdW  Elec       q    Type
REMARK                         _______ _______ _______ _____ _____    ______ ____
ROOT
ATOM      4  N   UNL     1      13.978   8.572  15.914  0.00  0.00    -0.316 NA
ATOM      8  C   UNL     1      13.144   9.157  18.683  0.00  0.00    +0.004 C 
ATOM      9  C   UNL     1      14.223   8.102  18.340  0.00  0.00    +0.012 C 
ATOM     10  C   UNL     1      13.072  10.190  17.545  0.00  0.00    +0.019 C 
ATOM     11  C   UNL     1      14.021   7.521  16.931  0.00  0.00    +0.085 C 
ATOM     13  C   UNL     1      12.912   9.535  16.173  0.00  0.00    +0.081 C 
ATOM     26  H   UNL     1      13.835   8.149  14.997  0.00  0.00    +0.122 HD
ENDROOT
BRANCH   9  12
ATOM     12  C   UNL     1      14.316   6.982  19.376  0.00  0.00    +0.064 C 
BRANCH  12  15
ATOM      2  O   UNL     1      17.731   5.853  19.543  0.00  0.00    -0.359 OA
ATOM      5  N   UNL     1      16.488   5.922  18.927  0.00  0.00    -0.083 NA
ATOM     15  C   UNL     1      15.744   6.685  19.734  0.00  0.00    +0.084 A 
ATOM     17  C   UNL     1      16.458   7.120  20.863  0.00  0.00    +0.071 A 
ATOM     18  C   UNL     1      17.701   6.570  20.695  0.00  0.00    +0.138 A 
BRANCH  18  19
ATOM     19  C   UNL     1      18.942   6.603  21.479  0.00  0.00    +0.077 C 
BRANCH  19  20
ATOM     20  C   UNL     1      20.196   6.269  20.641  0.00  0.00    +0.007 C 
BRANCH  20  22
ATOM     22  C   UNL     1      21.268   5.542  21.451  0.00  0.00    -0.003 C 
ATOM     23  C   UNL     1      21.387   4.084  21.036  0.00  0.00    +0.004 C 
ENDBRANCH  20  22
ENDBRANCH  19  20
ENDBRANCH  18  19
ENDBRANCH  12  15
ENDBRANCH   9  12
BRANCH   8  14
ATOM     14  C   UNL     1      11.759   8.563  18.968  0.00  0.00    +0.100 C 
BRANCH  14  16
ATOM      1  S   UNL     1      12.211  12.284  22.232  0.00  0.00    -0.061 S 
ATOM      3  O   UNL     1      10.607   8.053  21.020  0.00  0.00    -0.275 OA
ATOM      6  N   UNL     1      11.736  10.100  20.794  0.00  0.00    -0.265 N 
ATOM      7  N   UNL     1      10.829  10.264  23.064  0.00  0.00    -0.233 NA
ATOM     16  C   UNL     1      11.287   8.849  20.381  0.00  0.00    +0.219 C 
ATOM     21  C   UNL     1      11.510  10.730  22.041  0.00  0.00    +0.164 A 
ATOM     24  C   UNL     1      11.556  12.358  23.816  0.00  0.00    +0.068 A 
ATOM     25  C   UNL     1      10.857  11.199  24.081  0.00  0.00    +0.120 A 
ATOM     27  H   UNL     1      12.297  10.653  20.150  0.00  0.00    +0.157 HD
ENDBRANCH  14  16
ENDBRANCH   8  14
TORSDOF 7
ENDMDL
MODEL 2
REMARK VINA RESULT:      -6.3      3.230      5.264
REMARK  Name = 26742949
REMARK  8 active torsions:
REMARK  status: ('A' for Active; 'I' for Inactive)
REMARK    1  A    between atoms: C_8  and  C_14
REMARK    2  A    between atoms: C_9  and  C_12
REMARK    3  A    between atoms: C_12  and  C_15
REMARK    4  A    between atoms: C_14  and  C_16
REMARK    5  A    between atoms: C_18  and  C_19
REMARK    6  A    between atoms: C_19  and  C_20
REMARK    7  A    between atoms: C_20  and  C_22
REMARK    8  A    between atoms: C_22  and  C_23
REMARK                            x       y       z     vdW  Elec       q    Type
REMARK                         _______ _______ _______ _____ _____    ______ ____
ROOT
ATOM      4  N   UNL     1      17.162   9.824  21.957  0.00  0.00    -0.316 NA
ATOM      8  C   UNL     1      16.078   7.291  20.901  0.00  0.00    +0.004 C 
ATOM      9  C   UNL     1      17.560   7.459  21.313  0.00  0.00    +0.012 C 
ATOM     10  C   UNL     1      15.225   8.319  21.663  0.00  0.00    +0.019 C 
ATOM     11  C   UNL     1      18.021   8.921  21.190  0.00  0.00    +0.085 C 
ATOM     13  C   UNL     1      15.768   9.741  21.528  0.00  0.00    +0.081 C 
ATOM     26  H   UNL     1      17.493  10.781  21.844  0.00  0.00    +0.122 HD
ENDROOT
BRANCH   9  12
ATOM     12  C   UNL     1      18.504   6.532  20.546  0.00  0.00    +0.064 C 
BRANCH  12  15
ATOM      2  O   UNL     1      20.813   5.796  23.210  0.00  0.00    -0.359 OA
ATOM      5  N   UNL     1      19.649   6.373  22.715  0.00  0.00    -0.083 NA
ATOM     15  C   UNL     1      19.637   6.066  21.414  0.00  0.00    +0.084 A 
ATOM     17  C   UNL     1      20.757   5.306  21.035  0.00  0.00    +0.071 A 
ATOM     18  C   UNL     1      21.464   5.164  22.200  0.00  0.00    +0.138 A 
BRANCH  18  19
ATOM     19  C   UNL     1      22.723   4.497  22.550  0.00  0.00    +0.077 C 
BRANCH  19  20
ATOM     20  C   UNL     1      22.613   2.955  22.549  0.00  0.00    +0.007 C 
BRANCH  20  22
ATOM     22  C   UNL     1      23.966   2.269  22.372  0.00  0.00    -0.003 C 
ATOM     23  C   UNL     1      24.065   1.570  21.025  0.00  0.00    +0.004 C 
ENDBRANCH  20  22
ENDBRANCH  19  20
ENDBRANCH  18  19
ENDBRANCH  12  15
ENDBRANCH   9  12
BRANCH   8  14
ATOM     14  C   UNL     1      15.835   7.394  19.390  0.00  0.00    +0.100 C 
BRANCH  14  16
ATOM      1  S   UNL     1      12.880   9.465  15.972  0.00  0.00    -0.061 S 
ATOM      3  O   UNL     1      13.556   6.663  19.665  0.00  0.00    -0.275 OA
ATOM      6  N   UNL     1      14.101   8.162  17.941  0.00  0.00    -0.265 N 
ATOM      7  N   UNL     1      11.689   7.875  17.625  0.00  0.00    -0.233 NA
ATOM     16  C   UNL     1      14.361   7.345  19.037  0.00  0.00    +0.219 C 
ATOM     21  C   UNL     1      12.855   8.389  17.309  0.00  0.00    +0.164 A 
ATOM     24  C   UNL     1      11.191   9.233  15.786  0.00  0.00    +0.068 A 
ATOM     25  C   UNL     1      10.735   8.360  16.751  0.00  0.00    +0.120 A 
ATOM     27  H   UNL     1      14.874   8.673  17.521  0.00  0.00    +0.157 HD
ENDBRANCH  14  16
ENDBRANCH   8  14
TORSDOF 7
ENDMDL
MODEL 3
REMARK VINA RESULT:      -6.2      3.521      6.889
REMARK  Name = 26742949
REMARK  8 active torsions:
REMARK  status: ('A' for Active; 'I' for Inactive)
REMARK    1  A    between atoms: C_8  and  C_14
REMARK    2  A    between atoms: C_9  and  C_12
REMARK    3  A    between atoms: C_12  and  C_15
REMARK    4  A    between atoms: C_14  and  C_16
REMARK    5  A    between atoms: C_18  and  C_19
REMARK    6  A    between atoms: C_19  and  C_20
REMARK    7  A    between atoms: C_20  and  C_22
REMARK    8  A    between atoms: C_22  and  C_23
REMARK                            x       y       z     vdW  Elec       q    Type
REMARK                         _______ _______ _______ _____ _____    ______ ____
ROOT
ATOM      4  N   UNL     1      21.238   8.722  21.193  0.00  0.00    -0.316 NA
ATOM      8  C   UNL     1      19.098   6.716  21.516  0.00  0.00    +0.004 C 
ATOM      9  C   UNL     1      20.590   6.332  21.371  0.00  0.00    +0.012 C 
ATOM     10  C   UNL     1      19.000   8.148  22.069  0.00  0.00    +0.019 C 
ATOM     11  C   UNL     1      21.378   7.397  20.590  0.00  0.00    +0.085 C 
ATOM     13  C   UNL     1      19.840   9.141  21.266  0.00  0.00    +0.081 C 
ATOM     26  H   UNL     1      21.765   9.400  20.644  0.00  0.00    +0.122 HD
ENDROOT
BRANCH   9  12
ATOM     12  C   UNL     1      20.795   4.949  20.751  0.00  0.00    +0.064 C 
BRANCH  12  15
ATOM      2  O   UNL     1      22.729   3.403  23.365  0.00  0.00    -0.359 OA
ATOM      5  N   UNL     1      21.833   4.357  22.898  0.00  0.00    -0.083 NA
ATOM     15  C   UNL     1      21.704   4.101  21.593  0.00  0.00    +0.084 A 
ATOM     17  C   UNL     1      22.488   3.009  21.184  0.00  0.00    +0.071 A 
ATOM     18  C   UNL     1      23.112   2.606  22.334  0.00  0.00    +0.138 A 
BRANCH  18  19
ATOM     19  C   UNL     1      24.065   1.536  22.653  0.00  0.00    +0.077 C 
BRANCH  19  20
ATOM     20  C   UNL     1      25.096   1.287  21.529  0.00  0.00    +0.007 C 
BRANCH  20  22
ATOM     22  C   UNL     1      26.150   2.390  21.444  0.00  0.00    -0.003 C 
ATOM     23  C   UNL     1      26.126   3.081  20.090  0.00  0.00    +0.004 C 
ENDBRANCH  20  22
ENDBRANCH  19  20
ENDBRANCH  18  19
ENDBRANCH  12  15
ENDBRANCH   9  12
BRANCH   8  14
ATOM     14  C   UNL     1      18.289   6.575  20.222  0.00  0.00    +0.100 C 
BRANCH  14  16
ATOM      1  S   UNL     1      14.183   7.691  17.652  0.00  0.00    -0.061 S 
ATOM      3  O   UNL     1      16.313   6.186  21.543  0.00  0.00    -0.275 OA
ATOM      6  N   UNL     1      16.107   6.989  19.345  0.00  0.00    -0.265 N 
ATOM      7  N   UNL     1      13.767   6.839  20.056  0.00  0.00    -0.233 NA
ATOM     16  C   UNL     1      16.793   6.551  20.474  0.00  0.00    +0.219 C 
ATOM     21  C   UNL     1      14.707   7.113  19.180  0.00  0.00    +0.164 A 
ATOM     24  C   UNL     1      12.560   7.569  18.189  0.00  0.00    +0.068 A 
ATOM     25  C   UNL     1      12.537   7.102  19.487  0.00  0.00    +0.120 A 
ATOM     27  H   UNL     1      16.644   7.263  18.525  0.00  0.00    +0.157 HD
ENDBRANCH  14  16
ENDBRANCH   8  14
TORSDOF 7
ENDMDL
MODEL 4
REMARK VINA RESULT:      -6.0     17.150     20.792
REMARK  Name = 26742949
REMARK  8 active torsions:
REMARK  status: ('A' for Active; 'I' for Inactive)
REMARK    1  A    between atoms: C_8  and  C_14
REMARK    2  A    between atoms: C_9  and  C_12
REMARK    3  A    between atoms: C_12  and  C_15
REMARK    4  A    between atoms: C_14  and  C_16
REMARK    5  A    between atoms: C_18  and  C_19
REMARK    6  A    between atoms: C_19  and  C_20
REMARK    7  A    between atoms: C_20  and  C_22
REMARK    8  A    between atoms: C_22  and  C_23
REMARK                            x       y       z     vdW  Elec       q    Type
REMARK                         _______ _______ _______ _____ _____    ______ ____
ROOT
ATOM      4  N   UNL     1      15.552   4.221   0.932  0.00  0.00    -0.316 NA
ATOM      8  C   UNL     1      12.884   4.330  -0.322  0.00  0.00    +0.004 C 
ATOM      9  C   UNL     1      13.085   4.282   1.211  0.00  0.00    +0.012 C 
ATOM     10  C   UNL     1      14.146   4.916  -0.977  0.00  0.00    +0.019 C 
ATOM     11  C   UNL     1      14.407   3.591   1.589  0.00  0.00    +0.085 C 
ATOM     13  C   UNL     1      15.421   4.205  -0.523  0.00  0.00    +0.081 C 
ATOM     26  H   UNL     1      16.406   3.732   1.199  0.00  0.00    +0.122 HD
ENDROOT
BRANCH   9  12
ATOM     12  C   UNL     1      11.912   3.638   1.950  0.00  0.00    +0.064 C 
BRANCH  12  15
ATOM      2  O   UNL     1      11.191   6.313   4.250  0.00  0.00    -0.359 OA
ATOM      5  N   UNL     1      11.865   5.777   3.159  0.00  0.00    -0.083 NA
ATOM     15  C   UNL     1      11.399   4.530   3.044  0.00  0.00    +0.084 A 
ATOM     17  C   UNL     1      10.440   4.226   4.025  0.00  0.00    +0.071 A 
ATOM     18  C   UNL     1      10.345   5.379   4.757  0.00  0.00    +0.138 A 
BRANCH  18  19
ATOM     19  C   UNL     1       9.549   5.782   5.923  0.00  0.00    +0.077 C 
BRANCH  19  20
ATOM     20  C   UNL     1      10.296   5.593   7.262  0.00  0.00    +0.007 C 
BRANCH  20  22
ATOM     22  C   UNL     1       9.851   4.337   8.011  0.00  0.00    -0.003 C 
ATOM     23  C   UNL     1       9.359   4.669   9.411  0.00  0.00    +0.004 C 
ENDBRANCH  20  22
ENDBRANCH  19  20
ENDBRANCH  18  19
ENDBRANCH  12  15
ENDBRANCH   9  12
BRANCH   8  14
ATOM     14  C   UNL     1      12.523   2.977  -0.947  0.00  0.00    +0.100 C 
BRANCH  14  16
ATOM      1  S   UNL     1       8.735   5.888  -2.317  0.00  0.00    -0.061 S 
ATOM      3  O   UNL     1      11.755   2.408  -3.157  0.00  0.00    -0.275 OA
ATOM      6  N   UNL     1      10.713   4.147  -1.972  0.00  0.00    -0.265 N 
ATOM      7  N   UNL     1       9.451   4.131  -4.072  0.00  0.00    -0.233 NA
ATOM     16  C   UNL     1      11.634   3.122  -2.167  0.00  0.00    +0.219 C 
ATOM     21  C   UNL     1       9.714   4.593  -2.871  0.00  0.00    +0.164 A 
ATOM     24  C   UNL     1       7.879   5.843  -3.803  0.00  0.00    +0.068 A 
ATOM     25  C   UNL     1       8.398   4.849  -4.605  0.00  0.00    +0.120 A 
ATOM     27  H   UNL     1      10.731   4.657  -1.092  0.00  0.00    +0.157 HD
ENDBRANCH  14  16
ENDBRANCH   8  14
TORSDOF 7
ENDMDL
MODEL 5
REMARK VINA RESULT:      -5.9     26.809     28.580
REMARK  Name = 26742949
REMARK  8 active torsions:
REMARK  status: ('A' for Active; 'I' for Inactive)
REMARK    1  A    between atoms: C_8  and  C_14
REMARK    2  A    between atoms: C_9  and  C_12
REMARK    3  A    between atoms: C_12  and  C_15
REMARK    4  A    between atoms: C_14  and  C_16
REMARK    5  A    between atoms: C_18  and  C_19
REMARK    6  A    between atoms: C_19  and  C_20
REMARK    7  A    between atoms: C_20  and  C_22
REMARK    8  A    between atoms: C_22  and  C_23
REMARK                            x       y       z     vdW  Elec       q    Type
REMARK                         _______ _______ _______ _____ _____    ______ ____
ROOT
ATOM      4  N   UNL     1      -6.207 -12.518  19.117  0.00  0.00    -0.316 NA
ATOM      8  C   UNL     1      -6.676 -11.153  16.544  0.00  0.00    +0.004 C 
ATOM      9  C   UNL     1      -5.268 -11.295  17.170  0.00  0.00    +0.012 C 
ATOM     10  C   UNL     1      -7.579 -12.278  17.077  0.00  0.00    +0.019 C 
ATOM     11  C   UNL     1      -5.338 -11.416  18.702  0.00  0.00    +0.085 C 
ATOM     13  C   UNL     1      -7.566 -12.362  18.603  0.00  0.00    +0.081 C 
ATOM     26  H   UNL     1      -6.235 -12.561  20.135  0.00  0.00    +0.122 HD
ENDROOT
BRANCH   9  12
ATOM     12  C   UNL     1      -4.315 -10.171  16.763  0.00  0.00    +0.064 C 
BRANCH  12  15
ATOM      2  O   UNL     1      -1.545 -11.375  14.802  0.00  0.00    -0.359 OA
ATOM      5  N   UNL     1      -2.142 -11.040  16.011  0.00  0.00    -0.083 NA
ATOM     15  C   UNL     1      -3.369 -10.619  15.687  0.00  0.00    +0.084 A 
ATOM     17  C   UNL     1      -3.599 -10.666  14.301  0.00  0.00    +0.071 A 
ATOM     18  C   UNL     1      -2.423 -11.147  13.791  0.00  0.00    +0.138 A 
BRANCH  18  19
ATOM     19  C   UNL     1      -1.951 -11.449  12.434  0.00  0.00    +0.077 C 
BRANCH  19  20
ATOM     20  C   UNL     1      -2.943 -11.007  11.335  0.00  0.00    +0.007 C 
BRANCH  20  22
ATOM     22  C   UNL     1      -2.574  -9.658  10.719  0.00  0.00    -0.003 C 
ATOM     23  C   UNL     1      -3.786  -8.973  10.109  0.00  0.00    +0.004 C 
ENDBRANCH  20  22
ENDBRANCH  19  20
ENDBRANCH  18  19
ENDBRANCH  12  15
ENDBRANCH   9  12
BRANCH   8  14
ATOM     14  C   UNL     1      -7.323  -9.781  16.768  0.00  0.00    +0.100 C 
BRANCH  14  16
ATOM      1  S   UNL     1     -11.009  -6.472  16.350  0.00  0.00    -0.061 S 
ATOM      3  O   UNL     1      -8.618 -10.181  14.778  0.00  0.00    -0.275 OA
ATOM      6  N   UNL     1      -9.189  -8.404  16.203  0.00  0.00    -0.265 N 
ATOM      7  N   UNL     1     -10.883  -8.212  14.443  0.00  0.00    -0.233 NA
ATOM     16  C   UNL     1      -8.443  -9.502  15.784  0.00  0.00    +0.219 C 
ATOM     21  C   UNL     1     -10.313  -7.829  15.563  0.00  0.00    +0.164 A 
ATOM     24  C   UNL     1     -12.174  -6.374  15.096  0.00  0.00    +0.068 A 
ATOM     25  C   UNL     1     -11.950  -7.377  14.177  0.00  0.00    +0.120 A 
ATOM     27  H   UNL     1      -8.924  -7.936  17.067  0.00  0.00    +0.157 HD
ENDBRANCH  14  16
ENDBRANCH   8  14
TORSDOF 7
ENDMDL
MODEL 6
REMARK VINA RESULT:      -5.9      3.650      6.965
REMARK  Name = 26742949
REMARK  8 active torsions:
REMARK  status: ('A' for Active; 'I' for Inactive)
REMARK    1  A    between atoms: C_8  and  C_14
REMARK    2  A    between atoms: C_9  and  C_12
REMARK    3  A    between atoms: C_12  and  C_15
REMARK    4  A    between atoms: C_14  and  C_16
REMARK    5  A    between atoms: C_18  and  C_19
REMARK    6  A    between atoms: C_19  and  C_20
REMARK    7  A    between atoms: C_20  and  C_22
REMARK    8  A    between atoms: C_22  and  C_23
REMARK                            x       y       z     vdW  Elec       q    Type
REMARK                         _______ _______ _______ _____ _____    ______ ____
ROOT
ATOM      4  N   UNL     1      21.197   8.708  21.145  0.00  0.00    -0.316 NA
ATOM      8  C   UNL     1      19.111   6.649  21.484  0.00  0.00    +0.004 C 
ATOM      9  C   UNL     1      20.609   6.302  21.316  0.00  0.00    +0.012 C 
ATOM     10  C   UNL     1      18.986   8.075  22.047  0.00  0.00    +0.019 C 
ATOM     11  C   UNL     1      21.360   7.390  20.531  0.00  0.00    +0.085 C 
ATOM     13  C   UNL     1      19.791   9.093  21.239  0.00  0.00    +0.081 C 
ATOM     26  H   UNL     1      21.700   9.402  20.594  0.00  0.00    +0.122 HD
ENDROOT
BRANCH   9  12
ATOM     12  C   UNL     1      20.839   4.928  20.685  0.00  0.00    +0.064 C 
BRANCH  12  15
ATOM      2  O   UNL     1      22.688   3.337  23.333  0.00  0.00    -0.359 OA
ATOM      5  N   UNL     1      21.784   4.280  22.858  0.00  0.00    -0.083 NA
ATOM     15  C   UNL     1      21.732   4.076  21.538  0.00  0.00    +0.084 A 
ATOM     17  C   UNL     1      22.575   3.029  21.127  0.00  0.00    +0.071 A 
ATOM     18  C   UNL     1      23.152   2.598  22.292  0.00  0.00    +0.138 A 
BRANCH  18  19
ATOM     19  C   UNL     1      24.125   1.548  22.617  0.00  0.00    +0.077 C 
BRANCH  19  20
ATOM     20  C   UNL     1      24.623   1.614  24.078  0.00  0.00    +0.007 C 
BRANCH  20  22
ATOM     22  C   UNL     1      24.334   0.332  24.857  0.00  0.00    -0.003 C 
ATOM     23  C   UNL     1      22.840   0.111  25.032  0.00  0.00    +0.004 C 
ENDBRANCH  20  22
ENDBRANCH  19  20
ENDBRANCH  18  19
ENDBRANCH  12  15
ENDBRANCH   9  12
BRANCH   8  14
ATOM     14  C   UNL     1      18.287   6.496  20.200  0.00  0.00    +0.100 C 
BRANCH  14  16
ATOM      1  S   UNL     1      14.182   7.684  17.661  0.00  0.00    -0.061 S 
ATOM      3  O   UNL     1      16.316   6.153  21.540  0.00  0.00    -0.275 OA
ATOM      6  N   UNL     1      16.107   6.951  19.341  0.00  0.00    -0.265 N 
ATOM      7  N   UNL     1      13.771   6.851  20.073  0.00  0.00    -0.233 NA
ATOM     16  C   UNL     1      16.794   6.504  20.466  0.00  0.00    +0.219 C 
ATOM     21  C   UNL     1      14.708   7.102  19.187  0.00  0.00    +0.164 A 
ATOM     24  C   UNL     1      12.561   7.596  18.213  0.00  0.00    +0.068 A 
ATOM     25  C   UNL     1      12.541   7.135  19.513  0.00  0.00    +0.120 A 
ATOM     27  H   UNL     1      16.641   7.210  18.515  0.00  0.00    +0.157 HD
ENDBRANCH  14  16
ENDBRANCH   8  14
TORSDOF 7
ENDMDL
MODEL 7
REMARK VINA RESULT:      -5.9     27.113     28.845
REMARK  Name = 26742949
REMARK  8 active torsions:
REMARK  status: ('A' for Active; 'I' for Inactive)
REMARK    1  A    between atoms: C_8  and  C_14
REMARK    2  A    between atoms: C_9  and  C_12
REMARK    3  A    between atoms: C_12  and  C_15
REMARK    4  A    between atoms: C_14  and  C_16
REMARK    5  A    between atoms: C_18  and  C_19
REMARK    6  A    between atoms: C_19  and  C_20
REMARK    7  A    between atoms: C_20  and  C_22
REMARK    8  A    between atoms: C_22  and  C_23
REMARK                            x       y       z     vdW  Elec       q    Type
REMARK                         _______ _______ _______ _____ _____    ______ ____
ROOT
ATOM      4  N   UNL     1      -5.918 -13.257  18.551  0.00  0.00    -0.316 NA
ATOM      8  C   UNL     1      -6.585 -11.093  16.660  0.00  0.00    +0.004 C 
ATOM      9  C   UNL     1      -5.128 -11.507  16.977  0.00  0.00    +0.012 C 
ATOM     10  C   UNL     1      -7.517 -12.283  16.940  0.00  0.00    +0.019 C 
ATOM     11  C   UNL     1      -5.006 -12.126  18.379  0.00  0.00    +0.085 C 
ATOM     13  C   UNL     1      -7.310 -12.870  18.337  0.00  0.00    +0.081 C 
ATOM     26  H   UNL     1      -5.814 -13.634  19.493  0.00  0.00    +0.122 HD
ENDROOT
BRANCH   9  12
ATOM     12  C   UNL     1      -4.129 -10.362  16.805  0.00  0.00    +0.064 C 
BRANCH  12  15
ATOM      2  O   UNL     1      -1.359 -11.012  14.599  0.00  0.00    -0.359 OA
ATOM      5  N   UNL     1      -1.907 -10.821  15.862  0.00  0.00    -0.083 NA
ATOM     15  C   UNL     1      -3.209 -10.608  15.645  0.00  0.00    +0.084 A 
ATOM     17  C   UNL     1      -3.536 -10.652  14.279  0.00  0.00    +0.071 A 
ATOM     18  C   UNL     1      -2.339 -10.908  13.665  0.00  0.00    +0.138 A 
BRANCH  18  19
ATOM     19  C   UNL     1      -1.931 -11.084  12.266  0.00  0.00    +0.077 C 
BRANCH  19  20
ATOM     20  C   UNL     1      -3.074 -10.812  11.262  0.00  0.00    +0.007 C 
BRANCH  20  22
ATOM     22  C   UNL     1      -2.885  -9.503  10.497  0.00  0.00    -0.003 C 
ATOM     23  C   UNL     1      -4.212  -8.798  10.263  0.00  0.00    +0.004 C 
ENDBRANCH  20  22
ENDBRANCH  19  20
ENDBRANCH  18  19
ENDBRANCH  12  15
ENDBRANCH   9  12
BRANCH   8  14
ATOM     14  C   UNL     1      -7.056  -9.843  17.412  0.00  0.00    +0.100 C 
BRANCH  14  16
ATOM      1  S   UNL     1     -11.287 -10.221  19.992  0.00  0.00    -0.061 S 
ATOM      3  O   UNL     1      -8.931  -9.076  16.109  0.00  0.00    -0.275 OA
ATOM      6  N   UNL     1      -9.273  -9.861  18.296  0.00  0.00    -0.265 N 
ATOM      7  N   UNL     1     -11.547  -9.271  17.603  0.00  0.00    -0.233 NA
ATOM     16  C   UNL     1      -8.522  -9.540  17.169  0.00  0.00    +0.219 C 
ATOM     21  C   UNL     1     -10.671  -9.727  18.469  0.00  0.00    +0.164 A 
ATOM     24  C   UNL     1     -12.862  -9.793  19.467  0.00  0.00    +0.068 A 
ATOM     25  C   UNL     1     -12.803  -9.310  18.176  0.00  0.00    +0.120 A 
ATOM     27  H   UNL     1      -8.793 -10.241  19.109  0.00  0.00    +0.157 HD
ENDBRANCH  14  16
ENDBRANCH   8  14
TORSDOF 7
ENDMDL
MODEL 8
REMARK VINA RESULT:      -5.9      1.877      2.120
REMARK  Name = 26742949
REMARK  8 active torsions:
REMARK  status: ('A' for Active; 'I' for Inactive)
REMARK    1  A    between atoms: C_8  and  C_14
REMARK    2  A    between atoms: C_9  and  C_12
REMARK    3  A    between atoms: C_12  and  C_15
REMARK    4  A    between atoms: C_14  and  C_16
REMARK    5  A    between atoms: C_18  and  C_19
REMARK    6  A    between atoms: C_19  and  C_20
REMARK    7  A    between atoms: C_20  and  C_22
REMARK    8  A    between atoms: C_22  and  C_23
REMARK                            x       y       z     vdW  Elec       q    Type
REMARK                         _______ _______ _______ _____ _____    ______ ____
ROOT
ATOM      4  N   UNL     1      13.252   9.306  15.204  0.00  0.00    -0.316 NA
ATOM      8  C   UNL     1      14.213   9.748  17.958  0.00  0.00    +0.004 C 
ATOM      9  C   UNL     1      13.798   8.354  17.431  0.00  0.00    +0.012 C 
ATOM     10  C   UNL     1      14.629  10.631  16.770  0.00  0.00    +0.019 C 
ATOM     11  C   UNL     1      12.767   8.460  16.295  0.00  0.00    +0.085 C 
ATOM     13  C   UNL     1      13.573  10.655  15.664  0.00  0.00    +0.081 C 
ATOM     26  H   UNL     1      12.540   9.360  14.476  0.00  0.00    +0.122 HD
ENDROOT
BRANCH   9  12
ATOM     12  C   UNL     1      13.289   7.424  18.533  0.00  0.00    +0.064 C 
BRANCH  12  15
ATOM      2  O   UNL     1      15.209   6.905  21.535  0.00  0.00    -0.359 OA
ATOM      5  N   UNL     1      14.018   7.162  20.865  0.00  0.00    -0.083 NA
ATOM     15  C   UNL     1      14.346   7.174  19.569  0.00  0.00    +0.084 A 
ATOM     17  C   UNL     1      15.715   6.935  19.364  0.00  0.00    +0.071 A 
ATOM     18  C   UNL     1      16.212   6.773  20.630  0.00  0.00    +0.138 A 
BRANCH  18  19
ATOM     19  C   UNL     1      17.549   6.497  21.170  0.00  0.00    +0.077 C 
BRANCH  19  20
ATOM     20  C   UNL     1      18.521   5.920  20.118  0.00  0.00    +0.007 C 
BRANCH  20  22
ATOM     22  C   UNL     1      19.986   6.065  20.528  0.00  0.00    -0.003 C 
ATOM     23  C   UNL     1      20.714   4.731  20.475  0.00  0.00    +0.004 C 
ENDBRANCH  20  22
ENDBRANCH  19  20
ENDBRANCH  18  19
ENDBRANCH  12  15
ENDBRANCH   9  12
BRANCH   8  14
ATOM     14  C   UNL     1      13.138  10.442  18.803  0.00  0.00    +0.100 C 
BRANCH  14  16
ATOM      1  S   UNL     1      11.033  11.961  23.042  0.00  0.00    -0.061 S 
ATOM      3  O   UNL     1      14.752  10.515  20.588  0.00  0.00    -0.275 OA
ATOM      6  N   UNL     1      12.522  11.122  21.007  0.00  0.00    -0.265 N 
ATOM      7  N   UNL     1      13.557  11.429  23.206  0.00  0.00    -0.233 NA
ATOM     16  C   UNL     1      13.592  10.689  20.228  0.00  0.00    +0.219 C 
ATOM     21  C   UNL     1      12.535  11.457  22.382  0.00  0.00    +0.164 A 
ATOM     24  C   UNL     1      11.797  12.161  24.564  0.00  0.00    +0.068 A 
ATOM     25  C   UNL     1      13.133  11.833  24.457  0.00  0.00    +0.120 A 
ATOM     27  H   UNL     1      11.610  11.221  20.568  0.00  0.00    +0.157 HD
ENDBRANCH  14  16
ENDBRANCH   8  14
TORSDOF 7
ENDMDL
MODEL 9
REMARK VINA RESULT:      -5.9      2.963      7.094
REMARK  Name = 26742949
REMARK  8 active torsions:
REMARK  status: ('A' for Active; 'I' for Inactive)
REMARK    1  A    between atoms: C_8  and  C_14
REMARK    2  A    between atoms: C_9  and  C_12
REMARK    3  A    between atoms: C_12  and  C_15
REMARK    4  A    between atoms: C_14  and  C_16
REMARK    5  A    between atoms: C_18  and  C_19
REMARK    6  A    between atoms: C_19  and  C_20
REMARK    7  A    between atoms: C_20  and  C_22
REMARK    8  A    between atoms: C_22  and  C_23
REMARK                            x       y       z     vdW  Elec       q    Type
REMARK                         _______ _______ _______ _____ _____    ______ ____
ROOT
ATOM      4  N   UNL     1      10.202  11.838  23.856  0.00  0.00    -0.316 NA
ATOM      8  C   UNL     1      12.767  11.396  22.466  0.00  0.00    +0.004 C 
ATOM      9  C   UNL     1      11.525  10.503  22.234  0.00  0.00    +0.012 C 
ATOM     10  C   UNL     1      12.306  12.776  22.965  0.00  0.00    +0.019 C 
ATOM     11  C   UNL     1      10.599  10.486  23.461  0.00  0.00    +0.085 C 
ATOM     13  C   UNL     1      11.358  12.677  24.160  0.00  0.00    +0.081 C 
ATOM     26  H   UNL     1       9.598  11.786  24.676  0.00  0.00    +0.122 HD
ENDROOT
BRANCH   9  12
ATOM     12  C   UNL     1      11.884   9.078  21.811  0.00  0.00    +0.064 C 
BRANCH  12  15
ATOM      2  O   UNL     1      10.880   8.365  18.427  0.00  0.00    -0.359 OA
ATOM      5  N   UNL     1      10.655   8.384  19.799  0.00  0.00    -0.083 NA
ATOM     15  C   UNL     1      11.769   8.903  20.324  0.00  0.00    +0.084 A 
ATOM     17  C   UNL     1      12.722   9.226  19.343  0.00  0.00    +0.071 A 
ATOM     18  C   UNL     1      12.114   8.869  18.168  0.00  0.00    +0.138 A 
BRANCH  18  19
ATOM     19  C   UNL     1      12.516   8.923  16.758  0.00  0.00    +0.077 C 
BRANCH  19  20
ATOM     20  C   UNL     1      13.329  10.189  16.407  0.00  0.00    +0.007 C 
BRANCH  20  22
ATOM     22  C   UNL     1      14.570   9.879  15.572  0.00  0.00    -0.003 C 
ATOM     23  C   UNL     1      15.252  11.151  15.093  0.00  0.00    +0.004 C 
ENDBRANCH  20  22
ENDBRANCH  19  20
ENDBRANCH  18  19
ENDBRANCH  12  15
ENDBRANCH   9  12
BRANCH   8  14
ATOM     14  C   UNL     1      13.802  10.790  23.421  0.00  0.00    +0.100 C 
BRANCH  14  16
ATOM      1  S   UNL     1      15.941   6.799  21.370  0.00  0.00    -0.061 S 
ATOM      3  O   UNL     1      15.982  11.332  22.550  0.00  0.00    -0.275 OA
ATOM      6  N   UNL     1      15.158   9.141  22.352  0.00  0.00    -0.265 N 
ATOM      7  N   UNL     1      17.355   8.960  21.283  0.00  0.00    -0.233 NA
ATOM     16  C   UNL     1      15.116  10.481  22.728  0.00  0.00    +0.219 C 
ATOM     21  C   UNL     1      16.207   8.464  21.686  0.00  0.00    +0.164 A 
ATOM     24  C   UNL     1      17.485   6.717  20.629  0.00  0.00    +0.068 A 
ATOM     25  C   UNL     1      18.087   7.957  20.678  0.00  0.00    +0.120 A 
ATOM     27  H   UNL     1      14.360   8.549  22.568  0.00  0.00    +0.157 HD
ENDBRANCH  14  16
ENDBRANCH   8  14
TORSDOF 7
ENDMDL
MODEL 10
REMARK VINA RESULT:      -5.7     27.370     29.100
REMARK  Name = 26742949
REMARK  8 active torsions:
REMARK  status: ('A' for Active; 'I' for Inactive)
REMARK    1  A    between atoms: C_8  and  C_14
REMARK    2  A    between atoms: C_9  and  C_12
REMARK    3  A    between atoms: C_12  and  C_15
REMARK    4  A    between atoms: C_14  and  C_16
REMARK    5  A    between atoms: C_18  and  C_19
REMARK    6  A    between atoms: C_19  and  C_20
REMARK    7  A    between atoms: C_20  and  C_22
REMARK    8  A    between atoms: C_22  and  C_23
REMARK                            x       y       z     vdW  Elec       q    Type
REMARK                         _______ _______ _______ _____ _____    ______ ____
ROOT
ATOM      4  N   UNL     1      -6.757  -9.184  16.062  0.00  0.00    -0.316 NA
ATOM      8  C   UNL     1      -5.650 -10.863  18.220  0.00  0.00    +0.004 C 
ATOM      9  C   UNL     1      -4.813 -10.411  17.000  0.00  0.00    +0.012 C 
ATOM     10  C   UNL     1      -6.803  -9.869  18.435  0.00  0.00    +0.019 C 
ATOM     11  C   UNL     1      -5.697 -10.150  15.770  0.00  0.00    +0.085 C 
ATOM     13  C   UNL     1      -7.611  -9.630  17.160  0.00  0.00    +0.081 C 
ATOM     26  H   UNL     1      -7.326  -9.044  15.227  0.00  0.00    +0.122 HD
ENDROOT
BRANCH   9  12
ATOM     12  C   UNL     1      -3.684 -11.383  16.654  0.00  0.00    +0.064 C 
BRANCH  12  15
ATOM      2  O   UNL     1      -1.321  -9.848  14.412  0.00  0.00    -0.359 OA
ATOM      5  N   UNL     1      -1.823 -10.106  15.682  0.00  0.00    -0.083 NA
ATOM     15  C   UNL     1      -2.883 -10.895  15.482  0.00  0.00    +0.084 A 
ATOM     17  C   UNL     1      -3.096 -11.166  14.119  0.00  0.00    +0.071 A 
ATOM     18  C   UNL     1      -2.089 -10.484  13.489  0.00  0.00    +0.138 A 
BRANCH  18  19
ATOM     19  C   UNL     1      -1.697 -10.318  12.085  0.00  0.00    +0.077 C 
BRANCH  19  20
ATOM     20  C   UNL     1      -2.890 -10.416  11.107  0.00  0.00    +0.007 C 
BRANCH  20  22
ATOM     22  C   UNL     1      -3.027  -9.180  10.220  0.00  0.00    -0.003 C 
ATOM     23  C   UNL     1      -4.485  -8.819   9.988  0.00  0.00    +0.004 C 
ENDBRANCH  20  22
ENDBRANCH  19  20
ENDBRANCH  18  19
ENDBRANCH  12  15
ENDBRANCH   9  12
BRANCH   8  14
ATOM     14  C   UNL     1      -6.180 -12.298  18.116  0.00  0.00    +0.100 C 
BRANCH  14  16
ATOM      1  S   UNL     1     -10.067 -15.336  18.720  0.00  0.00    -0.061 S 
ATOM      3  O   UNL     1      -7.074 -12.120  20.345  0.00  0.00    -0.275 OA
ATOM      6  N   UNL     1      -8.057 -13.599  18.808  0.00  0.00    -0.265 N 
ATOM      7  N   UNL     1      -9.443 -13.935  20.801  0.00  0.00    -0.233 NA
ATOM     16  C   UNL     1      -7.142 -12.642  19.237  0.00  0.00    +0.219 C 
ATOM     21  C   UNL     1      -9.112 -14.179  19.553  0.00  0.00    +0.164 A 
ATOM     24  C   UNL     1     -11.010 -15.542  20.138  0.00  0.00    +0.068 A 
ATOM     25  C   UNL     1     -10.532 -14.717  21.134  0.00  0.00    +0.120 A 
ATOM     27  H   UNL     1      -7.991 -13.943  17.853  0.00  0.00    +0.157 HD
ENDBRANCH  14  16
ENDBRANCH   8  14
TORSDOF 7
ENDMDL
