REMARK  Name = 11865816
REMARK  11 active torsions:
REMARK  status: ('A' for Active; 'I' for Inactive)
REMARK    1  A    between atoms: S_1  and  C_18
REMARK    2  A    between atoms: S_1  and  C_25
REMARK    3  A    between atoms: N_7  and  C_11
REMARK    4  A    between atoms: N_8  and  C_19
REMARK    5  A    between atoms: N_8  and  C_20
REMARK    6  A    between atoms: N_9  and  C_21
REMARK    7  A    between atoms: C_12  and  C_15
REMARK    8  A    between atoms: C_16  and  C_18
REMARK    9  A    between atoms: C_19  and  C_22
REMARK   10  A    between atoms: C_21  and  C_23
REMARK   11  A    between atoms: C_21  and  C_24
REMARK                            x       y       z     vdW  Elec       q    Type
REMARK                         _______ _______ _______ _____ _____    ______ ____
ROOT
ATOM      3  O   UNL     1      -2.194   1.165  -1.806  0.00  0.00    -0.275 OA
ATOM      6  N   UNL     1      -0.739   1.365  -0.017  0.00  0.00    -0.287 N 
ATOM     11  C   UNL     1       0.971  -0.023   0.861  0.00  0.00    +0.105 C 
ATOM     12  C   UNL     1      -0.276  -0.019  -0.024  0.00  0.00    +0.182 C 
ATOM     13  C   UNL     1       0.726   1.137   1.829  0.00  0.00    +0.043 C 
ATOM     14  C   UNL     1      -0.036   2.155   0.991  0.00  0.00    +0.110 C 
ATOM     16  C   UNL     1      -1.617   1.861  -0.969  0.00  0.00    +0.226 C 
ENDROOT
BRANCH  11   7
ATOM      4  O   UNL     1       3.647  -0.903   1.487  0.00  0.00    -0.253 OA
ATOM      7  N   UNL     1       2.163   0.191   0.075  0.00  0.00    -0.294 N 
ATOM      9  N   UNL     1       4.391   0.073  -0.482  0.00  0.00    -0.297 N 
ATOM     17  C   UNL     1       3.421  -0.271   0.456  0.00  0.00    +0.300 C 
ATOM     26  H   UNL     1       2.097   0.767  -0.759  0.00  0.00    +0.151 HD
ATOM     27  H   UNL     1       4.093   0.529  -1.339  0.00  0.00    +0.150 HD
BRANCH   9  21
ATOM     21  C   UNL     1       5.783  -0.282  -0.335  0.00  0.00    +0.068 C 
ATOM     23  C   UNL     1       6.050  -1.656  -0.937  0.00  0.00    +0.027 C 
ATOM     24  C   UNL     1       6.671   0.781  -0.968  0.00  0.00    +0.027 C 
ENDBRANCH   9  21
ENDBRANCH  11   7
BRANCH  12  15
ATOM      2  O   UNL     1      -2.110  -0.334   1.431  0.00  0.00    -0.273 OA
ATOM      8  N   UNL     1      -1.502  -2.152   0.115  0.00  0.00    -0.294 N 
ATOM     15  C   UNL     1      -1.378  -0.840   0.576  0.00  0.00    +0.238 C 
ATOM     20  C   UNL     1      -0.614  -2.710  -0.896  0.00  0.00    +0.132 C 
BRANCH   8  19
ATOM     19  C   UNL     1      -2.531  -3.061   0.614  0.00  0.00    +0.202 C 
BRANCH  19  22
ATOM      5  O   UNL     1      -4.114  -1.903  -0.805  0.00  0.00    -0.274 OA
ATOM     10  N   UNL     1      -4.518  -4.097  -0.249  0.00  0.00    -0.328 N 
ATOM     22  C   UNL     1      -3.776  -2.935  -0.233  0.00  0.00    +0.228 C 
ATOM     28  H   UNL     1      -4.232  -4.934   0.247  0.00  0.00    +0.145 HD
ATOM     29  H   UNL     1      -5.388  -4.151  -0.768  0.00  0.00    +0.145 HD
ENDBRANCH  19  22
ENDBRANCH   8  19
ENDBRANCH  12  15
BRANCH  16  18
ATOM     18  C   UNL     1      -1.852   3.350  -0.925  0.00  0.00    +0.164 C 
BRANCH  18   1
ATOM      1  S   UNL     1      -3.249   3.651   0.166  0.00  0.00    -0.155 S 
ATOM     25  C   UNL     1      -3.315   5.456   0.044  0.00  0.00    +0.085 C 
ENDBRANCH  18   1
ENDBRANCH  16  18
TORSDOF 7
