MODEL 1
REMARK VINA RESULT:      -7.6      0.000      0.000
REMARK  Name = 45361514
REMARK  11 active torsions:
REMARK  status: ('A' for Active; 'I' for Inactive)
REMARK    1  A    between atoms: O_1  and  C_9
REMARK    2  A    between atoms: N_4  and  C_13
REMARK    3  A    between atoms: N_5  and  C_23
REMARK    4  A    between atoms: C_6  and  C_16
REMARK    5  A    between atoms: C_8  and  C_18
REMARK    6  A    between atoms: C_12  and  C_17
REMARK    7  A    between atoms: C_17  and  C_19
REMARK    8  A    between atoms: C_17  and  C_20
REMARK    9  A    between atoms: C_21  and  C_22
REMARK   10  A    between atoms: C_22  and  C_24
REMARK   11  A    between atoms: C_23  and  C_25
REMARK                            x       y       z     vdW  Elec       q    Type
REMARK                         _______ _______ _______ _____ _____    ______ ____
ROOT
ATOM      6  C   UNL     1      -3.874 -10.304  10.527  0.00  0.00    -0.027 C 
ATOM      7  C   UNL     1      -5.152  -9.835  11.299  0.00  0.00    +0.028 C 
ATOM      8  C   UNL     1      -5.262 -10.559  12.689  0.00  0.00    +0.012 C 
ATOM      9  C   UNL     1      -6.417  -9.920  10.399  0.00  0.00    +0.122 C 
ATOM     10  C   UNL     1      -3.735  -9.491   9.218  0.00  0.00    +0.007 C 
ATOM     11  C   UNL     1      -2.626 -10.016  11.394  0.00  0.00    +0.009 C 
ATOM     12  C   UNL     1      -6.235  -9.193   9.047  0.00  0.00    +0.029 C 
ATOM     13  C   UNL     1      -3.970 -10.324  13.523  0.00  0.00    +0.076 C 
ATOM     14  C   UNL     1      -4.957  -9.604   8.316  0.00  0.00    +0.007 C 
ATOM     15  C   UNL     1      -2.688 -10.672  12.767  0.00  0.00    +0.023 C 
ATOM     16  C   UNL     1      -3.913 -11.812  10.174  0.00  0.00    +0.011 C 
ATOM     18  C   UNL     1      -6.483 -10.123  13.516  0.00  0.00    +0.010 C 
ENDROOT
BRANCH  13   4
ATOM      3  O   UNL     1      -2.298  -9.889  15.824  0.00  0.00    -0.275 OA
ATOM      4  N   UNL     1      -3.988 -11.073  14.762  0.00  0.00    -0.312 N 
ATOM     21  C   UNL     1      -3.139 -10.785  15.818  0.00  0.00    +0.218 C 
ATOM     36  H   UNL     1      -4.610 -11.874  14.819  0.00  0.00    +0.149 HD
BRANCH  21  22
ATOM     22  C   UNL     1      -3.376 -11.717  16.989  0.00  0.00    +0.130 C 
BRANCH  22  24
ATOM     24  C   UNL     1      -4.547 -11.315  17.845  0.00  0.00    -0.039 A 
ATOM     26  C   UNL     1      -5.502 -10.428  17.347  0.00  0.00    +0.004 A 
ATOM     27  C   UNL     1      -4.679 -11.829  19.135  0.00  0.00    +0.004 A 
ATOM     30  C   UNL     1      -6.589 -10.057  18.139  0.00  0.00    +0.000 A 
ATOM     31  C   UNL     1      -5.764 -11.457  19.928  0.00  0.00    +0.000 A 
ATOM     32  C   UNL     1      -6.720 -10.571  19.430  0.00  0.00    +0.000 A 
ENDBRANCH  22  24
ENDBRANCH  21  22
ENDBRANCH  13   4
BRANCH   9   1
ATOM      1  O   UNL     1      -7.515  -9.287  11.058  0.00  0.00    -0.391 OA
ATOM     37  H   UNL     1      -7.896  -9.923  11.688  0.00  0.00    +0.210 HD
ENDBRANCH   9   1
BRANCH  12  17
ATOM     17  C   UNL     1      -7.441  -9.399   8.122  0.00  0.00    +0.077 C 
ATOM     19  C   UNL     1      -7.103 -10.414   7.037  0.00  0.00    +0.017 C 
BRANCH  17  20
ATOM      2  O   UNL     1      -7.977  -7.885   6.309  0.00  0.00    -0.276 OA
ATOM      5  N   UNL     1      -8.115  -7.100   8.486  0.00  0.00    -0.311 N 
ATOM     20  C   UNL     1      -7.870  -8.064   7.521  0.00  0.00    +0.216 C 
ATOM     38  H   UNL     1      -8.037  -7.340   9.470  0.00  0.00    +0.149 HD
BRANCH   5  23
ATOM     23  C   UNL     1      -8.532  -5.755   8.161  0.00  0.00    +0.139 C 
BRANCH  23  25
ATOM     25  C   UNL     1      -9.837  -5.398   8.811  0.00  0.00    -0.030 A 
ATOM     28  C   UNL     1     -10.205  -4.059   8.943  0.00  0.00    +0.005 A 
ATOM     29  C   UNL     1     -10.681  -6.403   9.281  0.00  0.00    +0.005 A 
ATOM     33  C   UNL     1     -11.418  -3.725   9.547  0.00  0.00    +0.000 A 
ATOM     34  C   UNL     1     -11.893  -6.070   9.886  0.00  0.00    +0.000 A 
ATOM     35  C   UNL     1     -12.261  -4.731  10.018  0.00  0.00    +0.000 A 
ENDBRANCH  23  25
ENDBRANCH   5  23
ENDBRANCH  17  20
ENDBRANCH  12  17
TORSDOF 8
ENDMDL
MODEL 2
REMARK VINA RESULT:      -7.5      2.022      8.755
REMARK  Name = 45361514
REMARK  11 active torsions:
REMARK  status: ('A' for Active; 'I' for Inactive)
REMARK    1  A    between atoms: O_1  and  C_9
REMARK    2  A    between atoms: N_4  and  C_13
REMARK    3  A    between atoms: N_5  and  C_23
REMARK    4  A    between atoms: C_6  and  C_16
REMARK    5  A    between atoms: C_8  and  C_18
REMARK    6  A    between atoms: C_12  and  C_17
REMARK    7  A    between atoms: C_17  and  C_19
REMARK    8  A    between atoms: C_17  and  C_20
REMARK    9  A    between atoms: C_21  and  C_22
REMARK   10  A    between atoms: C_22  and  C_24
REMARK   11  A    between atoms: C_23  and  C_25
REMARK                            x       y       z     vdW  Elec       q    Type
REMARK                         _______ _______ _______ _____ _____    ______ ____
ROOT
ATOM      6  C   UNL     1      -3.568 -11.073  11.328  0.00  0.00    -0.027 C 
ATOM      7  C   UNL     1      -4.920 -10.497  11.868  0.00  0.00    +0.028 C 
ATOM      8  C   UNL     1      -5.517  -9.444  10.867  0.00  0.00    +0.012 C 
ATOM      9  C   UNL     1      -4.779 -10.014  13.340  0.00  0.00    +0.122 C 
ATOM     10  C   UNL     1      -3.066 -12.186  12.279  0.00  0.00    +0.007 C 
ATOM     11  C   UNL     1      -3.810 -11.713   9.942  0.00  0.00    +0.009 C 
ATOM     12  C   UNL     1      -4.179 -11.098  14.266  0.00  0.00    +0.029 C 
ATOM     13  C   UNL     1      -5.687 -10.077   9.456  0.00  0.00    +0.076 C 
ATOM     14  C   UNL     1      -2.890 -11.706  13.714  0.00  0.00    +0.007 C 
ATOM     15  C   UNL     1      -4.415 -10.745   8.934  0.00  0.00    +0.023 C 
ATOM     16  C   UNL     1      -2.467  -9.990  11.205  0.00  0.00    +0.011 C 
ATOM     18  C   UNL     1      -6.863  -8.856  11.322  0.00  0.00    +0.010 C 
ENDROOT
BRANCH  13   4
ATOM      3  O   UNL     1      -7.874 -10.355   7.607  0.00  0.00    -0.275 OA
ATOM      4  N   UNL     1      -6.125  -9.102   8.480  0.00  0.00    -0.312 N 
ATOM     21  C   UNL     1      -7.196  -9.331   7.630  0.00  0.00    +0.218 C 
ATOM     36  H   UNL     1      -5.580  -8.251   8.387  0.00  0.00    +0.149 HD
BRANCH  21  22
ATOM     22  C   UNL     1      -7.441  -8.145   6.719  0.00  0.00    +0.130 C 
BRANCH  22  24
ATOM     24  C   UNL     1      -8.560  -7.252   7.187  0.00  0.00    -0.039 A 
ATOM     26  C   UNL     1      -9.861  -7.472   6.736  0.00  0.00    +0.004 A 
ATOM     27  C   UNL     1      -8.295  -6.206   8.071  0.00  0.00    +0.004 A 
ATOM     30  C   UNL     1     -10.899  -6.647   7.171  0.00  0.00    +0.000 A 
ATOM     31  C   UNL     1      -9.332  -5.380   8.504  0.00  0.00    +0.000 A 
ATOM     32  C   UNL     1     -10.634  -5.600   8.055  0.00  0.00    +0.000 A 
ENDBRANCH  22  24
ENDBRANCH  21  22
ENDBRANCH  13   4
BRANCH   9   1
ATOM      1  O   UNL     1      -6.069  -9.699  13.864  0.00  0.00    -0.391 OA
ATOM     37  H   UNL     1      -6.087  -9.964  14.800  0.00  0.00    +0.210 HD
ENDBRANCH   9   1
BRANCH  12  17
ATOM     17  C   UNL     1      -3.926 -10.562  15.680  0.00  0.00    +0.077 C 
ATOM     19  C   UNL     1      -2.458 -10.732  16.051  0.00  0.00    +0.017 C 
BRANCH  17  20
ATOM      2  O   UNL     1      -4.558 -12.361  17.173  0.00  0.00    -0.276 OA
ATOM      5  N   UNL     1      -5.994 -10.555  16.944  0.00  0.00    -0.311 N 
ATOM     20  C   UNL     1      -4.838 -11.272  16.677  0.00  0.00    +0.216 C 
ATOM     38  H   UNL     1      -6.133  -9.645  16.517  0.00  0.00    +0.149 HD
BRANCH   5  23
ATOM     23  C   UNL     1      -7.012 -11.025  17.854  0.00  0.00    +0.139 C 
BRANCH  23  25
ATOM     25  C   UNL     1      -8.256 -10.186  17.790  0.00  0.00    -0.030 A 
ATOM     28  C   UNL     1      -8.271  -9.022  17.022  0.00  0.00    +0.005 A 
ATOM     29  C   UNL     1      -9.395 -10.571  18.495  0.00  0.00    +0.005 A 
ATOM     33  C   UNL     1      -9.426  -8.241  16.962  0.00  0.00    +0.000 A 
ATOM     34  C   UNL     1     -10.550  -9.791  18.435  0.00  0.00    +0.000 A 
ATOM     35  C   UNL     1     -10.565  -8.627  17.668  0.00  0.00    +0.000 A 
ENDBRANCH  23  25
ENDBRANCH   5  23
ENDBRANCH  17  20
ENDBRANCH  12  17
TORSDOF 8
ENDMDL
MODEL 3
REMARK VINA RESULT:      -7.4     25.916     28.070
REMARK  Name = 45361514
REMARK  11 active torsions:
REMARK  status: ('A' for Active; 'I' for Inactive)
REMARK    1  A    between atoms: O_1  and  C_9
REMARK    2  A    between atoms: N_4  and  C_13
REMARK    3  A    between atoms: N_5  and  C_23
REMARK    4  A    between atoms: C_6  and  C_16
REMARK    5  A    between atoms: C_8  and  C_18
REMARK    6  A    between atoms: C_12  and  C_17
REMARK    7  A    between atoms: C_17  and  C_19
REMARK    8  A    between atoms: C_17  and  C_20
REMARK    9  A    between atoms: C_21  and  C_22
REMARK   10  A    between atoms: C_22  and  C_24
REMARK   11  A    between atoms: C_23  and  C_25
REMARK                            x       y       z     vdW  Elec       q    Type
REMARK                         _______ _______ _______ _____ _____    ______ ____
ROOT
ATOM      6  C   UNL     1      16.499  -4.524  30.417  0.00  0.00    -0.027 C 
ATOM      7  C   UNL     1      15.416  -5.437  29.752  0.00  0.00    +0.028 C 
ATOM      8  C   UNL     1      14.413  -5.988  30.828  0.00  0.00    +0.012 C 
ATOM      9  C   UNL     1      16.068  -6.510  28.835  0.00  0.00    +0.122 C 
ATOM     10  C   UNL     1      17.400  -3.908  29.318  0.00  0.00    +0.007 C 
ATOM     11  C   UNL     1      15.797  -3.362  31.155  0.00  0.00    +0.009 C 
ATOM     12  C   UNL     1      17.047  -5.897  27.806  0.00  0.00    +0.029 C 
ATOM     13  C   UNL     1      13.768  -4.812  31.616  0.00  0.00    +0.076 C 
ATOM     14  C   UNL     1      18.071  -4.958  28.443  0.00  0.00    +0.007 C 
ATOM     15  C   UNL     1      14.791  -3.835  32.195  0.00  0.00    +0.023 C 
ATOM     16  C   UNL     1      17.395  -5.297  31.418  0.00  0.00    +0.011 C 
ATOM     18  C   UNL     1      13.302  -6.872  30.239  0.00  0.00    +0.010 C 
ENDROOT
BRANCH  13   4
ATOM      3  O   UNL     1      11.064  -4.004  32.176  0.00  0.00    -0.275 OA
ATOM      4  N   UNL     1      12.927  -5.287  32.695  0.00  0.00    -0.312 N 
ATOM     21  C   UNL     1      11.631  -4.835  32.881  0.00  0.00    +0.218 C 
ATOM     36  H   UNL     1      13.338  -5.929  33.365  0.00  0.00    +0.149 HD
BRANCH  21  22
ATOM     22  C   UNL     1      10.979  -5.501  34.077  0.00  0.00    +0.130 C 
BRANCH  22  24
ATOM     24  C   UNL     1       9.597  -6.026  33.788  0.00  0.00    -0.039 A 
ATOM     26  C   UNL     1       8.484  -5.215  34.011  0.00  0.00    +0.004 A 
ATOM     27  C   UNL     1       9.430  -7.321  33.299  0.00  0.00    +0.004 A 
ATOM     30  C   UNL     1       7.204  -5.700  33.743  0.00  0.00    +0.000 A 
ATOM     31  C   UNL     1       8.150  -7.807  33.032  0.00  0.00    +0.000 A 
ATOM     32  C   UNL     1       7.036  -6.996  33.254  0.00  0.00    +0.000 A 
ENDBRANCH  22  24
ENDBRANCH  21  22
ENDBRANCH  13   4
BRANCH   9   1
ATOM      1  O   UNL     1      15.053  -7.178  28.084  0.00  0.00    -0.391 OA
ATOM     37  H   UNL     1      15.481  -7.639  27.342  0.00  0.00    +0.210 HD
ENDBRANCH   9   1
BRANCH  12  17
ATOM     17  C   UNL     1      17.777  -6.979  27.001  0.00  0.00    +0.077 C 
ATOM     19  C   UNL     1      18.986  -7.485  27.778  0.00  0.00    +0.017 C 
BRANCH  17  20
ATOM      2  O   UNL     1      19.289  -6.634  25.140  0.00  0.00    -0.276 OA
ATOM      5  N   UNL     1      17.177  -5.682  25.044  0.00  0.00    -0.311 N 
ATOM     20  C   UNL     1      18.184  -6.428  25.637  0.00  0.00    +0.216 C 
ATOM     38  H   UNL     1      16.279  -5.588  25.508  0.00  0.00    +0.149 HD
BRANCH   5  23
ATOM     23  C   UNL     1      17.327  -5.055  23.751  0.00  0.00    +0.139 C 
BRANCH  23  25
ATOM     25  C   UNL     1      17.261  -3.558  23.840  0.00  0.00    -0.030 A 
ATOM     28  C   UNL     1      17.448  -2.783  22.696  0.00  0.00    +0.005 A 
ATOM     29  C   UNL     1      17.011  -2.942  25.066  0.00  0.00    +0.005 A 
ATOM     33  C   UNL     1      17.387  -1.392  22.778  0.00  0.00    +0.000 A 
ATOM     34  C   UNL     1      16.951  -1.551  25.149  0.00  0.00    +0.000 A 
ATOM     35  C   UNL     1      17.138  -0.776  24.004  0.00  0.00    +0.000 A 
ENDBRANCH  23  25
ENDBRANCH   5  23
ENDBRANCH  17  20
ENDBRANCH  12  17
TORSDOF 8
ENDMDL
MODEL 4
REMARK VINA RESULT:      -7.3      1.931      2.678
REMARK  Name = 45361514
REMARK  11 active torsions:
REMARK  status: ('A' for Active; 'I' for Inactive)
REMARK    1  A    between atoms: O_1  and  C_9
REMARK    2  A    between atoms: N_4  and  C_13
REMARK    3  A    between atoms: N_5  and  C_23
REMARK    4  A    between atoms: C_6  and  C_16
REMARK    5  A    between atoms: C_8  and  C_18
REMARK    6  A    between atoms: C_12  and  C_17
REMARK    7  A    between atoms: C_17  and  C_19
REMARK    8  A    between atoms: C_17  and  C_20
REMARK    9  A    between atoms: C_21  and  C_22
REMARK   10  A    between atoms: C_22  and  C_24
REMARK   11  A    between atoms: C_23  and  C_25
REMARK                            x       y       z     vdW  Elec       q    Type
REMARK                         _______ _______ _______ _____ _____    ______ ____
ROOT
ATOM      6  C   UNL     1      -3.099 -10.589  11.932  0.00  0.00    -0.027 C 
ATOM      7  C   UNL     1      -4.530 -10.235  12.458  0.00  0.00    +0.028 C 
ATOM      8  C   UNL     1      -4.858 -11.037  13.768  0.00  0.00    +0.012 C 
ATOM      9  C   UNL     1      -5.589 -10.343  11.324  0.00  0.00    +0.122 C 
ATOM     10  C   UNL     1      -2.763  -9.701  10.710  0.00  0.00    +0.007 C 
ATOM     11  C   UNL     1      -2.064 -10.277  13.038  0.00  0.00    +0.009 C 
ATOM     12  C   UNL     1      -5.197  -9.536  10.065  0.00  0.00    +0.029 C 
ATOM     13  C   UNL     1      -3.770 -10.774  14.847  0.00  0.00    +0.076 C 
ATOM     14  C   UNL     1      -3.778  -9.834   9.582  0.00  0.00    +0.007 C 
ATOM     15  C   UNL     1      -2.346 -11.008  14.344  0.00  0.00    +0.023 C 
ATOM     16  C   UNL     1      -2.969 -12.076  11.516  0.00  0.00    +0.011 C 
ATOM     18  C   UNL     1      -6.243 -10.715  14.356  0.00  0.00    +0.010 C 
ENDROOT
BRANCH  13   4
ATOM      3  O   UNL     1      -4.701  -9.877  17.418  0.00  0.00    -0.275 OA
ATOM      4  N   UNL     1      -3.978 -11.588  16.027  0.00  0.00    -0.312 N 
ATOM     21  C   UNL     1      -4.432 -11.060  17.224  0.00  0.00    +0.218 C 
ATOM     36  H   UNL     1      -3.718 -12.568  15.974  0.00  0.00    +0.149 HD
BRANCH  21  22
ATOM     22  C   UNL     1      -4.565 -12.133  18.287  0.00  0.00    +0.130 C 
BRANCH  22  24
ATOM     24  C   UNL     1      -5.984 -12.593  18.496  0.00  0.00    -0.039 A 
ATOM     26  C   UNL     1      -6.684 -12.196  19.635  0.00  0.00    +0.004 A 
ATOM     27  C   UNL     1      -6.598 -13.416  17.552  0.00  0.00    +0.004 A 
ATOM     30  C   UNL     1      -7.999 -12.621  19.829  0.00  0.00    +0.000 A 
ATOM     31  C   UNL     1      -7.912 -13.842  17.746  0.00  0.00    +0.000 A 
ATOM     32  C   UNL     1      -8.613 -13.444  18.885  0.00  0.00    +0.000 A 
ENDBRANCH  22  24
ENDBRANCH  21  22
ENDBRANCH  13   4
BRANCH   9   1
ATOM      1  O   UNL     1      -6.833  -9.810  11.780  0.00  0.00    -0.391 OA
ATOM     37  H   UNL     1      -6.849  -9.871  12.751  0.00  0.00    +0.210 HD
ENDBRANCH   9   1
BRANCH  12  17
ATOM     17  C   UNL     1      -6.186  -9.760   8.914  0.00  0.00    +0.077 C 
ATOM     19  C   UNL     1      -5.445  -9.779   7.582  0.00  0.00    +0.017 C 
BRANCH  17  20
ATOM      2  O   UNL     1      -8.232  -8.723   9.692  0.00  0.00    -0.276 OA
ATOM      5  N   UNL     1      -7.023  -7.670   8.017  0.00  0.00    -0.311 N 
ATOM     20  C   UNL     1      -7.264  -8.680   8.936  0.00  0.00    +0.216 C 
ATOM     38  H   UNL     1      -6.179  -7.693   7.452  0.00  0.00    +0.149 HD
BRANCH   5  23
ATOM     23  C   UNL     1      -7.905  -6.539   7.849  0.00  0.00    +0.139 C 
BRANCH  23  25
ATOM     25  C   UNL     1      -9.022  -6.833   6.891  0.00  0.00    -0.030 A 
ATOM     28  C   UNL     1     -10.345  -6.620   7.277  0.00  0.00    +0.005 A 
ATOM     29  C   UNL     1      -8.737  -7.316   5.614  0.00  0.00    +0.005 A 
ATOM     33  C   UNL     1     -11.384  -6.893   6.386  0.00  0.00    +0.000 A 
ATOM     34  C   UNL     1      -9.775  -7.590   4.724  0.00  0.00    +0.000 A 
ATOM     35  C   UNL     1     -11.098  -7.377   5.110  0.00  0.00    +0.000 A 
ENDBRANCH  23  25
ENDBRANCH   5  23
ENDBRANCH  17  20
ENDBRANCH  12  17
TORSDOF 8
ENDMDL
MODEL 5
REMARK VINA RESULT:      -7.2     23.404     25.556
REMARK  Name = 45361514
REMARK  11 active torsions:
REMARK  status: ('A' for Active; 'I' for Inactive)
REMARK    1  A    between atoms: O_1  and  C_9
REMARK    2  A    between atoms: N_4  and  C_13
REMARK    3  A    between atoms: N_5  and  C_23
REMARK    4  A    between atoms: C_6  and  C_16
REMARK    5  A    between atoms: C_8  and  C_18
REMARK    6  A    between atoms: C_12  and  C_17
REMARK    7  A    between atoms: C_17  and  C_19
REMARK    8  A    between atoms: C_17  and  C_20
REMARK    9  A    between atoms: C_21  and  C_22
REMARK   10  A    between atoms: C_22  and  C_24
REMARK   11  A    between atoms: C_23  and  C_25
REMARK                            x       y       z     vdW  Elec       q    Type
REMARK                         _______ _______ _______ _____ _____    ______ ____
ROOT
ATOM      6  C   UNL     1      13.951   4.941   0.650  0.00  0.00    -0.027 C 
ATOM      7  C   UNL     1      12.431   5.210   0.909  0.00  0.00    +0.028 C 
ATOM      8  C   UNL     1      12.147   5.376   2.445  0.00  0.00    +0.012 C 
ATOM      9  C   UNL     1      11.541   4.169   0.173  0.00  0.00    +0.122 C 
ATOM     10  C   UNL     1      14.215   4.896  -0.874  0.00  0.00    +0.007 C 
ATOM     11  C   UNL     1      14.777   6.109   1.236  0.00  0.00    +0.009 C 
ATOM     12  C   UNL     1      11.880   4.054  -1.332  0.00  0.00    +0.029 C 
ATOM     13  C   UNL     1      13.037   6.503   3.040  0.00  0.00    +0.076 C 
ATOM     14  C   UNL     1      13.373   3.850  -1.592  0.00  0.00    +0.007 C 
ATOM     15  C   UNL     1      14.523   6.335   2.720  0.00  0.00    +0.023 C 
ATOM     16  C   UNL     1      14.434   3.609   1.277  0.00  0.00    +0.011 C 
ATOM     18  C   UNL     1      10.673   5.671   2.770  0.00  0.00    +0.010 C 
ENDROOT
BRANCH  13   4
ATOM      3  O   UNL     1      13.313   8.880   4.638  0.00  0.00    -0.275 OA
ATOM      4  N   UNL     1      12.887   6.604   4.476  0.00  0.00    -0.312 N 
ATOM     21  C   UNL     1      13.039   7.801   5.157  0.00  0.00    +0.218 C 
ATOM     36  H   UNL     1      12.723   5.746   4.994  0.00  0.00    +0.149 HD
BRANCH  21  22
ATOM     22  C   UNL     1      12.820   7.621   6.646  0.00  0.00    +0.130 C 
BRANCH  22  24
ATOM     24  C   UNL     1      11.369   7.483   7.024  0.00  0.00    -0.039 A 
ATOM     26  C   UNL     1      10.906   6.293   7.587  0.00  0.00    +0.004 A 
ATOM     27  C   UNL     1      10.488   8.543   6.812  0.00  0.00    +0.004 A 
ATOM     30  C   UNL     1       9.562   6.164   7.938  0.00  0.00    +0.000 A 
ATOM     31  C   UNL     1       9.144   8.414   7.162  0.00  0.00    +0.000 A 
ATOM     32  C   UNL     1       8.680   7.225   7.726  0.00  0.00    +0.000 A 
ENDBRANCH  22  24
ENDBRANCH  21  22
ENDBRANCH  13   4
BRANCH   9   1
ATOM      1  O   UNL     1      10.172   4.569   0.253  0.00  0.00    -0.391 OA
ATOM     37  H   UNL     1       9.672   3.851   0.678  0.00  0.00    +0.210 HD
ENDBRANCH   9   1
BRANCH  12  17
ATOM     17  C   UNL     1      11.085   2.932  -2.011  0.00  0.00    +0.077 C 
ATOM     19  C   UNL     1      12.028   1.827  -2.473  0.00  0.00    +0.017 C 
BRANCH  17  20
ATOM      2  O   UNL     1      10.440   3.130  -4.337  0.00  0.00    -0.276 OA
ATOM      5  N   UNL     1       9.361   4.457  -2.771  0.00  0.00    -0.311 N 
ATOM     20  C   UNL     1      10.277   3.498  -3.175  0.00  0.00    +0.216 C 
ATOM     38  H   UNL     1       9.266   4.678  -1.784  0.00  0.00    +0.149 HD
BRANCH   5  23
ATOM     23  C   UNL     1       8.484   5.138  -3.694  0.00  0.00    +0.139 C 
BRANCH  23  25
ATOM     25  C   UNL     1       7.858   6.356  -3.080  0.00  0.00    -0.030 A 
ATOM     28  C   UNL     1       6.506   6.627  -3.292  0.00  0.00    +0.005 A 
ATOM     29  C   UNL     1       8.626   7.216  -2.296  0.00  0.00    +0.005 A 
ATOM     33  C   UNL     1       5.923   7.759  -2.722  0.00  0.00    +0.000 A 
ATOM     34  C   UNL     1       8.044   8.348  -1.726  0.00  0.00    +0.000 A 
ATOM     35  C   UNL     1       6.693   8.619  -1.938  0.00  0.00    +0.000 A 
ENDBRANCH  23  25
ENDBRANCH   5  23
ENDBRANCH  17  20
ENDBRANCH  12  17
TORSDOF 8
ENDMDL
MODEL 6
REMARK VINA RESULT:      -7.2      3.433      6.882
REMARK  Name = 45361514
REMARK  11 active torsions:
REMARK  status: ('A' for Active; 'I' for Inactive)
REMARK    1  A    between atoms: O_1  and  C_9
REMARK    2  A    between atoms: N_4  and  C_13
REMARK    3  A    between atoms: N_5  and  C_23
REMARK    4  A    between atoms: C_6  and  C_16
REMARK    5  A    between atoms: C_8  and  C_18
REMARK    6  A    between atoms: C_12  and  C_17
REMARK    7  A    between atoms: C_17  and  C_19
REMARK    8  A    between atoms: C_17  and  C_20
REMARK    9  A    between atoms: C_21  and  C_22
REMARK   10  A    between atoms: C_22  and  C_24
REMARK   11  A    between atoms: C_23  and  C_25
REMARK                            x       y       z     vdW  Elec       q    Type
REMARK                         _______ _______ _______ _____ _____    ______ ____
ROOT
ATOM      6  C   UNL     1      -4.683 -11.030  16.868  0.00  0.00    -0.027 C 
ATOM      7  C   UNL     1      -5.449 -10.428  15.644  0.00  0.00    +0.028 C 
ATOM      8  C   UNL     1      -7.002 -10.567  15.833  0.00  0.00    +0.012 C 
ATOM      9  C   UNL     1      -4.887 -10.977  14.302  0.00  0.00    +0.122 C 
ATOM     10  C   UNL     1      -3.165 -10.776  16.704  0.00  0.00    +0.007 C 
ATOM     11  C   UNL     1      -5.143 -10.309  18.156  0.00  0.00    +0.009 C 
ATOM     12  C   UNL     1      -3.353 -10.814  14.187  0.00  0.00    +0.029 C 
ATOM     13  C   UNL     1      -7.443  -9.903  17.168  0.00  0.00    +0.076 C 
ATOM     14  C   UNL     1      -2.604 -11.348  15.408  0.00  0.00    +0.007 C 
ATOM     15  C   UNL     1      -6.647 -10.388  18.380  0.00  0.00    +0.023 C 
ATOM     16  C   UNL     1      -4.917 -12.554  17.025  0.00  0.00    +0.011 C 
ATOM     18  C   UNL     1      -7.819  -9.968  14.676  0.00  0.00    +0.010 C 
ENDROOT
BRANCH  13   4
ATOM      3  O   UNL     1      -9.468  -7.877  17.441  0.00  0.00    -0.275 OA
ATOM      4  N   UNL     1      -8.851 -10.114  17.432  0.00  0.00    -0.312 N 
ATOM     21  C   UNL     1      -9.752  -9.067  17.546  0.00  0.00    +0.218 C 
ATOM     36  H   UNL     1      -9.162 -11.067  17.597  0.00  0.00    +0.149 HD
BRANCH  21  22
ATOM     22  C   UNL     1     -11.155  -9.572  17.816  0.00  0.00    +0.130 C 
BRANCH  22  24
ATOM     24  C   UNL     1     -12.095  -9.373  16.656  0.00  0.00    -0.039 A 
ATOM     26  C   UNL     1     -11.882 -10.061  15.461  0.00  0.00    +0.004 A 
ATOM     27  C   UNL     1     -13.177  -8.501  16.775  0.00  0.00    +0.004 A 
ATOM     30  C   UNL     1     -12.752  -9.878  14.386  0.00  0.00    +0.000 A 
ATOM     31  C   UNL     1     -14.047  -8.317  15.701  0.00  0.00    +0.000 A 
ATOM     32  C   UNL     1     -13.835  -9.005  14.506  0.00  0.00    +0.000 A 
ENDBRANCH  22  24
ENDBRANCH  21  22
ENDBRANCH  13   4
BRANCH   9   1
ATOM      1  O   UNL     1      -5.457 -10.251  13.213  0.00  0.00    -0.391 OA
ATOM     37  H   UNL     1      -4.893 -10.387  12.431  0.00  0.00    +0.210 HD
ENDBRANCH   9   1
BRANCH  12  17
ATOM     17  C   UNL     1      -2.803 -11.478  12.919  0.00  0.00    +0.077 C 
ATOM     19  C   UNL     1      -1.588 -12.333  13.260  0.00  0.00    +0.017 C 
BRANCH  17  20
ATOM      2  O   UNL     1      -1.357  -9.875  11.822  0.00  0.00    -0.276 OA
ATOM      5  N   UNL     1      -3.523 -10.135  11.035  0.00  0.00    -0.311 N 
ATOM     20  C   UNL     1      -2.460 -10.414  11.881  0.00  0.00    +0.216 C 
ATOM     38  H   UNL     1      -4.392 -10.652  11.130  0.00  0.00    +0.149 HD
BRANCH   5  23
ATOM     23  C   UNL     1      -3.441  -9.160   9.972  0.00  0.00    +0.139 C 
BRANCH  23  25
ATOM     25  C   UNL     1      -4.721  -9.069   9.192  0.00  0.00    -0.030 A 
ATOM     28  C   UNL     1      -5.717  -8.179   9.590  0.00  0.00    +0.005 A 
ATOM     29  C   UNL     1      -4.911  -9.874   8.069  0.00  0.00    +0.005 A 
ATOM     33  C   UNL     1      -6.907  -8.094   8.865  0.00  0.00    +0.000 A 
ATOM     34  C   UNL     1      -6.100  -9.790   7.344  0.00  0.00    +0.000 A 
ATOM     35  C   UNL     1      -7.097  -8.899   7.742  0.00  0.00    +0.000 A 
ENDBRANCH  23  25
ENDBRANCH   5  23
ENDBRANCH  17  20
ENDBRANCH  12  17
TORSDOF 8
ENDMDL
MODEL 7
REMARK VINA RESULT:      -7.1      5.224     11.911
REMARK  Name = 45361514
REMARK  11 active torsions:
REMARK  status: ('A' for Active; 'I' for Inactive)
REMARK    1  A    between atoms: O_1  and  C_9
REMARK    2  A    between atoms: N_4  and  C_13
REMARK    3  A    between atoms: N_5  and  C_23
REMARK    4  A    between atoms: C_6  and  C_16
REMARK    5  A    between atoms: C_8  and  C_18
REMARK    6  A    between atoms: C_12  and  C_17
REMARK    7  A    between atoms: C_17  and  C_19
REMARK    8  A    between atoms: C_17  and  C_20
REMARK    9  A    between atoms: C_21  and  C_22
REMARK   10  A    between atoms: C_22  and  C_24
REMARK   11  A    between atoms: C_23  and  C_25
REMARK                            x       y       z     vdW  Elec       q    Type
REMARK                         _______ _______ _______ _____ _____    ______ ____
ROOT
ATOM      6  C   UNL     1     -13.473  -8.473  16.229  0.00  0.00    -0.027 C 
ATOM      7  C   UNL     1     -12.021  -7.946  16.482  0.00  0.00    +0.028 C 
ATOM      8  C   UNL     1     -11.572  -6.973  15.333  0.00  0.00    +0.012 C 
ATOM      9  C   UNL     1     -11.042  -9.116  16.788  0.00  0.00    +0.122 C 
ATOM     10  C   UNL     1     -13.926  -9.335  17.431  0.00  0.00    +0.007 C 
ATOM     11  C   UNL     1     -14.436  -7.268  16.125  0.00  0.00    +0.009 C 
ATOM     12  C   UNL     1     -11.551 -10.035  17.922  0.00  0.00    +0.029 C 
ATOM     13  C   UNL     1     -12.588  -5.805  15.188  0.00  0.00    +0.076 C 
ATOM     14  C   UNL     1     -12.990 -10.504  17.709  0.00  0.00    +0.007 C 
ATOM     15  C   UNL     1     -14.035  -6.274  15.044  0.00  0.00    +0.023 C 
ATOM     16  C   UNL     1     -13.580  -9.324  14.938  0.00  0.00    +0.011 C 
ATOM     18  C   UNL     1     -10.161  -6.394  15.533  0.00  0.00    +0.010 C 
ENDROOT
BRANCH  13   4
ATOM      3  O   UNL     1     -12.937  -6.429  12.401  0.00  0.00    -0.275 OA
ATOM      4  N   UNL     1     -12.268  -4.953  14.062  0.00  0.00    -0.312 N 
ATOM     21  C   UNL     1     -12.475  -5.346  12.750  0.00  0.00    +0.218 C 
ATOM     36  H   UNL     1     -11.820  -4.063  14.257  0.00  0.00    +0.149 HD
BRANCH  21  22
ATOM     22  C   UNL     1     -12.061  -4.261  11.776  0.00  0.00    +0.130 C 
BRANCH  22  24
ATOM     24  C   UNL     1     -13.219  -3.659  11.025  0.00  0.00    -0.039 A 
ATOM     26  C   UNL     1     -13.181  -3.580   9.632  0.00  0.00    +0.004 A 
ATOM     27  C   UNL     1     -14.329  -3.181  11.720  0.00  0.00    +0.004 A 
ATOM     30  C   UNL     1     -14.253  -3.024   8.936  0.00  0.00    +0.000 A 
ATOM     31  C   UNL     1     -15.401  -2.623  11.024  0.00  0.00    +0.000 A 
ATOM     32  C   UNL     1     -15.364  -2.545   9.631  0.00  0.00    +0.000 A 
ENDBRANCH  22  24
ENDBRANCH  21  22
ENDBRANCH  13   4
BRANCH   9   1
ATOM      1  O   UNL     1      -9.788  -8.588  17.222  0.00  0.00    -0.391 OA
ATOM     37  H   UNL     1      -9.611  -7.776  16.715  0.00  0.00    +0.210 HD
ENDBRANCH   9   1
BRANCH  12  17
ATOM     17  C   UNL     1     -10.640 -11.253  18.120  0.00  0.00    +0.077 C 
ATOM     19  C   UNL     1     -11.467 -12.465  18.533  0.00  0.00    +0.017 C 
BRANCH  17  20
ATOM      2  O   UNL     1      -9.823 -10.708  20.334  0.00  0.00    -0.276 OA
ATOM      5  N   UNL     1      -8.289 -10.934  18.609  0.00  0.00    -0.311 N 
ATOM     20  C   UNL     1      -9.564 -10.936  19.154  0.00  0.00    +0.216 C 
ATOM     38  H   UNL     1      -8.158 -11.166  17.630  0.00  0.00    +0.149 HD
BRANCH   5  23
ATOM     23  C   UNL     1      -7.105 -10.657  19.391  0.00  0.00    +0.139 C 
BRANCH  23  25
ATOM     25  C   UNL     1      -5.849 -10.818  18.586  0.00  0.00    -0.030 A 
ATOM     28  C   UNL     1      -4.796 -11.585  19.084  0.00  0.00    +0.005 A 
ATOM     29  C   UNL     1      -5.735 -10.203  17.340  0.00  0.00    +0.005 A 
ATOM     33  C   UNL     1      -3.627 -11.735  18.336  0.00  0.00    +0.000 A 
ATOM     34  C   UNL     1      -4.567 -10.353  16.592  0.00  0.00    +0.000 A 
ATOM     35  C   UNL     1      -3.514 -11.119  17.090  0.00  0.00    +0.000 A 
ENDBRANCH  23  25
ENDBRANCH   5  23
ENDBRANCH  17  20
ENDBRANCH  12  17
TORSDOF 8
ENDMDL
MODEL 8
REMARK VINA RESULT:      -7.1      3.386      6.689
REMARK  Name = 45361514
REMARK  11 active torsions:
REMARK  status: ('A' for Active; 'I' for Inactive)
REMARK    1  A    between atoms: O_1  and  C_9
REMARK    2  A    between atoms: N_4  and  C_13
REMARK    3  A    between atoms: N_5  and  C_23
REMARK    4  A    between atoms: C_6  and  C_16
REMARK    5  A    between atoms: C_8  and  C_18
REMARK    6  A    between atoms: C_12  and  C_17
REMARK    7  A    between atoms: C_17  and  C_19
REMARK    8  A    between atoms: C_17  and  C_20
REMARK    9  A    between atoms: C_21  and  C_22
REMARK   10  A    between atoms: C_22  and  C_24
REMARK   11  A    between atoms: C_23  and  C_25
REMARK                            x       y       z     vdW  Elec       q    Type
REMARK                         _______ _______ _______ _____ _____    ______ ____
ROOT
ATOM      6  C   UNL     1      -5.128 -11.028  16.769  0.00  0.00    -0.027 C 
ATOM      7  C   UNL     1      -5.741 -10.413  15.467  0.00  0.00    +0.028 C 
ATOM      8  C   UNL     1      -7.308 -10.525  15.480  0.00  0.00    +0.012 C 
ATOM      9  C   UNL     1      -5.042 -10.974  14.196  0.00  0.00    +0.122 C 
ATOM     10  C   UNL     1      -3.597 -10.800  16.776  0.00  0.00    +0.007 C 
ATOM     11  C   UNL     1      -5.717 -10.298  17.997  0.00  0.00    +0.009 C 
ATOM     12  C   UNL     1      -3.502 -10.837  14.254  0.00  0.00    +0.029 C 
ATOM     13  C   UNL     1      -7.885  -9.853  16.758  0.00  0.00    +0.076 C 
ATOM     14  C   UNL     1      -2.904 -11.382  15.551  0.00  0.00    +0.007 C 
ATOM     15  C   UNL     1      -7.238 -10.350  18.051  0.00  0.00    +0.023 C 
ATOM     16  C   UNL     1      -5.405 -12.547  16.897  0.00  0.00    +0.011 C 
ATOM     18  C   UNL     1      -7.980  -9.914  14.239  0.00  0.00    +0.010 C 
ENDROOT
BRANCH  13   4
ATOM      3  O   UNL     1      -9.822  -7.895  17.593  0.00  0.00    -0.275 OA
ATOM      4  N   UNL     1      -9.317 -10.040  16.862  0.00  0.00    -0.312 N 
ATOM     21  C   UNL     1     -10.171  -9.030  17.275  0.00  0.00    +0.218 C 
ATOM     36  H   UNL     1      -9.685 -10.968  16.680  0.00  0.00    +0.149 HD
BRANCH  21  22
ATOM     22  C   UNL     1     -11.613  -9.495  17.285  0.00  0.00    +0.130 C 
BRANCH  22  24
ATOM     24  C   UNL     1     -11.973 -10.298  18.507  0.00  0.00    -0.039 A 
ATOM     26  C   UNL     1     -12.362  -9.649  19.679  0.00  0.00    +0.004 A 
ATOM     27  C   UNL     1     -11.917 -11.691  18.468  0.00  0.00    +0.004 A 
ATOM     30  C   UNL     1     -12.697 -10.392  20.810  0.00  0.00    +0.000 A 
ATOM     31  C   UNL     1     -12.251 -12.435  19.600  0.00  0.00    +0.000 A 
ATOM     32  C   UNL     1     -12.641 -11.786  20.771  0.00  0.00    +0.000 A 
ENDBRANCH  22  24
ENDBRANCH  21  22
ENDBRANCH  13   4
BRANCH   9   1
ATOM      1  O   UNL     1      -5.473 -10.238  13.050  0.00  0.00    -0.391 OA
ATOM     37  H   UNL     1      -5.322  -9.293  13.224  0.00  0.00    +0.210 HD
ENDBRANCH   9   1
BRANCH  12  17
ATOM     17  C   UNL     1      -2.824 -11.511  13.055  0.00  0.00    +0.077 C 
ATOM     19  C   UNL     1      -1.603 -12.298  13.518  0.00  0.00    +0.017 C 
BRANCH  17  20
ATOM      2  O   UNL     1      -1.388  -9.842  12.047  0.00  0.00    -0.276 OA
ATOM      5  N   UNL     1      -3.429 -10.300  11.045  0.00  0.00    -0.311 N 
ATOM     20  C   UNL     1      -2.449 -10.463  12.012  0.00  0.00    +0.216 C 
ATOM     38  H   UNL     1      -4.263 -10.879  11.070  0.00  0.00    +0.149 HD
BRANCH   5  23
ATOM     23  C   UNL     1      -3.302  -9.362   9.954  0.00  0.00    +0.139 C 
BRANCH  23  25
ATOM     25  C   UNL     1      -4.593  -9.191   9.207  0.00  0.00    -0.030 A 
ATOM     28  C   UNL     1      -5.575  -8.333   9.701  0.00  0.00    +0.005 A 
ATOM     29  C   UNL     1      -4.810  -9.888   8.019  0.00  0.00    +0.005 A 
ATOM     33  C   UNL     1      -6.775  -8.173   9.007  0.00  0.00    +0.000 A 
ATOM     34  C   UNL     1      -6.009  -9.729   7.325  0.00  0.00    +0.000 A 
ATOM     35  C   UNL     1      -6.991  -8.871   7.819  0.00  0.00    +0.000 A 
ENDBRANCH  23  25
ENDBRANCH   5  23
ENDBRANCH  17  20
ENDBRANCH  12  17
TORSDOF 8
ENDMDL
MODEL 9
REMARK VINA RESULT:      -7.0     22.885     26.120
REMARK  Name = 45361514
REMARK  11 active torsions:
REMARK  status: ('A' for Active; 'I' for Inactive)
REMARK    1  A    between atoms: O_1  and  C_9
REMARK    2  A    between atoms: N_4  and  C_13
REMARK    3  A    between atoms: N_5  and  C_23
REMARK    4  A    between atoms: C_6  and  C_16
REMARK    5  A    between atoms: C_8  and  C_18
REMARK    6  A    between atoms: C_12  and  C_17
REMARK    7  A    between atoms: C_17  and  C_19
REMARK    8  A    between atoms: C_17  and  C_20
REMARK    9  A    between atoms: C_21  and  C_22
REMARK   10  A    between atoms: C_22  and  C_24
REMARK   11  A    between atoms: C_23  and  C_25
REMARK                            x       y       z     vdW  Elec       q    Type
REMARK                         _______ _______ _______ _____ _____    ______ ____
ROOT
ATOM      6  C   UNL     1      10.448   8.306   0.418  0.00  0.00    -0.027 C 
ATOM      7  C   UNL     1      10.380   7.183   1.505  0.00  0.00    +0.028 C 
ATOM      8  C   UNL     1      10.378   5.760   0.840  0.00  0.00    +0.012 C 
ATOM      9  C   UNL     1       9.230   7.448   2.518  0.00  0.00    +0.122 C 
ATOM     10  C   UNL     1      10.563   9.687   1.108  0.00  0.00    +0.007 C 
ATOM     11  C   UNL     1      11.718   8.102  -0.439  0.00  0.00    +0.009 C 
ATOM     12  C   UNL     1       9.290   8.869   3.128  0.00  0.00    +0.029 C 
ATOM     13  C   UNL     1      11.621   5.593  -0.079  0.00  0.00    +0.076 C 
ATOM     14  C   UNL     1       9.417   9.966   2.071  0.00  0.00    +0.007 C 
ATOM     15  C   UNL     1      11.785   6.727  -1.091  0.00  0.00    +0.023 C 
ATOM     16  C   UNL     1       9.205   8.315  -0.507  0.00  0.00    +0.011 C 
ATOM     18  C   UNL     1      10.340   4.605   1.855  0.00  0.00    +0.010 C 
ENDROOT
BRANCH  13   4
ATOM      3  O   UNL     1      13.885   3.987  -0.838  0.00  0.00    -0.275 OA
ATOM      4  N   UNL     1      11.591   4.338  -0.800  0.00  0.00    -0.312 N 
ATOM     21  C   UNL     1      12.742   3.636  -1.119  0.00  0.00    +0.218 C 
ATOM     36  H   UNL     1      10.690   4.005  -1.129  0.00  0.00    +0.149 HD
BRANCH  21  22
ATOM     22  C   UNL     1      12.420   2.357  -1.866  0.00  0.00    +0.130 C 
BRANCH  22  24
ATOM     24  C   UNL     1      11.503   2.567  -3.042  0.00  0.00    -0.039 A 
ATOM     26  C   UNL     1      10.232   1.990  -3.047  0.00  0.00    +0.004 A 
ATOM     27  C   UNL     1      11.923   3.337  -4.126  0.00  0.00    +0.004 A 
ATOM     30  C   UNL     1       9.382   2.185  -4.135  0.00  0.00    +0.000 A 
ATOM     31  C   UNL     1      11.073   3.531  -5.215  0.00  0.00    +0.000 A 
ATOM     32  C   UNL     1       9.802   2.956  -5.220  0.00  0.00    +0.000 A 
ENDBRANCH  22  24
ENDBRANCH  21  22
ENDBRANCH  13   4
BRANCH   9   1
ATOM      1  O   UNL     1       9.333   6.532   3.609  0.00  0.00    -0.391 OA
ATOM     37  H   UNL     1       9.663   5.685   3.261  0.00  0.00    +0.210 HD
ENDBRANCH   9   1
BRANCH  12  17
ATOM     17  C   UNL     1       8.078   9.157   4.021  0.00  0.00    +0.077 C 
ATOM     19  C   UNL     1       7.371  10.424   3.554  0.00  0.00    +0.017 C 
BRANCH  17  20
ATOM      2  O   UNL     1       8.985  10.306   5.951  0.00  0.00    -0.276 OA
ATOM      5  N   UNL     1       8.337   8.091   6.182  0.00  0.00    -0.311 N 
ATOM     20  C   UNL     1       8.519   9.271   5.477  0.00  0.00    +0.216 C 
ATOM     38  H   UNL     1       7.913   7.291   5.724  0.00  0.00    +0.149 HD
BRANCH   5  23
ATOM     23  C   UNL     1       8.684   7.953   7.578  0.00  0.00    +0.139 C 
BRANCH  23  25
ATOM     25  C   UNL     1       9.078   6.546   7.923  0.00  0.00    -0.030 A 
ATOM     28  C   UNL     1       9.022   6.113   9.247  0.00  0.00    +0.005 A 
ATOM     29  C   UNL     1       9.498   5.673   6.921  0.00  0.00    +0.005 A 
ATOM     33  C   UNL     1       9.388   4.805   9.569  0.00  0.00    +0.000 A 
ATOM     34  C   UNL     1       9.864   4.366   7.242  0.00  0.00    +0.000 A 
ATOM     35  C   UNL     1       9.808   3.932   8.566  0.00  0.00    +0.000 A 
ENDBRANCH  23  25
ENDBRANCH   5  23
ENDBRANCH  17  20
ENDBRANCH  12  17
TORSDOF 8
ENDMDL
MODEL 10
REMARK VINA RESULT:      -7.0     24.170     27.121
REMARK  Name = 45361514
REMARK  11 active torsions:
REMARK  status: ('A' for Active; 'I' for Inactive)
REMARK    1  A    between atoms: O_1  and  C_9
REMARK    2  A    between atoms: N_4  and  C_13
REMARK    3  A    between atoms: N_5  and  C_23
REMARK    4  A    between atoms: C_6  and  C_16
REMARK    5  A    between atoms: C_8  and  C_18
REMARK    6  A    between atoms: C_12  and  C_17
REMARK    7  A    between atoms: C_17  and  C_19
REMARK    8  A    between atoms: C_17  and  C_20
REMARK    9  A    between atoms: C_21  and  C_22
REMARK   10  A    between atoms: C_22  and  C_24
REMARK   11  A    between atoms: C_23  and  C_25
REMARK                            x       y       z     vdW  Elec       q    Type
REMARK                         _______ _______ _______ _____ _____    ______ ____
ROOT
ATOM      6  C   UNL     1       9.699   6.832   6.286  0.00  0.00    -0.027 C 
ATOM      7  C   UNL     1      10.244   7.567   5.017  0.00  0.00    +0.028 C 
ATOM      8  C   UNL     1      11.301   6.678   4.268  0.00  0.00    +0.012 C 
ATOM      9  C   UNL     1      10.707   9.012   5.357  0.00  0.00    +0.122 C 
ATOM     10  C   UNL     1       8.581   7.683   6.935  0.00  0.00    +0.007 C 
ATOM     11  C   UNL     1       9.075   5.484   5.860  0.00  0.00    +0.009 C 
ATOM     12  C   UNL     1       9.621   9.826   6.099  0.00  0.00    +0.029 C 
ATOM     13  C   UNL     1      10.685   5.296   3.910  0.00  0.00    +0.076 C 
ATOM     14  C   UNL     1       9.043   9.087   7.305  0.00  0.00    +0.007 C 
ATOM     15  C   UNL     1      10.047   4.588   5.104  0.00  0.00    +0.023 C 
ATOM     16  C   UNL     1      10.802   6.572   7.343  0.00  0.00    +0.011 C 
ATOM     18  C   UNL     1      11.859   7.329   2.991  0.00  0.00    +0.010 C 
ENDROOT
BRANCH  13   4
ATOM      3  O   UNL     1      10.494   3.953   1.372  0.00  0.00    -0.275 OA
ATOM      4  N   UNL     1      11.667   4.408   3.322  0.00  0.00    -0.312 N 
ATOM     21  C   UNL     1      11.482   3.807   2.088  0.00  0.00    +0.218 C 
ATOM     36  H   UNL     1      12.487   4.180   3.876  0.00  0.00    +0.149 HD
BRANCH  21  22
ATOM     22  C   UNL     1      12.665   2.936   1.714  0.00  0.00    +0.130 C 
BRANCH  22  24
ATOM     24  C   UNL     1      13.588   3.580   0.713  0.00  0.00    -0.039 A 
ATOM     26  C   UNL     1      14.781   4.164   1.141  0.00  0.00    +0.004 A 
ATOM     27  C   UNL     1      13.252   3.593  -0.640  0.00  0.00    +0.004 A 
ATOM     30  C   UNL     1      15.637   4.760   0.215  0.00  0.00    +0.000 A 
ATOM     31  C   UNL     1      14.107   4.190  -1.567  0.00  0.00    +0.000 A 
ATOM     32  C   UNL     1      15.300   4.773  -1.140  0.00  0.00    +0.000 A 
ENDBRANCH  22  24
ENDBRANCH  21  22
ENDBRANCH  13   4
BRANCH   9   1
ATOM      1  O   UNL     1      10.993   9.719   4.149  0.00  0.00    -0.391 OA
ATOM     37  H   UNL     1      11.589  10.457   4.366  0.00  0.00    +0.210 HD
ENDBRANCH   9   1
BRANCH  12  17
ATOM     17  C   UNL     1      10.141  11.199   6.541  0.00  0.00    +0.077 C 
ATOM     19  C   UNL     1       9.325  12.305   5.882  0.00  0.00    +0.017 C 
BRANCH  17  20
ATOM      2  O   UNL     1      12.036  11.994   5.259  0.00  0.00    -0.276 OA
ATOM      5  N   UNL     1      12.429  10.612   7.080  0.00  0.00    -0.311 N 
ATOM     20  C   UNL     1      11.624  11.327   6.206  0.00  0.00    +0.216 C 
ATOM     38  H   UNL     1      12.010  10.114   7.859  0.00  0.00    +0.149 HD
BRANCH   5  23
ATOM     23  C   UNL     1      13.869  10.577   6.965  0.00  0.00    +0.139 C 
BRANCH  23  25
ATOM     25  C   UNL     1      14.338   9.427   6.122  0.00  0.00    -0.030 A 
ATOM     28  C   UNL     1      14.917   9.667   4.876  0.00  0.00    +0.005 A 
ATOM     29  C   UNL     1      14.198   8.119   6.586  0.00  0.00    +0.005 A 
ATOM     33  C   UNL     1      15.353   8.598   4.092  0.00  0.00    +0.000 A 
ATOM     34  C   UNL     1      14.633   7.050   5.803  0.00  0.00    +0.000 A 
ATOM     35  C   UNL     1      15.212   7.290   4.557  0.00  0.00    +0.000 A 
ENDBRANCH  23  25
ENDBRANCH   5  23
ENDBRANCH  17  20
ENDBRANCH  12  17
TORSDOF 8
ENDMDL
