MODEL 1
REMARK VINA RESULT:      -7.9      0.000      0.000
REMARK  Name = 25390149
REMARK  12 active torsions:
REMARK  status: ('A' for Active; 'I' for Inactive)
REMARK    1  A    between atoms: O_5  and  C_14
REMARK    2  A    between atoms: O_6  and  C_15
REMARK    3  A    between atoms: O_9  and  C_31
REMARK    4  A    between atoms: O_9  and  C_32
REMARK    5  A    between atoms: N_10  and  C_19
REMARK    6  A    between atoms: N_12  and  C_23
REMARK    7  A    between atoms: C_16  and  C_18
REMARK    8  A    between atoms: C_17  and  C_19
REMARK    9  A    between atoms: C_18  and  C_20
REMARK   10  A    between atoms: C_22  and  C_24
REMARK   11  A    between atoms: C_23  and  C_25
REMARK   12  A    between atoms: C_23  and  C_26
REMARK                            x       y       z     vdW  Elec       q    Type
REMARK                         _______ _______ _______ _____ _____    ______ ____
ROOT
ATOM      4  O   UNL     1      11.192   8.832  19.880  0.00  0.00    -0.366 OA
ATOM     14  C   UNL     1      12.067   7.039  21.136  0.00  0.00    +0.175 C 
ATOM     15  C   UNL     1      11.117   7.811  22.027  0.00  0.00    +0.176 C 
ATOM     16  C   UNL     1      11.597   7.458  19.753  0.00  0.00    +0.159 C 
ATOM     17  C   UNL     1      10.983   9.133  21.278  0.00  0.00    +0.167 C 
ENDROOT
BRANCH  14   5
ATOM      5  O   UNL     1      11.995   5.641  21.320  0.00  0.00    -0.387 OA
ATOM     33  H   UNL     1      12.881   5.279  21.147  0.00  0.00    +0.210 HD
ENDBRANCH  14   5
BRANCH  15   6
ATOM      6  O   UNL     1       9.836   7.182  22.046  0.00  0.00    -0.387 OA
ATOM     34  H   UNL     1       9.857   6.460  21.393  0.00  0.00    +0.210 HD
ENDBRANCH  15   6
BRANCH  16  18
ATOM     18  C   UNL     1      12.673   7.337  18.689  0.00  0.00    +0.133 C 
BRANCH  18  20
ATOM      7  O   UNL     1      14.308   8.957  19.492  0.00  0.00    -0.338 OA
ATOM     11  N   UNL     1      15.034   6.839  19.503  0.00  0.00    -0.191 NA
ATOM     13  N   UNL     1      15.619   8.998  19.983  0.00  0.00    -0.056 NA
ATOM     20  C   UNL     1      14.042   7.650  19.235  0.00  0.00    +0.230 A 
ATOM     22  C   UNL     1      15.979   7.711  19.959  0.00  0.00    +0.202 A 
BRANCH  22  24
ATOM     24  C   UNL     1      17.274   7.265  20.385  0.00  0.00    +0.023 A 
ATOM     27  C   UNL     1      17.838   6.119  19.822  0.00  0.00    +0.015 A 
ATOM     28  C   UNL     1      17.970   7.977  21.361  0.00  0.00    +0.015 A 
ATOM     29  C   UNL     1      19.097   5.686  20.236  0.00  0.00    +0.046 A 
ATOM     30  C   UNL     1      19.229   7.542  21.777  0.00  0.00    +0.046 A 
ATOM     31  C   UNL     1      19.792   6.397  21.214  0.00  0.00    +0.130 A 
BRANCH  31   9
ATOM      9  O   UNL     1      21.021   5.974  21.620  0.00  0.00    -0.406 OA
BRANCH   9  32
ATOM      1  F   UNL     1      21.870   7.233  19.950  0.00  0.00    -0.133 F 
ATOM      2  F   UNL     1      23.258   6.413  21.427  0.00  0.00    -0.133 F 
ATOM      3  F   UNL     1      22.297   5.089  19.940  0.00  0.00    -0.133 F 
ATOM     32  C   UNL     1      22.123   6.164  20.739  0.00  0.00    +0.575 C 
ENDBRANCH   9  32
ENDBRANCH  31   9
ENDBRANCH  22  24
ENDBRANCH  18  20
ENDBRANCH  16  18
BRANCH  17  19
ATOM     19  C   UNL     1      12.025  10.162  21.695  0.00  0.00    +0.140 C 
BRANCH  19  10
ATOM      8  O   UNL     1      10.703  11.454  23.911  0.00  0.00    -0.253 OA
ATOM     10  N   UNL     1      11.470  11.482  21.718  0.00  0.00    -0.297 N 
ATOM     12  N   UNL     1      10.395  13.332  22.585  0.00  0.00    -0.297 N 
ATOM     21  C   UNL     1      10.842  12.038  22.837  0.00  0.00    +0.300 C 
ATOM     35  H   UNL     1      11.546  12.048  20.878  0.00  0.00    +0.150 HD
ATOM     36  H   UNL     1      10.556  13.732  21.666  0.00  0.00    +0.150 HD
BRANCH  12  23
ATOM     23  C   UNL     1       9.712  14.131  23.576  0.00  0.00    +0.068 C 
ATOM     25  C   UNL     1       8.668  15.021  22.911  0.00  0.00    +0.027 C 
ATOM     26  C   UNL     1      10.710  14.957  24.378  0.00  0.00    +0.027 C 
ENDBRANCH  12  23
ENDBRANCH  19  10
ENDBRANCH  17  19
TORSDOF 10
ENDMDL
MODEL 2
REMARK VINA RESULT:      -7.7      3.809      4.607
REMARK  Name = 25390149
REMARK  12 active torsions:
REMARK  status: ('A' for Active; 'I' for Inactive)
REMARK    1  A    between atoms: O_5  and  C_14
REMARK    2  A    between atoms: O_6  and  C_15
REMARK    3  A    between atoms: O_9  and  C_31
REMARK    4  A    between atoms: O_9  and  C_32
REMARK    5  A    between atoms: N_10  and  C_19
REMARK    6  A    between atoms: N_12  and  C_23
REMARK    7  A    between atoms: C_16  and  C_18
REMARK    8  A    between atoms: C_17  and  C_19
REMARK    9  A    between atoms: C_18  and  C_20
REMARK   10  A    between atoms: C_22  and  C_24
REMARK   11  A    between atoms: C_23  and  C_25
REMARK   12  A    between atoms: C_23  and  C_26
REMARK                            x       y       z     vdW  Elec       q    Type
REMARK                         _______ _______ _______ _____ _____    ______ ____
ROOT
ATOM      4  O   UNL     1      14.252   8.628  17.653  0.00  0.00    -0.366 OA
ATOM     14  C   UNL     1      11.915   8.444  17.397  0.00  0.00    +0.175 C 
ATOM     15  C   UNL     1      12.419   9.434  16.368  0.00  0.00    +0.176 C 
ATOM     16  C   UNL     1      13.182   7.669  17.720  0.00  0.00    +0.159 C 
ATOM     17  C   UNL     1      13.798   9.786  16.914  0.00  0.00    +0.167 C 
ENDROOT
BRANCH  14   5
ATOM      5  O   UNL     1      10.890   7.604  16.910  0.00  0.00    -0.387 OA
ATOM     33  H   UNL     1      10.606   7.959  16.052  0.00  0.00    +0.210 HD
ENDBRANCH  14   5
BRANCH  15   6
ATOM      6  O   UNL     1      12.594   8.790  15.106  0.00  0.00    -0.387 OA
ATOM     34  H   UNL     1      12.916   7.888  15.283  0.00  0.00    +0.210 HD
ENDBRANCH  15   6
BRANCH  16  18
ATOM     18  C   UNL     1      13.159   7.024  19.095  0.00  0.00    +0.133 C 
BRANCH  18  20
ATOM      7  O   UNL     1      14.647   8.033  20.743  0.00  0.00    -0.338 OA
ATOM     11  N   UNL     1      15.579   6.376  19.558  0.00  0.00    -0.191 NA
ATOM     13  N   UNL     1      15.959   7.908  21.214  0.00  0.00    -0.056 NA
ATOM     20  C   UNL     1      14.504   7.094  19.771  0.00  0.00    +0.230 A 
ATOM     22  C   UNL     1      16.444   6.911  20.467  0.00  0.00    +0.202 A 
BRANCH  22  24
ATOM     24  C   UNL     1      17.787   6.427  20.604  0.00  0.00    +0.023 A 
ATOM     27  C   UNL     1      18.317   5.557  19.650  0.00  0.00    +0.015 A 
ATOM     28  C   UNL     1      18.564   6.826  21.692  0.00  0.00    +0.015 A 
ATOM     29  C   UNL     1      19.623   5.087  19.785  0.00  0.00    +0.046 A 
ATOM     30  C   UNL     1      19.870   6.355  21.827  0.00  0.00    +0.046 A 
ATOM     31  C   UNL     1      20.399   5.486  20.873  0.00  0.00    +0.130 A 
BRANCH  31   9
ATOM      9  O   UNL     1      21.674   5.026  21.005  0.00  0.00    -0.406 OA
BRANCH   9  32
ATOM      1  F   UNL     1      21.774   3.572  22.728  0.00  0.00    -0.133 F 
ATOM      2  F   UNL     1      20.911   2.875  20.845  0.00  0.00    -0.133 F 
ATOM      3  F   UNL     1      23.086   3.227  21.015  0.00  0.00    -0.133 F 
ATOM     32  C   UNL     1      21.864   3.666  21.382  0.00  0.00    +0.575 C 
ENDBRANCH   9  32
ENDBRANCH  31   9
ENDBRANCH  22  24
ENDBRANCH  18  20
ENDBRANCH  16  18
BRANCH  17  19
ATOM     19  C   UNL     1      13.775  10.969  17.872  0.00  0.00    +0.140 C 
BRANCH  19  10
ATOM      8  O   UNL     1      16.243  12.201  18.723  0.00  0.00    -0.253 OA
ATOM     10  N   UNL     1      14.516  10.685  19.065  0.00  0.00    -0.297 N 
ATOM     12  N   UNL     1      16.217  10.860  20.616  0.00  0.00    -0.297 N 
ATOM     21  C   UNL     1      15.709  11.328  19.407  0.00  0.00    +0.300 C 
ATOM     35  H   UNL     1      14.147   9.984  19.702  0.00  0.00    +0.150 HD
ATOM     36  H   UNL     1      15.705  10.137  21.111  0.00  0.00    +0.150 HD
BRANCH  12  23
ATOM     23  C   UNL     1      17.441  11.360  21.197  0.00  0.00    +0.068 C 
ATOM     25  C   UNL     1      18.579  10.374  20.964  0.00  0.00    +0.027 C 
ATOM     26  C   UNL     1      17.252  11.644  22.682  0.00  0.00    +0.027 C 
ENDBRANCH  12  23
ENDBRANCH  19  10
ENDBRANCH  17  19
TORSDOF 10
ENDMDL
MODEL 3
REMARK VINA RESULT:      -7.7      2.044      2.504
REMARK  Name = 25390149
REMARK  12 active torsions:
REMARK  status: ('A' for Active; 'I' for Inactive)
REMARK    1  A    between atoms: O_5  and  C_14
REMARK    2  A    between atoms: O_6  and  C_15
REMARK    3  A    between atoms: O_9  and  C_31
REMARK    4  A    between atoms: O_9  and  C_32
REMARK    5  A    between atoms: N_10  and  C_19
REMARK    6  A    between atoms: N_12  and  C_23
REMARK    7  A    between atoms: C_16  and  C_18
REMARK    8  A    between atoms: C_17  and  C_19
REMARK    9  A    between atoms: C_18  and  C_20
REMARK   10  A    between atoms: C_22  and  C_24
REMARK   11  A    between atoms: C_23  and  C_25
REMARK   12  A    between atoms: C_23  and  C_26
REMARK                            x       y       z     vdW  Elec       q    Type
REMARK                         _______ _______ _______ _____ _____    ______ ____
ROOT
ATOM      4  O   UNL     1      11.079   9.219  20.448  0.00  0.00    -0.366 OA
ATOM     14  C   UNL     1      11.742   7.008  20.929  0.00  0.00    +0.175 C 
ATOM     15  C   UNL     1      10.985   7.538  22.129  0.00  0.00    +0.176 C 
ATOM     16  C   UNL     1      11.253   7.933  19.828  0.00  0.00    +0.159 C 
ATOM     17  C   UNL     1      11.011   9.042  21.882  0.00  0.00    +0.167 C 
ENDROOT
BRANCH  14   5
ATOM      5  O   UNL     1      11.463   5.653  20.646  0.00  0.00    -0.387 OA
ATOM     33  H   UNL     1      11.221   5.224  21.484  0.00  0.00    +0.210 HD
ENDBRANCH  14   5
BRANCH  15   6
ATOM      6  O   UNL     1       9.625   7.106  22.085  0.00  0.00    -0.387 OA
ATOM     34  H   UNL     1       9.076   7.891  21.910  0.00  0.00    +0.210 HD
ENDBRANCH  15   6
BRANCH  16  18
ATOM     18  C   UNL     1      12.225   8.053  18.666  0.00  0.00    +0.133 C 
BRANCH  18  20
ATOM      7  O   UNL     1      14.077   9.540  19.219  0.00  0.00    -0.338 OA
ATOM     11  N   UNL     1      14.536   7.363  19.485  0.00  0.00    -0.191 NA
ATOM     13  N   UNL     1      15.400   9.474  19.672  0.00  0.00    -0.056 NA
ATOM     20  C   UNL     1      13.642   8.255  19.138  0.00  0.00    +0.230 A 
ATOM     22  C   UNL     1      15.597   8.158  19.805  0.00  0.00    +0.202 A 
BRANCH  22  24
ATOM     24  C   UNL     1      16.842   7.607  20.256  0.00  0.00    +0.023 A 
ATOM     27  C   UNL     1      17.316   6.414  19.710  0.00  0.00    +0.015 A 
ATOM     28  C   UNL     1      17.580   8.265  21.240  0.00  0.00    +0.015 A 
ATOM     29  C   UNL     1      18.527   5.879  20.149  0.00  0.00    +0.046 A 
ATOM     30  C   UNL     1      18.791   7.729  21.680  0.00  0.00    +0.046 A 
ATOM     31  C   UNL     1      19.264   6.536  21.134  0.00  0.00    +0.130 A 
BRANCH  31   9
ATOM      9  O   UNL     1      20.445   6.014  21.564  0.00  0.00    -0.406 OA
BRANCH   9  32
ATOM      1  F   UNL     1      22.689   6.251  21.520  0.00  0.00    -0.133 F 
ATOM      2  F   UNL     1      21.745   5.108  19.914  0.00  0.00    -0.133 F 
ATOM      3  F   UNL     1      21.514   7.303  20.007  0.00  0.00    -0.133 F 
ATOM     32  C   UNL     1      21.592   6.169  20.734  0.00  0.00    +0.575 C 
ENDBRANCH   9  32
ENDBRANCH  31   9
ENDBRANCH  22  24
ENDBRANCH  18  20
ENDBRANCH  16  18
BRANCH  17  19
ATOM     19  C   UNL     1      12.227   9.725  22.493  0.00  0.00    +0.140 C 
BRANCH  19  10
ATOM      8  O   UNL     1      13.879  12.027  23.042  0.00  0.00    -0.253 OA
ATOM     10  N   UNL     1      12.887  10.562  21.536  0.00  0.00    -0.297 N 
ATOM     12  N   UNL     1      14.195  12.299  20.760  0.00  0.00    -0.297 N 
ATOM     21  C   UNL     1      13.673  11.664  21.884  0.00  0.00    +0.300 C 
ATOM     35  H   UNL     1      12.786  10.334  20.551  0.00  0.00    +0.150 HD
ATOM     36  H   UNL     1      13.970  11.926  19.843  0.00  0.00    +0.150 HD
BRANCH  12  23
ATOM     23  C   UNL     1      15.042  13.466  20.842  0.00  0.00    +0.068 C 
ATOM     25  C   UNL     1      14.835  14.357  19.624  0.00  0.00    +0.027 C 
ATOM     26  C   UNL     1      16.503  13.057  20.985  0.00  0.00    +0.027 C 
ENDBRANCH  12  23
ENDBRANCH  19  10
ENDBRANCH  17  19
TORSDOF 10
ENDMDL
MODEL 4
REMARK VINA RESULT:      -7.5      3.655      5.145
REMARK  Name = 25390149
REMARK  12 active torsions:
REMARK  status: ('A' for Active; 'I' for Inactive)
REMARK    1  A    between atoms: O_5  and  C_14
REMARK    2  A    between atoms: O_6  and  C_15
REMARK    3  A    between atoms: O_9  and  C_31
REMARK    4  A    between atoms: O_9  and  C_32
REMARK    5  A    between atoms: N_10  and  C_19
REMARK    6  A    between atoms: N_12  and  C_23
REMARK    7  A    between atoms: C_16  and  C_18
REMARK    8  A    between atoms: C_17  and  C_19
REMARK    9  A    between atoms: C_18  and  C_20
REMARK   10  A    between atoms: C_22  and  C_24
REMARK   11  A    between atoms: C_23  and  C_25
REMARK   12  A    between atoms: C_23  and  C_26
REMARK                            x       y       z     vdW  Elec       q    Type
REMARK                         _______ _______ _______ _____ _____    ______ ____
ROOT
ATOM      4  O   UNL     1      13.576   7.368  18.463  0.00  0.00    -0.366 OA
ATOM     14  C   UNL     1      11.628   8.511  19.140  0.00  0.00    +0.175 C 
ATOM     15  C   UNL     1      11.741   8.635  17.636  0.00  0.00    +0.176 C 
ATOM     16  C   UNL     1      12.498   7.295  19.411  0.00  0.00    +0.159 C 
ATOM     17  C   UNL     1      13.201   8.267  17.395  0.00  0.00    +0.167 C 
ENDROOT
BRANCH  14   5
ATOM      5  O   UNL     1      10.302   8.326  19.589  0.00  0.00    -0.387 OA
ATOM     33  H   UNL     1      10.319   7.630  20.267  0.00  0.00    +0.210 HD
ENDBRANCH  14   5
BRANCH  15   6
ATOM      6  O   UNL     1      10.927   7.654  16.996  0.00  0.00    -0.387 OA
ATOM     34  H   UNL     1      11.520   6.964  16.650  0.00  0.00    +0.210 HD
ENDBRANCH  15   6
BRANCH  16  18
ATOM     18  C   UNL     1      13.058   7.257  20.823  0.00  0.00    +0.133 C 
BRANCH  18  20
ATOM      7  O   UNL     1      15.028   8.691  20.909  0.00  0.00    -0.338 OA
ATOM     11  N   UNL     1      15.490   6.503  20.786  0.00  0.00    -0.191 NA
ATOM     13  N   UNL     1      16.425   8.588  20.907  0.00  0.00    -0.056 NA
ATOM     20  C   UNL     1      14.556   7.419  20.837  0.00  0.00    +0.230 A 
ATOM     22  C   UNL     1      16.619   7.268  20.832  0.00  0.00    +0.202 A 
BRANCH  22  24
ATOM     24  C   UNL     1      17.928   6.681  20.803  0.00  0.00    +0.023 A 
ATOM     27  C   UNL     1      18.229   5.691  19.867  0.00  0.00    +0.015 A 
ATOM     28  C   UNL     1      18.901   7.102  21.710  0.00  0.00    +0.015 A 
ATOM     29  C   UNL     1      19.502   5.122  19.839  0.00  0.00    +0.046 A 
ATOM     30  C   UNL     1      20.174   6.532  21.683  0.00  0.00    +0.046 A 
ATOM     31  C   UNL     1      20.474   5.542  20.747  0.00  0.00    +0.130 A 
BRANCH  31   9
ATOM      9  O   UNL     1      21.716   4.986  20.721  0.00  0.00    -0.406 OA
BRANCH   9  32
ATOM      1  F   UNL     1      21.610   3.802  22.639  0.00  0.00    -0.133 F 
ATOM      2  F   UNL     1      21.059   2.795  20.779  0.00  0.00    -0.133 F 
ATOM      3  F   UNL     1      23.172   3.288  21.199  0.00  0.00    -0.133 F 
ATOM     32  C   UNL     1      21.894   3.707  21.321  0.00  0.00    +0.575 C 
ENDBRANCH   9  32
ENDBRANCH  31   9
ENDBRANCH  22  24
ENDBRANCH  18  20
ENDBRANCH  16  18
BRANCH  17  19
ATOM     19  C   UNL     1      14.135   9.469  17.449  0.00  0.00    +0.140 C 
BRANCH  19  10
ATOM      8  O   UNL     1      14.723  10.118  14.699  0.00  0.00    -0.253 OA
ATOM     10  N   UNL     1      13.612  10.566  16.690  0.00  0.00    -0.297 N 
ATOM     12  N   UNL     1      13.297  11.942  14.862  0.00  0.00    -0.297 N 
ATOM     21  C   UNL     1      13.948  10.814  15.355  0.00  0.00    +0.300 C 
ATOM     35  H   UNL     1      12.953  11.191  17.144  0.00  0.00    +0.150 HD
ATOM     36  H   UNL     1      12.674  12.453  15.480  0.00  0.00    +0.150 HD
BRANCH  12  23
ATOM     23  C   UNL     1      13.470  12.416  13.509  0.00  0.00    +0.068 C 
ATOM     25  C   UNL     1      14.561  13.479  13.457  0.00  0.00    +0.027 C 
ATOM     26  C   UNL     1      12.154  12.949  12.957  0.00  0.00    +0.027 C 
ENDBRANCH  12  23
ENDBRANCH  19  10
ENDBRANCH  17  19
TORSDOF 10
ENDMDL
MODEL 5
REMARK VINA RESULT:      -7.3      1.934      2.723
REMARK  Name = 25390149
REMARK  12 active torsions:
REMARK  status: ('A' for Active; 'I' for Inactive)
REMARK    1  A    between atoms: O_5  and  C_14
REMARK    2  A    between atoms: O_6  and  C_15
REMARK    3  A    between atoms: O_9  and  C_31
REMARK    4  A    between atoms: O_9  and  C_32
REMARK    5  A    between atoms: N_10  and  C_19
REMARK    6  A    between atoms: N_12  and  C_23
REMARK    7  A    between atoms: C_16  and  C_18
REMARK    8  A    between atoms: C_17  and  C_19
REMARK    9  A    between atoms: C_18  and  C_20
REMARK   10  A    between atoms: C_22  and  C_24
REMARK   11  A    between atoms: C_23  and  C_25
REMARK   12  A    between atoms: C_23  and  C_26
REMARK                            x       y       z     vdW  Elec       q    Type
REMARK                         _______ _______ _______ _____ _____    ______ ____
ROOT
ATOM      4  O   UNL     1      12.653   7.237  19.131  0.00  0.00    -0.366 OA
ATOM     14  C   UNL     1      13.777   7.437  21.194  0.00  0.00    +0.175 C 
ATOM     15  C   UNL     1      12.309   7.208  21.484  0.00  0.00    +0.176 C 
ATOM     16  C   UNL     1      13.894   6.902  19.777  0.00  0.00    +0.159 C 
ATOM     17  C   UNL     1      11.664   7.537  20.142  0.00  0.00    +0.167 C 
ENDROOT
BRANCH  14   5
ATOM      5  O   UNL     1      14.636   6.761  22.088  0.00  0.00    -0.387 OA
ATOM     33  H   UNL     1      14.334   5.839  22.141  0.00  0.00    +0.210 HD
ENDBRANCH  14   5
BRANCH  15   6
ATOM      6  O   UNL     1      12.069   5.829  21.764  0.00  0.00    -0.387 OA
ATOM     34  H   UNL     1      12.642   5.580  22.511  0.00  0.00    +0.210 HD
ENDBRANCH  15   6
BRANCH  16  18
ATOM     18  C   UNL     1      15.053   7.503  19.000  0.00  0.00    +0.133 C 
BRANCH  18  20
ATOM      7  O   UNL     1      16.674   5.763  18.463  0.00  0.00    -0.338 OA
ATOM     11  N   UNL     1      17.229   7.019  20.233  0.00  0.00    -0.191 NA
ATOM     13  N   UNL     1      17.901   5.268  18.923  0.00  0.00    -0.056 NA
ATOM     20  C   UNL     1      16.351   6.793  19.289  0.00  0.00    +0.230 A 
ATOM     22  C   UNL     1      18.162   6.059  19.968  0.00  0.00    +0.202 A 
BRANCH  22  24
ATOM     24  C   UNL     1      19.345   5.918  20.766  0.00  0.00    +0.023 A 
ATOM     27  C   UNL     1      20.333   5.006  20.394  0.00  0.00    +0.015 A 
ATOM     28  C   UNL     1      19.508   6.693  21.914  0.00  0.00    +0.015 A 
ATOM     29  C   UNL     1      21.484   4.869  21.170  0.00  0.00    +0.046 A 
ATOM     30  C   UNL     1      20.658   6.555  22.692  0.00  0.00    +0.046 A 
ATOM     31  C   UNL     1      21.646   5.643  22.319  0.00  0.00    +0.130 A 
BRANCH  31   9
ATOM      9  O   UNL     1      22.768   5.509  23.078  0.00  0.00    -0.406 OA
BRANCH   9  32
ATOM      1  F   UNL     1      23.652   7.420  23.891  0.00  0.00    -0.133 F 
ATOM      2  F   UNL     1      25.019   5.918  23.082  0.00  0.00    -0.133 F 
ATOM      3  F   UNL     1      23.722   7.092  21.732  0.00  0.00    -0.133 F 
ATOM     32  C   UNL     1      23.800   6.479  22.932  0.00  0.00    +0.575 C 
ENDBRANCH   9  32
ENDBRANCH  31   9
ENDBRANCH  22  24
ENDBRANCH  18  20
ENDBRANCH  16  18
BRANCH  17  19
ATOM     19  C   UNL     1      11.289   9.007  20.006  0.00  0.00    +0.140 C 
BRANCH  19  10
ATOM      8  O   UNL     1      12.247  11.419  21.266  0.00  0.00    -0.253 OA
ATOM     10  N   UNL     1      10.866   9.552  21.261  0.00  0.00    -0.297 N 
ATOM     12  N   UNL     1      10.795  11.031  23.033  0.00  0.00    -0.297 N 
ATOM     21  C   UNL     1      11.382  10.731  21.806  0.00  0.00    +0.300 C 
ATOM     35  H   UNL     1      10.143   9.059  21.778  0.00  0.00    +0.150 HD
ATOM     36  H   UNL     1      10.086  10.402  23.399  0.00  0.00    +0.150 HD
BRANCH  12  23
ATOM     23  C   UNL     1      11.150  12.198  23.806  0.00  0.00    +0.068 C 
ATOM     25  C   UNL     1      11.037  11.899  25.296  0.00  0.00    +0.027 C 
ATOM     26  C   UNL     1      10.279  13.385  23.413  0.00  0.00    +0.027 C 
ENDBRANCH  12  23
ENDBRANCH  19  10
ENDBRANCH  17  19
TORSDOF 10
ENDMDL
MODEL 6
REMARK VINA RESULT:      -7.2      2.541      3.266
REMARK  Name = 25390149
REMARK  12 active torsions:
REMARK  status: ('A' for Active; 'I' for Inactive)
REMARK    1  A    between atoms: O_5  and  C_14
REMARK    2  A    between atoms: O_6  and  C_15
REMARK    3  A    between atoms: O_9  and  C_31
REMARK    4  A    between atoms: O_9  and  C_32
REMARK    5  A    between atoms: N_10  and  C_19
REMARK    6  A    between atoms: N_12  and  C_23
REMARK    7  A    between atoms: C_16  and  C_18
REMARK    8  A    between atoms: C_17  and  C_19
REMARK    9  A    between atoms: C_18  and  C_20
REMARK   10  A    between atoms: C_22  and  C_24
REMARK   11  A    between atoms: C_23  and  C_25
REMARK   12  A    between atoms: C_23  and  C_26
REMARK                            x       y       z     vdW  Elec       q    Type
REMARK                         _______ _______ _______ _____ _____    ______ ____
ROOT
ATOM      4  O   UNL     1      12.082   9.867  20.384  0.00  0.00    -0.366 OA
ATOM     14  C   UNL     1      11.253   8.320  21.959  0.00  0.00    +0.175 C 
ATOM     15  C   UNL     1      11.470   9.639  22.671  0.00  0.00    +0.176 C 
ATOM     16  C   UNL     1      11.162   8.769  20.510  0.00  0.00    +0.159 C 
ATOM     17  C   UNL     1      12.387  10.376  21.702  0.00  0.00    +0.167 C 
ENDROOT
BRANCH  14   5
ATOM      5  O   UNL     1      10.087   7.643  22.378  0.00  0.00    -0.387 OA
ATOM     33  H   UNL     1       9.954   6.892  21.775  0.00  0.00    +0.210 HD
ENDBRANCH  14   5
BRANCH  15   6
ATOM      6  O   UNL     1      10.243  10.363  22.756  0.00  0.00    -0.387 OA
ATOM     34  H   UNL     1       9.636   9.843  23.313  0.00  0.00    +0.210 HD
ENDBRANCH  15   6
BRANCH  16  18
ATOM     18  C   UNL     1      11.528   7.678  19.518  0.00  0.00    +0.133 C 
BRANCH  18  20
ATOM      7  O   UNL     1      13.496   8.087  18.137  0.00  0.00    -0.338 OA
ATOM     11  N   UNL     1      13.938   7.087  20.092  0.00  0.00    -0.191 NA
ATOM     13  N   UNL     1      14.882   7.892  18.169  0.00  0.00    -0.056 NA
ATOM     20  C   UNL     1      13.018   7.587  19.307  0.00  0.00    +0.230 A 
ATOM     22  C   UNL     1      15.065   7.297  19.353  0.00  0.00    +0.202 A 
BRANCH  22  24
ATOM     24  C   UNL     1      16.361   6.902  19.824  0.00  0.00    +0.023 A 
ATOM     27  C   UNL     1      16.870   7.443  21.005  0.00  0.00    +0.015 A 
ATOM     28  C   UNL     1      17.112   5.974  19.102  0.00  0.00    +0.015 A 
ATOM     29  C   UNL     1      18.129   7.058  21.463  0.00  0.00    +0.046 A 
ATOM     30  C   UNL     1      18.373   5.590  19.559  0.00  0.00    +0.046 A 
ATOM     31  C   UNL     1      18.881   6.132  20.740  0.00  0.00    +0.130 A 
BRANCH  31   9
ATOM      9  O   UNL     1      20.111   5.756  21.186  0.00  0.00    -0.406 OA
BRANCH   9  32
ATOM      1  F   UNL     1      22.347   6.061  21.236  0.00  0.00    -0.133 F 
ATOM      2  F   UNL     1      21.157   7.387  19.969  0.00  0.00    -0.133 F 
ATOM      3  F   UNL     1      21.081   7.579  22.170  0.00  0.00    -0.133 F 
ATOM     32  C   UNL     1      21.165   6.712  21.138  0.00  0.00    +0.575 C 
ENDBRANCH   9  32
ENDBRANCH  31   9
ENDBRANCH  22  24
ENDBRANCH  18  20
ENDBRANCH  16  18
BRANCH  17  19
ATOM     19  C   UNL     1      13.865  10.121  21.970  0.00  0.00    +0.140 C 
BRANCH  19  10
ATOM      8  O   UNL     1      14.861  12.361  23.493  0.00  0.00    -0.253 OA
ATOM     10  N   UNL     1      14.150  10.152  23.373  0.00  0.00    -0.297 N 
ATOM     12  N   UNL     1      14.823  11.036  25.397  0.00  0.00    -0.297 N 
ATOM     21  C   UNL     1      14.633  11.282  24.040  0.00  0.00    +0.300 C 
ATOM     35  H   UNL     1      13.982   9.309  23.915  0.00  0.00    +0.150 HD
ATOM     36  H   UNL     1      14.606  10.112  25.759  0.00  0.00    +0.150 HD
BRANCH  12  23
ATOM     23  C   UNL     1      15.315  12.039  26.313  0.00  0.00    +0.068 C 
ATOM     25  C   UNL     1      16.026  11.379  27.488  0.00  0.00    +0.027 C 
ATOM     26  C   UNL     1      14.176  12.933  26.789  0.00  0.00    +0.027 C 
ENDBRANCH  12  23
ENDBRANCH  19  10
ENDBRANCH  17  19
TORSDOF 10
ENDMDL
MODEL 7
REMARK VINA RESULT:      -7.0      2.827      3.660
REMARK  Name = 25390149
REMARK  12 active torsions:
REMARK  status: ('A' for Active; 'I' for Inactive)
REMARK    1  A    between atoms: O_5  and  C_14
REMARK    2  A    between atoms: O_6  and  C_15
REMARK    3  A    between atoms: O_9  and  C_31
REMARK    4  A    between atoms: O_9  and  C_32
REMARK    5  A    between atoms: N_10  and  C_19
REMARK    6  A    between atoms: N_12  and  C_23
REMARK    7  A    between atoms: C_16  and  C_18
REMARK    8  A    between atoms: C_17  and  C_19
REMARK    9  A    between atoms: C_18  and  C_20
REMARK   10  A    between atoms: C_22  and  C_24
REMARK   11  A    between atoms: C_23  and  C_25
REMARK   12  A    between atoms: C_23  and  C_26
REMARK                            x       y       z     vdW  Elec       q    Type
REMARK                         _______ _______ _______ _____ _____    ______ ____
ROOT
ATOM      4  O   UNL     1      13.635   7.186  18.308  0.00  0.00    -0.366 OA
ATOM     14  C   UNL     1      11.797   8.486  19.011  0.00  0.00    +0.175 C 
ATOM     15  C   UNL     1      11.916   8.622  17.508  0.00  0.00    +0.176 C 
ATOM     16  C   UNL     1      12.557   7.193  19.260  0.00  0.00    +0.159 C 
ATOM     17  C   UNL     1      13.337   8.130  17.255  0.00  0.00    +0.167 C 
ENDROOT
BRANCH  14   5
ATOM      5  O   UNL     1      10.462   8.412  19.463  0.00  0.00    -0.387 OA
ATOM     33  H   UNL     1      10.445   7.807  20.223  0.00  0.00    +0.210 HD
ENDBRANCH  14   5
BRANCH  15   6
ATOM      6  O   UNL     1      11.016   7.726  16.857  0.00  0.00    -0.387 OA
ATOM     34  H   UNL     1      11.458   6.861  16.798  0.00  0.00    +0.210 HD
ENDBRANCH  15   6
BRANCH  16  18
ATOM     18  C   UNL     1      13.116   7.085  20.668  0.00  0.00    +0.133 C 
BRANCH  18  20
ATOM      7  O   UNL     1      14.992   8.638  20.794  0.00  0.00    -0.338 OA
ATOM     11  N   UNL     1      15.591   6.483  20.657  0.00  0.00    -0.191 NA
ATOM     13  N   UNL     1      16.392   8.621  20.810  0.00  0.00    -0.056 NA
ATOM     20  C   UNL     1      14.601   7.339  20.704  0.00  0.00    +0.230 A 
ATOM     22  C   UNL     1      16.669   7.316  20.725  0.00  0.00    +0.202 A 
BRANCH  22  24
ATOM     24  C   UNL     1      18.012   6.813  20.708  0.00  0.00    +0.023 A 
ATOM     27  C   UNL     1      18.316   5.656  19.988  0.00  0.00    +0.015 A 
ATOM     28  C   UNL     1      19.016   7.481  21.409  0.00  0.00    +0.015 A 
ATOM     29  C   UNL     1      19.622   5.168  19.972  0.00  0.00    +0.046 A 
ATOM     30  C   UNL     1      20.322   6.991  21.394  0.00  0.00    +0.046 A 
ATOM     31  C   UNL     1      20.625   5.835  20.675  0.00  0.00    +0.130 A 
BRANCH  31   9
ATOM      9  O   UNL     1      21.900   5.358  20.660  0.00  0.00    -0.406 OA
BRANCH   9  32
ATOM      1  F   UNL     1      23.516   4.389  21.901  0.00  0.00    -0.133 F 
ATOM      2  F   UNL     1      21.460   4.294  22.637  0.00  0.00    -0.133 F 
ATOM      3  F   UNL     1      22.078   3.089  20.891  0.00  0.00    -0.133 F 
ATOM     32  C   UNL     1      22.223   4.273  21.523  0.00  0.00    +0.575 C 
ENDBRANCH   9  32
ENDBRANCH  31   9
ENDBRANCH  22  24
ENDBRANCH  18  20
ENDBRANCH  16  18
BRANCH  17  19
ATOM     19  C   UNL     1      14.374   9.244  17.322  0.00  0.00    +0.140 C 
BRANCH  19  10
ATOM      8  O   UNL     1      14.868  11.483  19.075  0.00  0.00    -0.253 OA
ATOM     10  N   UNL     1      13.752  10.534  17.271  0.00  0.00    -0.297 N 
ATOM     12  N   UNL     1      13.301  12.713  17.887  0.00  0.00    -0.297 N 
ATOM     21  C   UNL     1      14.048  11.570  18.162  0.00  0.00    +0.300 C 
ATOM     35  H   UNL     1      13.067  10.707  16.542  0.00  0.00    +0.150 HD
ATOM     36  H   UNL     1      12.648  12.691  17.110  0.00  0.00    +0.150 HD
BRANCH  12  23
ATOM     23  C   UNL     1      13.416  13.928  18.659  0.00  0.00    +0.068 C 
ATOM     25  C   UNL     1      12.407  13.927  19.801  0.00  0.00    +0.027 C 
ATOM     26  C   UNL     1      13.236  15.149  17.765  0.00  0.00    +0.027 C 
ENDBRANCH  12  23
ENDBRANCH  19  10
ENDBRANCH  17  19
TORSDOF 10
ENDMDL
MODEL 8
REMARK VINA RESULT:      -7.0     18.394     20.643
REMARK  Name = 25390149
REMARK  12 active torsions:
REMARK  status: ('A' for Active; 'I' for Inactive)
REMARK    1  A    between atoms: O_5  and  C_14
REMARK    2  A    between atoms: O_6  and  C_15
REMARK    3  A    between atoms: O_9  and  C_31
REMARK    4  A    between atoms: O_9  and  C_32
REMARK    5  A    between atoms: N_10  and  C_19
REMARK    6  A    between atoms: N_12  and  C_23
REMARK    7  A    between atoms: C_16  and  C_18
REMARK    8  A    between atoms: C_17  and  C_19
REMARK    9  A    between atoms: C_18  and  C_20
REMARK   10  A    between atoms: C_22  and  C_24
REMARK   11  A    between atoms: C_23  and  C_25
REMARK   12  A    between atoms: C_23  and  C_26
REMARK                            x       y       z     vdW  Elec       q    Type
REMARK                         _______ _______ _______ _____ _____    ______ ____
ROOT
ATOM      4  O   UNL     1       9.506   5.924   5.945  0.00  0.00    -0.366 OA
ATOM     14  C   UNL     1      11.598   6.599   6.799  0.00  0.00    +0.175 C 
ATOM     15  C   UNL     1      10.751   6.126   7.962  0.00  0.00    +0.176 C 
ATOM     16  C   UNL     1      10.908   5.922   5.626  0.00  0.00    +0.159 C 
ATOM     17  C   UNL     1       9.349   6.150   7.364  0.00  0.00    +0.167 C 
ENDROOT
BRANCH  14   5
ATOM      5  O   UNL     1      12.955   6.222   6.905  0.00  0.00    -0.387 OA
ATOM     33  H   UNL     1      13.433   6.969   7.304  0.00  0.00    +0.210 HD
ENDBRANCH  14   5
BRANCH  15   6
ATOM      6  O   UNL     1      11.069   4.773   8.288  0.00  0.00    -0.387 OA
ATOM     34  H   UNL     1      11.485   4.776   9.168  0.00  0.00    +0.210 HD
ENDBRANCH  15   6
BRANCH  16  18
ATOM     18  C   UNL     1      11.133   6.635   4.303  0.00  0.00    +0.133 C 
BRANCH  18  20
ATOM      7  O   UNL     1      11.212   4.359   3.434  0.00  0.00    -0.338 OA
ATOM     11  N   UNL     1      10.981   5.935   1.859  0.00  0.00    -0.191 NA
ATOM     13  N   UNL     1      11.157   3.681   2.210  0.00  0.00    -0.056 NA
ATOM     20  C   UNL     1      11.100   5.680   3.138  0.00  0.00    +0.230 A 
ATOM     22  C   UNL     1      11.021   4.678   1.330  0.00  0.00    +0.202 A 
BRANCH  22  24
ATOM     24  C   UNL     1      10.921   4.452  -0.083  0.00  0.00    +0.023 A 
ATOM     27  C   UNL     1      11.720   3.484  -0.694  0.00  0.00    +0.015 A 
ATOM     28  C   UNL     1      10.024   5.199  -0.847  0.00  0.00    +0.015 A 
ATOM     29  C   UNL     1      11.622   3.265  -2.067  0.00  0.00    +0.046 A 
ATOM     30  C   UNL     1       9.927   4.980  -2.221  0.00  0.00    +0.046 A 
ATOM     31  C   UNL     1      10.726   4.013  -2.831  0.00  0.00    +0.130 A 
BRANCH  31   9
ATOM      9  O   UNL     1      10.631   3.800  -4.172  0.00  0.00    -0.406 OA
BRANCH   9  32
ATOM      1  F   UNL     1       8.528   4.077  -4.941  0.00  0.00    -0.133 F 
ATOM      2  F   UNL     1       9.738   2.479  -5.812  0.00  0.00    -0.133 F 
ATOM      3  F   UNL     1       8.961   2.295  -3.752  0.00  0.00    -0.133 F 
ATOM     32  C   UNL     1       9.469   3.145  -4.669  0.00  0.00    +0.575 C 
ENDBRANCH   9  32
ENDBRANCH  31   9
ENDBRANCH  22  24
ENDBRANCH  18  20
ENDBRANCH  16  18
BRANCH  17  19
ATOM     19  C   UNL     1       8.646   7.489   7.547  0.00  0.00    +0.140 C 
BRANCH  19  10
ATOM      8  O   UNL     1       9.089   9.499   5.525  0.00  0.00    -0.253 OA
ATOM     10  N   UNL     1       7.803   7.789   6.429  0.00  0.00    -0.297 N 
ATOM     12  N   UNL     1       7.104   8.863   4.508  0.00  0.00    -0.297 N 
ATOM     21  C   UNL     1       8.089   8.784   5.489  0.00  0.00    +0.300 C 
ATOM     35  H   UNL     1       6.956   7.241   6.307  0.00  0.00    +0.150 HD
ATOM     36  H   UNL     1       6.313   8.228   4.561  0.00  0.00    +0.150 HD
BRANCH  12  23
ATOM     23  C   UNL     1       7.158   9.809   3.419  0.00  0.00    +0.068 C 
ATOM     25  C   UNL     1       5.759  10.313   3.085  0.00  0.00    +0.027 C 
ATOM     26  C   UNL     1       7.824   9.182   2.199  0.00  0.00    +0.027 C 
ENDBRANCH  12  23
ENDBRANCH  19  10
ENDBRANCH  17  19
TORSDOF 10
ENDMDL
MODEL 9
REMARK VINA RESULT:      -6.9     16.988     19.953
REMARK  Name = 25390149
REMARK  12 active torsions:
REMARK  status: ('A' for Active; 'I' for Inactive)
REMARK    1  A    between atoms: O_5  and  C_14
REMARK    2  A    between atoms: O_6  and  C_15
REMARK    3  A    between atoms: O_9  and  C_31
REMARK    4  A    between atoms: O_9  and  C_32
REMARK    5  A    between atoms: N_10  and  C_19
REMARK    6  A    between atoms: N_12  and  C_23
REMARK    7  A    between atoms: C_16  and  C_18
REMARK    8  A    between atoms: C_17  and  C_19
REMARK    9  A    between atoms: C_18  and  C_20
REMARK   10  A    between atoms: C_22  and  C_24
REMARK   11  A    between atoms: C_23  and  C_25
REMARK   12  A    between atoms: C_23  and  C_26
REMARK                            x       y       z     vdW  Elec       q    Type
REMARK                         _______ _______ _______ _____ _____    ______ ____
ROOT
ATOM      4  O   UNL     1      14.396   4.028   0.816  0.00  0.00    -0.366 OA
ATOM     14  C   UNL     1      14.666   4.635  -1.446  0.00  0.00    +0.175 C 
ATOM     15  C   UNL     1      15.998   4.825  -0.751  0.00  0.00    +0.176 C 
ATOM     16  C   UNL     1      13.969   3.664  -0.508  0.00  0.00    +0.159 C 
ATOM     17  C   UNL     1      15.591   4.836   0.718  0.00  0.00    +0.167 C 
ENDROOT
BRANCH  14   5
ATOM      5  O   UNL     1      14.786   4.115  -2.754  0.00  0.00    -0.387 OA
ATOM     33  H   UNL     1      15.518   3.476  -2.746  0.00  0.00    +0.210 HD
ENDBRANCH  14   5
BRANCH  15   6
ATOM      6  O   UNL     1      16.836   3.690  -0.970  0.00  0.00    -0.387 OA
ATOM     34  H   UNL     1      16.321   2.898  -0.734  0.00  0.00    +0.210 HD
ENDBRANCH  15   6
BRANCH  16  18
ATOM     18  C   UNL     1      12.454   3.727  -0.593  0.00  0.00    +0.133 C 
BRANCH  18  20
ATOM      7  O   UNL     1      11.959   5.962   0.246  0.00  0.00    -0.338 OA
ATOM     11  N   UNL     1      11.278   4.305   1.592  0.00  0.00    -0.191 NA
ATOM     13  N   UNL     1      11.357   6.579   1.350  0.00  0.00    -0.056 NA
ATOM     20  C   UNL     1      11.869   4.624   0.467  0.00  0.00    +0.230 A 
ATOM     22  C   UNL     1      10.982   5.537   2.098  0.00  0.00    +0.202 A 
BRANCH  22  24
ATOM     24  C   UNL     1      10.309   5.692   3.355  0.00  0.00    +0.023 A 
ATOM     27  C   UNL     1       9.513   6.815   3.587  0.00  0.00    +0.015 A 
ATOM     28  C   UNL     1      10.450   4.721   4.346  0.00  0.00    +0.015 A 
ATOM     29  C   UNL     1       8.859   6.965   4.810  0.00  0.00    +0.046 A 
ATOM     30  C   UNL     1       9.796   4.872   5.570  0.00  0.00    +0.046 A 
ATOM     31  C   UNL     1       9.001   5.994   5.801  0.00  0.00    +0.130 A 
BRANCH  31   9
ATOM      9  O   UNL     1       8.364   6.141   6.995  0.00  0.00    -0.406 OA
BRANCH   9  32
ATOM      1  F   UNL     1       8.682   6.334   9.221  0.00  0.00    -0.133 F 
ATOM      2  F   UNL     1      10.366   6.779   7.899  0.00  0.00    -0.133 F 
ATOM      3  F   UNL     1       8.648   8.163   8.026  0.00  0.00    -0.133 F 
ATOM     32  C   UNL     1       9.025   6.867   8.026  0.00  0.00    +0.575 C 
ENDBRANCH   9  32
ENDBRANCH  31   9
ENDBRANCH  22  24
ENDBRANCH  18  20
ENDBRANCH  16  18
BRANCH  17  19
ATOM     19  C   UNL     1      15.255   6.230   1.232  0.00  0.00    +0.140 C 
BRANCH  19  10
ATOM      8  O   UNL     1      15.223   8.112   3.420  0.00  0.00    -0.253 OA
ATOM     10  N   UNL     1      14.450   6.165   2.415  0.00  0.00    -0.297 N 
ATOM     12  N   UNL     1      13.609   6.814   4.465  0.00  0.00    -0.297 N 
ATOM     21  C   UNL     1      14.494   7.121   3.434  0.00  0.00    +0.300 C 
ATOM     35  H   UNL     1      13.804   5.386   2.513  0.00  0.00    +0.150 HD
ATOM     36  H   UNL     1      13.046   5.973   4.388  0.00  0.00    +0.150 HD
BRANCH  12  23
ATOM     23  C   UNL     1      13.459   7.641   5.640  0.00  0.00    +0.068 C 
ATOM     25  C   UNL     1      13.565   6.794   6.901  0.00  0.00    +0.027 C 
ATOM     26  C   UNL     1      12.138   8.400   5.594  0.00  0.00    +0.027 C 
ENDBRANCH  12  23
ENDBRANCH  19  10
ENDBRANCH  17  19
TORSDOF 10
ENDMDL
MODEL 10
REMARK VINA RESULT:      -6.9     27.176     29.340
REMARK  Name = 25390149
REMARK  12 active torsions:
REMARK  status: ('A' for Active; 'I' for Inactive)
REMARK    1  A    between atoms: O_5  and  C_14
REMARK    2  A    between atoms: O_6  and  C_15
REMARK    3  A    between atoms: O_9  and  C_31
REMARK    4  A    between atoms: O_9  and  C_32
REMARK    5  A    between atoms: N_10  and  C_19
REMARK    6  A    between atoms: N_12  and  C_23
REMARK    7  A    between atoms: C_16  and  C_18
REMARK    8  A    between atoms: C_17  and  C_19
REMARK    9  A    between atoms: C_18  and  C_20
REMARK   10  A    between atoms: C_22  and  C_24
REMARK   11  A    between atoms: C_23  and  C_25
REMARK   12  A    between atoms: C_23  and  C_26
REMARK                            x       y       z     vdW  Elec       q    Type
REMARK                         _______ _______ _______ _____ _____    ______ ____
ROOT
ATOM      4  O   UNL     1      -3.701 -12.309  14.673  0.00  0.00    -0.366 OA
ATOM     14  C   UNL     1      -1.954 -10.839  15.261  0.00  0.00    +0.175 C 
ATOM     15  C   UNL     1      -3.049 -10.697  16.296  0.00  0.00    +0.176 C 
ATOM     16  C   UNL     1      -2.267 -12.204  14.672  0.00  0.00    +0.159 C 
ATOM     17  C   UNL     1      -4.242 -11.326  15.585  0.00  0.00    +0.167 C 
ENDROOT
BRANCH  14   5
ATOM      5  O   UNL     1      -0.654 -10.784  15.810  0.00  0.00    -0.387 OA
ATOM     33  H   UNL     1      -0.733 -10.420  16.708  0.00  0.00    +0.210 HD
ENDBRANCH  14   5
BRANCH  15   6
ATOM      6  O   UNL     1      -2.750 -11.490  17.445  0.00  0.00    -0.387 OA
ATOM     34  H   UNL     1      -1.954 -11.113  17.859  0.00  0.00    +0.210 HD
ENDBRANCH  15   6
BRANCH  16  18
ATOM     18  C   UNL     1      -1.741 -12.385  13.258  0.00  0.00    +0.133 C 
BRANCH  18  20
ATOM      7  O   UNL     1      -1.509 -10.393  11.872  0.00  0.00    -0.338 OA
ATOM     11  N   UNL     1      -3.552 -11.312  11.824  0.00  0.00    -0.191 NA
ATOM     13  N   UNL     1      -2.275  -9.596  11.012  0.00  0.00    -0.056 NA
ATOM     20  C   UNL     1      -2.336 -11.381  12.305  0.00  0.00    +0.230 A 
ATOM     22  C   UNL     1      -3.466 -10.202  11.036  0.00  0.00    +0.202 A 
BRANCH  22  24
ATOM     24  C   UNL     1      -4.589  -9.723  10.283  0.00  0.00    +0.023 A 
ATOM     27  C   UNL     1      -4.511  -9.632   8.893  0.00  0.00    +0.015 A 
ATOM     28  C   UNL     1      -5.761  -9.350  10.942  0.00  0.00    +0.015 A 
ATOM     29  C   UNL     1      -5.604  -9.166   8.162  0.00  0.00    +0.046 A 
ATOM     30  C   UNL     1      -6.854  -8.883  10.211  0.00  0.00    +0.046 A 
ATOM     31  C   UNL     1      -6.775  -8.792   8.821  0.00  0.00    +0.130 A 
BRANCH  31   9
ATOM      9  O   UNL     1      -7.842  -8.336   8.108  0.00  0.00    -0.406 OA
BRANCH   9  32
ATOM      1  F   UNL     1      -9.099  -6.604   8.823  0.00  0.00    -0.133 F 
ATOM      2  F   UNL     1      -6.970  -6.253   8.476  0.00  0.00    -0.133 F 
ATOM      3  F   UNL     1      -8.346  -6.549   6.772  0.00  0.00    -0.133 F 
ATOM     32  C   UNL     1      -8.051  -6.930   8.034  0.00  0.00    +0.575 C 
ENDBRANCH   9  32
ENDBRANCH  31   9
ENDBRANCH  22  24
ENDBRANCH  18  20
ENDBRANCH  16  18
BRANCH  17  19
ATOM     19  C   UNL     1      -5.045 -10.324  14.767  0.00  0.00    +0.140 C 
BRANCH  19  10
ATOM      8  O   UNL     1      -7.860 -10.829  15.147  0.00  0.00    -0.253 OA
ATOM     10  N   UNL     1      -5.950  -9.585  15.596  0.00  0.00    -0.297 N 
ATOM     12  N   UNL     1      -7.954  -9.017  16.593  0.00  0.00    -0.297 N 
ATOM     21  C   UNL     1      -7.307  -9.895  15.726  0.00  0.00    +0.300 C 
ATOM     35  H   UNL     1      -5.582  -8.800  16.125  0.00  0.00    +0.150 HD
ATOM     36  H   UNL     1      -7.412  -8.275  17.026  0.00  0.00    +0.150 HD
BRANCH  12  23
ATOM     23  C   UNL     1      -9.360  -9.117  16.903  0.00  0.00    +0.068 C 
ATOM     25  C   UNL     1      -9.954  -7.731  17.121  0.00  0.00    +0.027 C 
ATOM     26  C   UNL     1      -9.578 -10.008  18.120  0.00  0.00    +0.027 C 
ENDBRANCH  12  23
ENDBRANCH  19  10
ENDBRANCH  17  19
TORSDOF 10
ENDMDL
