MODEL 1
REMARK VINA RESULT:      -7.7      0.000      0.000
REMARK  Name = 25390943
REMARK  6 active torsions:
REMARK  status: ('A' for Active; 'I' for Inactive)
REMARK    1  A    between atoms: S_1  and  N_7
REMARK    2  A    between atoms: S_1  and  C_20
REMARK    3  A    between atoms: N_7  and  C_9
REMARK    4  A    between atoms: C_21  and  C_23
REMARK    5  A    between atoms: C_24  and  C_27
REMARK    6  A    between atoms: C_26  and  C_30
REMARK                            x       y       z     vdW  Elec       q    Type
REMARK                         _______ _______ _______ _____ _____    ______ ____
ROOT
ATOM      2  O   UNL     1      15.013   6.876  19.208  0.00  0.00    -0.273 OA
ATOM      3  O   UNL     1      19.028   9.241  21.552  0.00  0.00    -0.270 OA
ATOM      6  N   UNL     1      16.877   8.379  21.427  0.00  0.00    -0.286 N 
ATOM      8  N   UNL     1      17.181   6.196  19.452  0.00  0.00    -0.283 N 
ATOM      9  C   UNL     1      13.996   8.733  21.656  0.00  0.00    +0.080 C 
ATOM     10  C   UNL     1      16.024   7.196  21.374  0.00  0.00    +0.164 C 
ATOM     11  C   UNL     1      14.630   7.385  21.984  0.00  0.00    +0.052 C 
ATOM     12  C   UNL     1      14.956   9.856  22.020  0.00  0.00    +0.039 C 
ATOM     13  C   UNL     1      16.261   9.698  21.257  0.00  0.00    +0.110 C 
ATOM     14  C   UNL     1      16.015   6.774  19.916  0.00  0.00    +0.238 C 
ATOM     15  C   UNL     1      18.268   8.283  21.406  0.00  0.00    +0.249 C 
ATOM     16  C   UNL     1      18.888   6.962  21.118  0.00  0.00    +0.059 A 
ATOM     17  C   UNL     1      18.417   6.079  20.129  0.00  0.00    +0.046 A 
ATOM     18  C   UNL     1      20.121   6.707  21.745  0.00  0.00    +0.023 A 
ATOM     19  C   UNL     1      19.226   4.998  19.743  0.00  0.00    +0.024 A 
ATOM     21  C   UNL     1      20.887   5.600  21.384  0.00  0.00    -0.017 A 
ATOM     22  C   UNL     1      20.446   4.753  20.374  0.00  0.00    +0.010 A 
ATOM     32  H   UNL     1      17.111   5.712  18.561  0.00  0.00    +0.155 HD
ENDROOT
BRANCH  21  23
ATOM     23  C   UNL     1      22.151   5.347  22.042  0.00  0.00    -0.015 A 
ATOM     24  C   UNL     1      23.309   6.025  21.665  0.00  0.00    -0.040 A 
ATOM     25  C   UNL     1      22.196   4.404  23.070  0.00  0.00    +0.009 A 
ATOM     26  C   UNL     1      24.515   5.761  22.317  0.00  0.00    -0.047 A 
ATOM     27  C   UNL     1      23.274   7.040  20.565  0.00  0.00    +0.044 C 
ATOM     28  C   UNL     1      23.401   4.140  23.720  0.00  0.00    +0.001 A 
ATOM     29  C   UNL     1      24.560   4.818  23.344  0.00  0.00    +0.003 A 
ATOM     30  C   UNL     1      25.771   6.472  21.935  0.00  0.00    +0.044 C 
ENDBRANCH  21  23
BRANCH   9   7
ATOM      7  N   UNL     1      12.741   8.890  22.429  0.00  0.00    -0.192 NA
ATOM     31  H   UNL     1      12.780   8.668  23.432  0.00  0.00    +0.148 HD
BRANCH   7   1
ATOM      1  S   UNL     1      11.250   8.767  21.615  0.00  0.00    +0.027 S 
ATOM      4  O   UNL     1      11.416   9.128  20.220  0.00  0.00    -0.158 OA
ATOM      5  O   UNL     1      10.233   9.404  22.430  0.00  0.00    -0.158 OA
ATOM     20  C   UNL     1      10.974   7.012  21.696  0.00  0.00    +0.214 C 
ENDBRANCH   7   1
ENDBRANCH   9   7
TORSDOF 3
ENDMDL
MODEL 2
REMARK VINA RESULT:      -7.4      1.685      2.213
REMARK  Name = 25390943
REMARK  6 active torsions:
REMARK  status: ('A' for Active; 'I' for Inactive)
REMARK    1  A    between atoms: S_1  and  N_7
REMARK    2  A    between atoms: S_1  and  C_20
REMARK    3  A    between atoms: N_7  and  C_9
REMARK    4  A    between atoms: C_21  and  C_23
REMARK    5  A    between atoms: C_24  and  C_27
REMARK    6  A    between atoms: C_26  and  C_30
REMARK                            x       y       z     vdW  Elec       q    Type
REMARK                         _______ _______ _______ _____ _____    ______ ____
ROOT
ATOM      2  O   UNL     1      13.740   8.659  19.722  0.00  0.00    -0.273 OA
ATOM      3  O   UNL     1      18.621   9.719  21.229  0.00  0.00    -0.270 OA
ATOM      6  N   UNL     1      16.345   9.387  21.549  0.00  0.00    -0.286 N 
ATOM      8  N   UNL     1      15.671   7.483  19.387  0.00  0.00    -0.283 N 
ATOM      9  C   UNL     1      13.760  10.345  22.486  0.00  0.00    +0.080 C 
ATOM     10  C   UNL     1      15.234   8.445  21.605  0.00  0.00    +0.164 C 
ATOM     11  C   UNL     1      14.092   8.857  22.542  0.00  0.00    +0.052 C 
ATOM     12  C   UNL     1      15.025  11.163  22.701  0.00  0.00    +0.039 C 
ATOM     13  C   UNL     1      16.057  10.822  21.639  0.00  0.00    +0.110 C 
ATOM     14  C   UNL     1      14.811   8.239  20.161  0.00  0.00    +0.238 C 
ATOM     15  C   UNL     1      17.632   8.985  21.190  0.00  0.00    +0.249 C 
ATOM     16  C   UNL     1      17.827   7.611  20.656  0.00  0.00    +0.059 A 
ATOM     17  C   UNL     1      16.952   7.000  19.738  0.00  0.00    +0.046 A 
ATOM     18  C   UNL     1      19.061   7.003  20.948  0.00  0.00    +0.023 A 
ATOM     19  C   UNL     1      17.365   5.828  19.084  0.00  0.00    +0.024 A 
ATOM     21  C   UNL     1      19.432   5.811  20.326  0.00  0.00    -0.017 A 
ATOM     22  C   UNL     1      18.590   5.231  19.384  0.00  0.00    +0.010 A 
ATOM     32  H   UNL     1      15.295   7.154  18.501  0.00  0.00    +0.155 HD
ENDROOT
BRANCH  21  23
ATOM     23  C   UNL     1      20.702   5.194  20.641  0.00  0.00    -0.015 A 
ATOM     24  C   UNL     1      21.888   5.926  20.613  0.00  0.00    -0.040 A 
ATOM     25  C   UNL     1      20.725   3.839  20.977  0.00  0.00    +0.009 A 
ATOM     26  C   UNL     1      23.099   5.305  20.921  0.00  0.00    -0.047 A 
ATOM     27  C   UNL     1      21.876   7.380  20.255  0.00  0.00    +0.044 C 
ATOM     28  C   UNL     1      21.935   3.219  21.284  0.00  0.00    +0.001 A 
ATOM     29  C   UNL     1      23.122   3.951  21.257  0.00  0.00    +0.003 A 
ATOM     30  C   UNL     1      24.384   6.064  20.900  0.00  0.00    +0.044 C 
ENDBRANCH  21  23
BRANCH   9   7
ATOM      7  N   UNL     1      12.777  10.672  23.546  0.00  0.00    -0.192 NA
ATOM     31  H   UNL     1      12.998  10.360  24.499  0.00  0.00    +0.148 HD
BRANCH   7   1
ATOM      1  S   UNL     1      11.147  10.909  23.113  0.00  0.00    +0.027 S 
ATOM      4  O   UNL     1      10.422  11.506  24.217  0.00  0.00    -0.158 OA
ATOM      5  O   UNL     1      10.665   9.697  22.478  0.00  0.00    -0.158 OA
ATOM     20  C   UNL     1      11.320  12.141  21.842  0.00  0.00    +0.214 C 
ENDBRANCH   7   1
ENDBRANCH   9   7
TORSDOF 3
ENDMDL
MODEL 3
REMARK VINA RESULT:      -7.1      4.023      9.381
REMARK  Name = 25390943
REMARK  6 active torsions:
REMARK  status: ('A' for Active; 'I' for Inactive)
REMARK    1  A    between atoms: S_1  and  N_7
REMARK    2  A    between atoms: S_1  and  C_20
REMARK    3  A    between atoms: N_7  and  C_9
REMARK    4  A    between atoms: C_21  and  C_23
REMARK    5  A    between atoms: C_24  and  C_27
REMARK    6  A    between atoms: C_26  and  C_30
REMARK                            x       y       z     vdW  Elec       q    Type
REMARK                         _______ _______ _______ _____ _____    ______ ____
ROOT
ATOM      2  O   UNL     1      21.785   8.242  21.850  0.00  0.00    -0.273 OA
ATOM      3  O   UNL     1      18.051   5.635  19.307  0.00  0.00    -0.270 OA
ATOM      6  N   UNL     1      19.657   5.935  20.957  0.00  0.00    -0.286 N 
ATOM      8  N   UNL     1      19.654   8.872  21.318  0.00  0.00    -0.283 N 
ATOM      9  C   UNL     1      22.074   5.053  22.321  0.00  0.00    +0.080 C 
ATOM     10  C   UNL     1      20.044   6.609  22.191  0.00  0.00    +0.164 C 
ATOM     11  C   UNL     1      20.991   5.805  23.089  0.00  0.00    +0.052 C 
ATOM     12  C   UNL     1      21.436   4.207  21.228  0.00  0.00    +0.039 C 
ATOM     13  C   UNL     1      20.643   5.089  20.278  0.00  0.00    +0.110 C 
ATOM     14  C   UNL     1      20.592   7.956  21.757  0.00  0.00    +0.238 C 
ATOM     15  C   UNL     1      18.470   6.245  20.291  0.00  0.00    +0.249 C 
ATOM     16  C   UNL     1      17.689   7.428  20.740  0.00  0.00    +0.059 A 
ATOM     17  C   UNL     1      18.274   8.657  21.099  0.00  0.00    +0.046 A 
ATOM     18  C   UNL     1      16.294   7.341  20.592  0.00  0.00    +0.023 A 
ATOM     19  C   UNL     1      17.450   9.787  21.234  0.00  0.00    +0.024 A 
ATOM     21  C   UNL     1      15.487   8.462  20.780  0.00  0.00    -0.017 A 
ATOM     22  C   UNL     1      16.066   9.688  21.088  0.00  0.00    +0.010 A 
ATOM     32  H   UNL     1      19.975   9.833  21.243  0.00  0.00    +0.155 HD
ENDROOT
BRANCH  21  23
ATOM     23  C   UNL     1      14.051   8.356  20.630  0.00  0.00    -0.015 A 
ATOM     24  C   UNL     1      13.442   8.506  19.385  0.00  0.00    -0.040 A 
ATOM     25  C   UNL     1      13.275   8.099  21.761  0.00  0.00    +0.009 A 
ATOM     26  C   UNL     1      12.056   8.399  19.269  0.00  0.00    -0.047 A 
ATOM     27  C   UNL     1      14.264   8.781  18.164  0.00  0.00    +0.044 C 
ATOM     28  C   UNL     1      11.890   7.993  21.645  0.00  0.00    +0.001 A 
ATOM     29  C   UNL     1      11.280   8.142  20.400  0.00  0.00    +0.003 A 
ATOM     30  C   UNL     1      11.377   8.555  17.949  0.00  0.00    +0.044 C 
ENDBRANCH  21  23
BRANCH   9   7
ATOM      7  N   UNL     1      22.820   4.172  23.251  0.00  0.00    -0.192 NA
ATOM     31  H   UNL     1      22.711   4.357  24.255  0.00  0.00    +0.148 HD
BRANCH   7   1
ATOM      1  S   UNL     1      24.239   3.407  22.701  0.00  0.00    +0.027 S 
ATOM      4  O   UNL     1      24.914   4.250  21.734  0.00  0.00    -0.158 OA
ATOM      5  O   UNL     1      23.918   2.028  22.386  0.00  0.00    -0.158 OA
ATOM     20  C   UNL     1      25.208   3.400  24.192  0.00  0.00    +0.214 C 
ENDBRANCH   7   1
ENDBRANCH   9   7
TORSDOF 3
ENDMDL
MODEL 4
REMARK VINA RESULT:      -7.1     29.294     31.683
REMARK  Name = 25390943
REMARK  6 active torsions:
REMARK  status: ('A' for Active; 'I' for Inactive)
REMARK    1  A    between atoms: S_1  and  N_7
REMARK    2  A    between atoms: S_1  and  C_20
REMARK    3  A    between atoms: N_7  and  C_9
REMARK    4  A    between atoms: C_21  and  C_23
REMARK    5  A    between atoms: C_24  and  C_27
REMARK    6  A    between atoms: C_26  and  C_30
REMARK                            x       y       z     vdW  Elec       q    Type
REMARK                         _______ _______ _______ _____ _____    ______ ____
ROOT
ATOM      2  O   UNL     1      -3.133 -10.672  15.373  0.00  0.00    -0.273 OA
ATOM      3  O   UNL     1      -6.475 -12.828  11.998  0.00  0.00    -0.270 OA
ATOM      6  N   UNL     1      -5.881 -11.584  13.866  0.00  0.00    -0.286 N 
ATOM      8  N   UNL     1      -3.234 -10.508  13.096  0.00  0.00    -0.283 N 
ATOM      9  C   UNL     1      -6.039 -11.097  16.732  0.00  0.00    +0.080 C 
ATOM     10  C   UNL     1      -5.313 -10.348  14.394  0.00  0.00    +0.164 C 
ATOM     11  C   UNL     1      -5.854  -9.931  15.766  0.00  0.00    +0.052 C 
ATOM     12  C   UNL     1      -6.876 -12.184  16.073  0.00  0.00    +0.039 C 
ATOM     13  C   UNL     1      -6.200 -12.667  14.801  0.00  0.00    +0.110 C 
ATOM     14  C   UNL     1      -3.809 -10.548  14.352  0.00  0.00    +0.238 C 
ATOM     15  C   UNL     1      -5.916 -11.850  12.497  0.00  0.00    +0.249 C 
ATOM     16  C   UNL     1      -5.176 -10.947  11.575  0.00  0.00    +0.059 A 
ATOM     17  C   UNL     1      -3.891 -10.441  11.846  0.00  0.00    +0.046 A 
ATOM     18  C   UNL     1      -5.733 -10.778  10.295  0.00  0.00    +0.023 A 
ATOM     19  C   UNL     1      -3.167  -9.836  10.806  0.00  0.00    +0.024 A 
ATOM     21  C   UNL     1      -5.018 -10.129   9.289  0.00  0.00    -0.017 A 
ATOM     22  C   UNL     1      -3.731  -9.670   9.540  0.00  0.00    +0.010 A 
ATOM     32  H   UNL     1      -2.221 -10.414  13.075  0.00  0.00    +0.155 HD
ENDROOT
BRANCH  21  23
ATOM     23  C   UNL     1      -5.607  -9.957   7.978  0.00  0.00    -0.015 A 
ATOM     24  C   UNL     1      -6.556  -8.965   7.738  0.00  0.00    -0.040 A 
ATOM     25  C   UNL     1      -5.207 -10.806   6.946  0.00  0.00    +0.009 A 
ATOM     26  C   UNL     1      -7.108  -8.821   6.464  0.00  0.00    -0.047 A 
ATOM     27  C   UNL     1      -6.993  -8.047   8.837  0.00  0.00    +0.044 C 
ATOM     28  C   UNL     1      -5.759 -10.662   5.673  0.00  0.00    +0.001 A 
ATOM     29  C   UNL     1      -6.708  -9.670   5.432  0.00  0.00    +0.003 A 
ATOM     30  C   UNL     1      -8.126  -7.768   6.178  0.00  0.00    +0.044 C 
ENDBRANCH  21  23
BRANCH   9   7
ATOM      7  N   UNL     1      -6.728 -10.621  17.956  0.00  0.00    -0.192 NA
ATOM     31  H   UNL     1      -7.090  -9.660  17.943  0.00  0.00    +0.148 HD
BRANCH   7   1
ATOM      1  S   UNL     1      -6.336 -11.336  19.451  0.00  0.00    +0.027 S 
ATOM      4  O   UNL     1      -7.107 -12.549  19.638  0.00  0.00    -0.158 OA
ATOM      5  O   UNL     1      -6.332 -10.297  20.464  0.00  0.00    -0.158 OA
ATOM     20  C   UNL     1      -4.645 -11.801  19.162  0.00  0.00    +0.214 C 
ENDBRANCH   7   1
ENDBRANCH   9   7
TORSDOF 3
ENDMDL
MODEL 5
REMARK VINA RESULT:      -6.8     15.014     18.149
REMARK  Name = 25390943
REMARK  6 active torsions:
REMARK  status: ('A' for Active; 'I' for Inactive)
REMARK    1  A    between atoms: S_1  and  N_7
REMARK    2  A    between atoms: S_1  and  C_20
REMARK    3  A    between atoms: N_7  and  C_9
REMARK    4  A    between atoms: C_21  and  C_23
REMARK    5  A    between atoms: C_24  and  C_27
REMARK    6  A    between atoms: C_26  and  C_30
REMARK                            x       y       z     vdW  Elec       q    Type
REMARK                         _______ _______ _______ _____ _____    ______ ____
ROOT
ATOM      2  O   UNL     1       9.501   8.455   3.175  0.00  0.00    -0.273 OA
ATOM      3  O   UNL     1       8.652   7.594   8.249  0.00  0.00    -0.270 OA
ATOM      6  N   UNL     1       9.666   7.224   6.194  0.00  0.00    -0.286 N 
ATOM      8  N   UNL     1       9.557   9.903   4.942  0.00  0.00    -0.283 N 
ATOM      9  C   UNL     1      10.343   5.439   3.995  0.00  0.00    +0.080 C 
ATOM     10  C   UNL     1      10.605   7.694   5.180  0.00  0.00    +0.164 C 
ATOM     11  C   UNL     1      11.282   6.581   4.371  0.00  0.00    +0.052 C 
ATOM     12  C   UNL     1       9.641   4.918   5.241  0.00  0.00    +0.039 C 
ATOM     13  C   UNL     1       8.855   6.037   5.906  0.00  0.00    +0.110 C 
ATOM     14  C   UNL     1       9.823   8.687   4.340  0.00  0.00    +0.238 C 
ATOM     15  C   UNL     1       9.355   7.989   7.319  0.00  0.00    +0.249 C 
ATOM     16  C   UNL     1       9.835   9.395   7.379  0.00  0.00    +0.059 A 
ATOM     17  C   UNL     1       9.806  10.276   6.282  0.00  0.00    +0.046 A 
ATOM     18  C   UNL     1      10.136   9.892   8.660  0.00  0.00    +0.023 A 
ATOM     19  C   UNL     1      10.012  11.647   6.508  0.00  0.00    +0.024 A 
ATOM     21  C   UNL     1      10.388  11.249   8.856  0.00  0.00    -0.017 A 
ATOM     22  C   UNL     1      10.313  12.128   7.782  0.00  0.00    +0.010 A 
ATOM     32  H   UNL     1       9.241  10.644   4.321  0.00  0.00    +0.155 HD
ENDROOT
BRANCH  21  23
ATOM     23  C   UNL     1      10.702  11.745  10.178  0.00  0.00    -0.015 A 
ATOM     24  C   UNL     1       9.697  12.018  11.105  0.00  0.00    -0.040 A 
ATOM     25  C   UNL     1      12.040  11.949  10.519  0.00  0.00    +0.009 A 
ATOM     26  C   UNL     1      10.028  12.496  12.373  0.00  0.00    -0.047 A 
ATOM     27  C   UNL     1       8.258  11.803  10.752  0.00  0.00    +0.044 C 
ATOM     28  C   UNL     1      12.371  12.426  11.786  0.00  0.00    +0.001 A 
ATOM     29  C   UNL     1      11.366  12.700  12.714  0.00  0.00    +0.003 A 
ATOM     30  C   UNL     1       8.973  12.796  13.385  0.00  0.00    +0.044 C 
ENDBRANCH  21  23
BRANCH   9   7
ATOM      7  N   UNL     1      11.124   4.341   3.377  0.00  0.00    -0.192 NA
ATOM     31  H   UNL     1      11.805   3.858   3.976  0.00  0.00    +0.148 HD
BRANCH   7   1
ATOM      1  S   UNL     1      11.369   4.352   1.692  0.00  0.00    +0.027 S 
ATOM      4  O   UNL     1      11.899   5.636   1.276  0.00  0.00    -0.158 OA
ATOM      5  O   UNL     1      10.189   3.796   1.057  0.00  0.00    -0.158 OA
ATOM     20  C   UNL     1      12.670   3.149   1.540  0.00  0.00    +0.214 C 
ENDBRANCH   7   1
ENDBRANCH   9   7
TORSDOF 3
ENDMDL
MODEL 6
REMARK VINA RESULT:      -6.7     28.559     33.290
REMARK  Name = 25390943
REMARK  6 active torsions:
REMARK  status: ('A' for Active; 'I' for Inactive)
REMARK    1  A    between atoms: S_1  and  N_7
REMARK    2  A    between atoms: S_1  and  C_20
REMARK    3  A    between atoms: N_7  and  C_9
REMARK    4  A    between atoms: C_21  and  C_23
REMARK    5  A    between atoms: C_24  and  C_27
REMARK    6  A    between atoms: C_26  and  C_30
REMARK                            x       y       z     vdW  Elec       q    Type
REMARK                         _______ _______ _______ _____ _____    ______ ____
ROOT
ATOM      2  O   UNL     1      -5.215 -14.139  16.222  0.00  0.00    -0.273 OA
ATOM      3  O   UNL     1      -6.720 -11.102  20.187  0.00  0.00    -0.270 OA
ATOM      6  N   UNL     1      -6.045 -11.537  18.009  0.00  0.00    -0.286 N 
ATOM      8  N   UNL     1      -7.058 -14.282  17.566  0.00  0.00    -0.283 N 
ATOM      9  C   UNL     1      -4.200 -11.095  15.800  0.00  0.00    +0.080 C 
ATOM     10  C   UNL     1      -6.384 -12.084  16.700  0.00  0.00    +0.164 C 
ATOM     11  C   UNL     1      -5.666 -11.416  15.522  0.00  0.00    +0.052 C 
ATOM     12  C   UNL     1      -4.084 -10.298  17.091  0.00  0.00    +0.039 C 
ATOM     13  C   UNL     1      -4.670 -11.088  18.249  0.00  0.00    +0.110 C 
ATOM     14  C   UNL     1      -6.137 -13.577  16.814  0.00  0.00    +0.238 C 
ATOM     15  C   UNL     1      -6.915 -11.636  19.095  0.00  0.00    +0.249 C 
ATOM     16  C   UNL     1      -8.122 -12.496  18.965  0.00  0.00    +0.059 A 
ATOM     17  C   UNL     1      -8.115 -13.761  18.348  0.00  0.00    +0.046 A 
ATOM     18  C   UNL     1      -9.257 -12.081  19.684  0.00  0.00    +0.023 A 
ATOM     19  C   UNL     1      -9.221 -14.608  18.523  0.00  0.00    +0.024 A 
ATOM     21  C   UNL     1     -10.367 -12.916  19.804  0.00  0.00    -0.017 A 
ATOM     22  C   UNL     1     -10.344 -14.184  19.235  0.00  0.00    +0.010 A 
ATOM     32  H   UNL     1      -7.033 -15.293  17.464  0.00  0.00    +0.155 HD
ENDROOT
BRANCH  21  23
ATOM     23  C   UNL     1     -11.531 -12.474  20.541  0.00  0.00    -0.015 A 
ATOM     24  C   UNL     1     -12.198 -11.298  20.200  0.00  0.00    -0.040 A 
ATOM     25  C   UNL     1     -11.983 -13.247  21.611  0.00  0.00    +0.009 A 
ATOM     26  C   UNL     1     -13.317 -10.894  20.928  0.00  0.00    -0.047 A 
ATOM     27  C   UNL     1     -11.723 -10.459  19.054  0.00  0.00    +0.044 C 
ATOM     28  C   UNL     1     -13.101 -12.844  22.339  0.00  0.00    +0.001 A 
ATOM     29  C   UNL     1     -13.769 -11.668  21.998  0.00  0.00    +0.003 A 
ATOM     30  C   UNL     1     -14.051  -9.640  20.585  0.00  0.00    +0.044 C 
ENDBRANCH  21  23
BRANCH   9   7
ATOM      7  N   UNL     1      -3.647 -10.298  14.679  0.00  0.00    -0.192 NA
ATOM     31  H   UNL     1      -4.316  -9.944  13.984  0.00  0.00    +0.148 HD
BRANCH   7   1
ATOM      1  S   UNL     1      -2.027 -10.543  14.215  0.00  0.00    +0.027 S 
ATOM      4  O   UNL     1      -1.137  -9.910  15.168  0.00  0.00    -0.158 OA
ATOM      5  O   UNL     1      -1.914 -10.264  12.796  0.00  0.00    -0.158 OA
ATOM     20  C   UNL     1      -1.888 -12.303  14.422  0.00  0.00    +0.214 C 
ENDBRANCH   7   1
ENDBRANCH   9   7
TORSDOF 3
ENDMDL
MODEL 7
REMARK VINA RESULT:      -6.6      2.842      4.586
REMARK  Name = 25390943
REMARK  6 active torsions:
REMARK  status: ('A' for Active; 'I' for Inactive)
REMARK    1  A    between atoms: S_1  and  N_7
REMARK    2  A    between atoms: S_1  and  C_20
REMARK    3  A    between atoms: N_7  and  C_9
REMARK    4  A    between atoms: C_21  and  C_23
REMARK    5  A    between atoms: C_24  and  C_27
REMARK    6  A    between atoms: C_26  and  C_30
REMARK                            x       y       z     vdW  Elec       q    Type
REMARK                         _______ _______ _______ _____ _____    ______ ____
ROOT
ATOM      2  O   UNL     1      11.004   9.230  20.251  0.00  0.00    -0.273 OA
ATOM      3  O   UNL     1      15.861  11.117  20.007  0.00  0.00    -0.270 OA
ATOM      6  N   UNL     1      13.775  10.795  20.975  0.00  0.00    -0.286 N 
ATOM      8  N   UNL     1      12.988   8.145  19.920  0.00  0.00    -0.283 N 
ATOM      9  C   UNL     1      11.312  11.880  22.085  0.00  0.00    +0.080 C 
ATOM     10  C   UNL     1      12.857   9.885  21.650  0.00  0.00    +0.164 C 
ATOM     11  C   UNL     1      11.876  10.563  22.612  0.00  0.00    +0.052 C 
ATOM     12  C   UNL     1      12.451  12.795  21.662  0.00  0.00    +0.039 C 
ATOM     13  C   UNL     1      13.291  12.124  20.587  0.00  0.00    +0.110 C 
ATOM     14  C   UNL     1      12.193   9.091  20.540  0.00  0.00    +0.238 C 
ATOM     15  C   UNL     1      15.012  10.367  20.489  0.00  0.00    +0.249 C 
ATOM     16  C   UNL     1      15.307   8.909  20.480  0.00  0.00    +0.059 A 
ATOM     17  C   UNL     1      14.373   7.927  20.102  0.00  0.00    +0.046 A 
ATOM     18  C   UNL     1      16.654   8.550  20.667  0.00  0.00    +0.023 A 
ATOM     19  C   UNL     1      14.824   6.620  19.856  0.00  0.00    +0.024 A 
ATOM     21  C   UNL     1      17.074   7.236  20.467  0.00  0.00    -0.017 A 
ATOM     22  C   UNL     1      16.162   6.274  20.048  0.00  0.00    +0.010 A 
ATOM     32  H   UNL     1      12.499   7.465  19.344  0.00  0.00    +0.155 HD
ENDROOT
BRANCH  21  23
ATOM     23  C   UNL     1      18.461   6.879  20.670  0.00  0.00    -0.015 A 
ATOM     24  C   UNL     1      19.327   7.716  21.373  0.00  0.00    -0.040 A 
ATOM     25  C   UNL     1      18.928   5.673  20.147  0.00  0.00    +0.009 A 
ATOM     26  C   UNL     1      20.660   7.348  21.553  0.00  0.00    -0.047 A 
ATOM     27  C   UNL     1      18.838   9.013  21.940  0.00  0.00    +0.044 C 
ATOM     28  C   UNL     1      20.261   5.305  20.327  0.00  0.00    +0.001 A 
ATOM     29  C   UNL     1      21.127   6.142  21.030  0.00  0.00    +0.003 A 
ATOM     30  C   UNL     1      21.609   8.224  22.302  0.00  0.00    +0.044 C 
ENDBRANCH  21  23
BRANCH   9   7
ATOM      7  N   UNL     1      10.521  12.541  23.151  0.00  0.00    -0.192 NA
ATOM     31  H   UNL     1       9.799  13.207  22.850  0.00  0.00    +0.148 HD
BRANCH   7   1
ATOM      1  S   UNL     1      11.206  12.710  24.700  0.00  0.00    +0.027 S 
ATOM      4  O   UNL     1      12.626  12.982  24.588  0.00  0.00    -0.158 OA
ATOM      5  O   UNL     1      10.723  11.625  25.532  0.00  0.00    -0.158 OA
ATOM     20  C   UNL     1      10.407  14.200  25.253  0.00  0.00    +0.214 C 
ENDBRANCH   7   1
ENDBRANCH   9   7
TORSDOF 3
ENDMDL
MODEL 8
REMARK VINA RESULT:      -6.5     29.217     31.905
REMARK  Name = 25390943
REMARK  6 active torsions:
REMARK  status: ('A' for Active; 'I' for Inactive)
REMARK    1  A    between atoms: S_1  and  N_7
REMARK    2  A    between atoms: S_1  and  C_20
REMARK    3  A    between atoms: N_7  and  C_9
REMARK    4  A    between atoms: C_21  and  C_23
REMARK    5  A    between atoms: C_24  and  C_27
REMARK    6  A    between atoms: C_26  and  C_30
REMARK                            x       y       z     vdW  Elec       q    Type
REMARK                         _______ _______ _______ _____ _____    ______ ____
ROOT
ATOM      2  O   UNL     1      -1.495 -12.166  14.829  0.00  0.00    -0.273 OA
ATOM      3  O   UNL     1      -5.890  -9.978  13.067  0.00  0.00    -0.270 OA
ATOM      6  N   UNL     1      -4.353 -11.699  13.324  0.00  0.00    -0.286 N 
ATOM      8  N   UNL     1      -3.166 -11.100  15.967  0.00  0.00    -0.283 N 
ATOM      9  C   UNL     1      -2.551 -13.671  12.165  0.00  0.00    +0.080 C 
ATOM     10  C   UNL     1      -3.762 -12.702  14.203  0.00  0.00    +0.164 C 
ATOM     11  C   UNL     1      -3.255 -13.960  13.488  0.00  0.00    +0.052 C 
ATOM     12  C   UNL     1      -3.445 -12.811  11.283  0.00  0.00    +0.039 C 
ATOM     13  C   UNL     1      -3.779 -11.507  11.989  0.00  0.00    +0.110 C 
ATOM     14  C   UNL     1      -2.698 -11.964  14.994  0.00  0.00    +0.238 C 
ATOM     15  C   UNL     1      -5.288 -10.774  13.789  0.00  0.00    +0.249 C 
ATOM     16  C   UNL     1      -5.531 -10.679  15.253  0.00  0.00    +0.059 A 
ATOM     17  C   UNL     1      -4.506 -10.724  16.217  0.00  0.00    +0.046 A 
ATOM     18  C   UNL     1      -6.834 -10.326  15.643  0.00  0.00    +0.023 A 
ATOM     19  C   UNL     1      -4.799 -10.347  17.537  0.00  0.00    +0.024 A 
ATOM     21  C   UNL     1      -7.118 -10.004  16.970  0.00  0.00    -0.017 A 
ATOM     22  C   UNL     1      -6.098 -10.002  17.914  0.00  0.00    +0.010 A 
ATOM     32  H   UNL     1      -2.477 -10.780  16.643  0.00  0.00    +0.155 HD
ENDROOT
BRANCH  21  23
ATOM     23  C   UNL     1      -8.466  -9.649  17.358  0.00  0.00    -0.015 A 
ATOM     24  C   UNL     1      -9.215 -10.469  18.199  0.00  0.00    -0.040 A 
ATOM     25  C   UNL     1      -9.013  -8.460  16.872  0.00  0.00    +0.009 A 
ATOM     26  C   UNL     1     -10.513 -10.103  18.557  0.00  0.00    -0.047 A 
ATOM     27  C   UNL     1      -8.639 -11.747  18.727  0.00  0.00    +0.044 C 
ATOM     28  C   UNL     1     -10.310  -8.094  17.230  0.00  0.00    +0.001 A 
ATOM     29  C   UNL     1     -11.060  -8.914  18.072  0.00  0.00    +0.003 A 
ATOM     30  C   UNL     1     -11.338 -10.961  19.457  0.00  0.00    +0.044 C 
ENDBRANCH  21  23
BRANCH   9   7
ATOM      7  N   UNL     1      -2.259 -14.948  11.471  0.00  0.00    -0.192 NA
ATOM     31  H   UNL     1      -2.943 -15.267  10.774  0.00  0.00    +0.148 HD
BRANCH   7   1
ATOM      1  S   UNL     1      -1.274 -16.100  12.247  0.00  0.00    +0.027 S 
ATOM      4  O   UNL     1      -2.098 -17.105  12.890  0.00  0.00    -0.158 OA
ATOM      5  O   UNL     1      -0.249 -15.394  12.992  0.00  0.00    -0.158 OA
ATOM     20  C   UNL     1      -0.484 -16.856  10.844  0.00  0.00    +0.214 C 
ENDBRANCH   7   1
ENDBRANCH   9   7
TORSDOF 3
ENDMDL
MODEL 9
REMARK VINA RESULT:      -6.5     22.180     24.785
REMARK  Name = 25390943
REMARK  6 active torsions:
REMARK  status: ('A' for Active; 'I' for Inactive)
REMARK    1  A    between atoms: S_1  and  N_7
REMARK    2  A    between atoms: S_1  and  C_20
REMARK    3  A    between atoms: N_7  and  C_9
REMARK    4  A    between atoms: C_21  and  C_23
REMARK    5  A    between atoms: C_24  and  C_27
REMARK    6  A    between atoms: C_26  and  C_30
REMARK                            x       y       z     vdW  Elec       q    Type
REMARK                         _______ _______ _______ _____ _____    ______ ____
ROOT
ATOM      2  O   UNL     1      12.882   3.701  -3.652  0.00  0.00    -0.273 OA
ATOM      3  O   UNL     1       9.173   6.512  -1.296  0.00  0.00    -0.270 OA
ATOM      6  N   UNL     1       9.986   4.753  -2.574  0.00  0.00    -0.286 N 
ATOM      8  N   UNL     1      12.708   4.375  -1.476  0.00  0.00    -0.283 N 
ATOM      9  C   UNL     1      10.004   3.230  -5.056  0.00  0.00    +0.080 C 
ATOM     10  C   UNL     1      10.717   3.491  -2.610  0.00  0.00    +0.164 C 
ATOM     11  C   UNL     1      10.285   2.534  -3.728  0.00  0.00    +0.052 C 
ATOM     12  C   UNL     1       9.018   4.370  -4.841  0.00  0.00    +0.039 C 
ATOM     13  C   UNL     1       9.580   5.367  -3.842  0.00  0.00    +0.110 C 
ATOM     14  C   UNL     1      12.184   3.878  -2.654  0.00  0.00    +0.238 C 
ATOM     15  C   UNL     1       9.863   5.497  -1.401  0.00  0.00    +0.249 C 
ATOM     16  C   UNL     1      10.667   5.096  -0.214  0.00  0.00    +0.059 A 
ATOM     17  C   UNL     1      12.012   4.691  -0.286  0.00  0.00    +0.046 A 
ATOM     18  C   UNL     1      10.082   5.342   1.040  0.00  0.00    +0.023 A 
ATOM     19  C   UNL     1      12.759   4.606   0.900  0.00  0.00    +0.024 A 
ATOM     21  C   UNL     1      10.826   5.203   2.211  0.00  0.00    -0.017 A 
ATOM     22  C   UNL     1      12.168   4.848   2.140  0.00  0.00    +0.010 A 
ATOM     32  H   UNL     1      13.722   4.422  -1.428  0.00  0.00    +0.155 HD
ENDROOT
BRANCH  21  23
ATOM     23  C   UNL     1      10.209   5.452   3.496  0.00  0.00    -0.015 A 
ATOM     24  C   UNL     1       9.553   6.654   3.761  0.00  0.00    -0.040 A 
ATOM     25  C   UNL     1      10.279   4.464   4.478  0.00  0.00    +0.009 A 
ATOM     26  C   UNL     1       8.968   6.869   5.009  0.00  0.00    -0.047 A 
ATOM     27  C   UNL     1       9.471   7.723   2.716  0.00  0.00    +0.044 C 
ATOM     28  C   UNL     1       9.694   4.678   5.725  0.00  0.00    +0.001 A 
ATOM     29  C   UNL     1       9.038   5.880   5.991  0.00  0.00    +0.003 A 
ATOM     30  C   UNL     1       8.259   8.145   5.321  0.00  0.00    +0.044 C 
ENDBRANCH  21  23
BRANCH   9   7
ATOM      7  N   UNL     1       9.427   2.256  -6.013  0.00  0.00    -0.192 NA
ATOM     31  H   UNL     1       9.135   1.347  -5.634  0.00  0.00    +0.148 HD
BRANCH   7   1
ATOM      1  S   UNL     1       9.856   2.364  -7.658  0.00  0.00    +0.027 S 
ATOM      4  O   UNL     1       9.984   1.037  -8.226  0.00  0.00    -0.158 OA
ATOM      5  O   UNL     1      10.930   3.331  -7.784  0.00  0.00    -0.158 OA
ATOM     20  C   UNL     1       8.390   3.110  -8.333  0.00  0.00    +0.214 C 
ENDBRANCH   7   1
ENDBRANCH   9   7
TORSDOF 3
ENDMDL
MODEL 10
REMARK VINA RESULT:      -6.4     29.806     32.573
REMARK  Name = 25390943
REMARK  6 active torsions:
REMARK  status: ('A' for Active; 'I' for Inactive)
REMARK    1  A    between atoms: S_1  and  N_7
REMARK    2  A    between atoms: S_1  and  C_20
REMARK    3  A    between atoms: N_7  and  C_9
REMARK    4  A    between atoms: C_21  and  C_23
REMARK    5  A    between atoms: C_24  and  C_27
REMARK    6  A    between atoms: C_26  and  C_30
REMARK                            x       y       z     vdW  Elec       q    Type
REMARK                         _______ _______ _______ _____ _____    ______ ____
ROOT
ATOM      2  O   UNL     1     -14.050   4.264  22.358  0.00  0.00    -0.273 OA
ATOM      3  O   UNL     1     -15.287   7.584  18.529  0.00  0.00    -0.270 OA
ATOM      6  N   UNL     1     -15.549   6.572  20.602  0.00  0.00    -0.286 N 
ATOM      8  N   UNL     1     -12.770   5.837  21.305  0.00  0.00    -0.283 N 
ATOM      9  C   UNL     1     -17.180   5.079  22.497  0.00  0.00    +0.080 C 
ATOM     10  C   UNL     1     -15.062   6.419  21.969  0.00  0.00    +0.164 C 
ATOM     11  C   UNL     1     -16.146   6.082  22.999  0.00  0.00    +0.052 C 
ATOM     12  C   UNL     1     -17.754   5.553  21.170  0.00  0.00    +0.039 C 
ATOM     13  C   UNL     1     -16.644   5.711  20.144  0.00  0.00    +0.110 C 
ATOM     14  C   UNL     1     -13.945   5.395  21.884  0.00  0.00    +0.238 C 
ATOM     15  C   UNL     1     -14.865   7.341  19.660  0.00  0.00    +0.249 C 
ATOM     16  C   UNL     1     -13.508   7.846  20.002  0.00  0.00    +0.059 A 
ATOM     17  C   UNL     1     -12.535   7.075  20.665  0.00  0.00    +0.046 A 
ATOM     18  C   UNL     1     -13.149   9.084  19.440  0.00  0.00    +0.023 A 
ATOM     19  C   UNL     1     -11.207   7.535  20.690  0.00  0.00    +0.024 A 
ATOM     21  C   UNL     1     -11.836   9.547  19.519  0.00  0.00    -0.017 A 
ATOM     22  C   UNL     1     -10.863   8.766  20.133  0.00  0.00    +0.010 A 
ATOM     32  H   UNL     1     -11.956   5.244  21.446  0.00  0.00    +0.155 HD
ENDROOT
BRANCH  21  23
ATOM     23  C   UNL     1     -11.482  10.826  18.942  0.00  0.00    -0.015 A 
ATOM     24  C   UNL     1     -10.602  10.913  17.865  0.00  0.00    -0.040 A 
ATOM     25  C   UNL     1     -12.040  11.984  19.484  0.00  0.00    +0.009 A 
ATOM     26  C   UNL     1     -10.278  12.159  17.328  0.00  0.00    -0.047 A 
ATOM     27  C   UNL     1      -9.998   9.677  17.273  0.00  0.00    +0.044 C 
ATOM     28  C   UNL     1     -11.715  13.230  18.948  0.00  0.00    +0.001 A 
ATOM     29  C   UNL     1     -10.835  13.318  17.870  0.00  0.00    +0.003 A 
ATOM     30  C   UNL     1      -9.339  12.283  16.174  0.00  0.00    +0.044 C 
ENDBRANCH  21  23
BRANCH   9   7
ATOM      7  N   UNL     1     -18.274   4.956  23.489  0.00  0.00    -0.192 NA
ATOM     31  H   UNL     1     -18.590   5.821  23.944  0.00  0.00    +0.148 HD
BRANCH   7   1
ATOM      1  S   UNL     1     -18.490   3.473  24.298  0.00  0.00    +0.027 S 
ATOM      4  O   UNL     1     -19.457   2.658  23.590  0.00  0.00    -0.158 OA
ATOM      5  O   UNL     1     -18.645   3.746  25.714  0.00  0.00    -0.158 OA
ATOM     20  C   UNL     1     -16.886   2.738  24.072  0.00  0.00    +0.214 C 
ENDBRANCH   7   1
ENDBRANCH   9   7
TORSDOF 3
ENDMDL
