MODEL 1
REMARK VINA RESULT:      -7.2      0.000      0.000
REMARK  Name = 11885215
REMARK  8 active torsions:
REMARK  status: ('A' for Active; 'I' for Inactive)
REMARK    1  A    between atoms: S_1  and  C_21
REMARK    2  A    between atoms: S_1  and  C_25
REMARK    3  A    between atoms: S_2  and  C_28
REMARK    4  A    between atoms: S_2  and  C_30
REMARK    5  A    between atoms: O_5  and  C_29
REMARK    6  A    between atoms: C_18  and  C_21
REMARK    7  A    between atoms: C_19  and  C_22
REMARK    8  A    between atoms: C_25  and  C_29
REMARK                            x       y       z     vdW  Elec       q    Type
REMARK                         _______ _______ _______ _____ _____    ______ ____
ROOT
ATOM      3  O   UNL     1      15.724   6.031  19.181  0.00  0.00    -0.267 OA
ATOM      4  O   UNL     1      14.439   9.320  15.166  0.00  0.00    -0.275 OA
ATOM      7  N   UNL     1      13.357   9.952  17.122  0.00  0.00    -0.300 N 
ATOM      8  N   UNL     1      14.415   7.951  19.376  0.00  0.00    -0.311 N 
ATOM      9  C   UNL     1      12.097   8.151  18.309  0.00  0.00    +0.027 C 
ATOM     10  C   UNL     1      13.020  10.038  19.586  0.00  0.00    +0.054 C 
ATOM     11  C   UNL     1      11.808   9.119  19.449  0.00  0.00    +0.018 C 
ATOM     12  C   UNL     1      12.328   8.918  16.996  0.00  0.00    +0.113 C 
ATOM     13  C   UNL     1      13.301   7.282  18.689  0.00  0.00    +0.130 C 
ATOM     14  C   UNL     1      13.209  10.841  18.284  0.00  0.00    +0.117 C 
ATOM     15  C   UNL     1      14.277   9.244  19.887  0.00  0.00    +0.027 A 
ATOM     16  C   UNL     1      15.265   9.789  20.614  0.00  0.00    +0.022 A 
ATOM     17  C   UNL     1      15.579   7.186  19.586  0.00  0.00    +0.259 A 
ATOM     18  C   UNL     1      14.333  10.078  16.133  0.00  0.00    +0.225 C 
ATOM     19  C   UNL     1      16.683   7.837  20.374  0.00  0.00    +0.047 A 
ATOM     20  C   UNL     1      16.486   9.074  20.855  0.00  0.00    +0.015 A 
ENDROOT
BRANCH  19  22
ATOM     22  C   UNL     1      17.962   7.145  20.613  0.00  0.00    -0.013 A 
ATOM     23  C   UNL     1      18.291   6.011  19.871  0.00  0.00    +0.010 A 
ATOM     24  C   UNL     1      18.843   7.623  21.584  0.00  0.00    +0.010 A 
ATOM     26  C   UNL     1      19.502   5.356  20.098  0.00  0.00    +0.015 A 
ATOM     27  C   UNL     1      20.053   6.967  21.811  0.00  0.00    +0.015 A 
ATOM     28  C   UNL     1      20.383   5.833  21.068  0.00  0.00    +0.008 A 
BRANCH  28   2
ATOM      2  S   UNL     1      21.928   4.996  21.359  0.00  0.00    -0.129 S 
ATOM     30  C   UNL     1      22.133   5.207  23.149  0.00  0.00    +0.090 C 
ENDBRANCH  28   2
ENDBRANCH  19  22
BRANCH  18  21
ATOM     21  C   UNL     1      15.306  11.219  16.287  0.00  0.00    +0.165 C 
BRANCH  21   1
ATOM      1  S   UNL     1      14.890  12.462  15.056  0.00  0.00    -0.140 S 
BRANCH   1  25
ATOM     25  C   UNL     1      16.423  12.427  14.094  0.00  0.00    +0.189 C 
BRANCH  25  29
ATOM      6  O   UNL     1      16.454  12.530  11.686  0.00  0.00    -0.250 OA
ATOM     29  C   UNL     1      16.129  11.935  12.705  0.00  0.00    +0.315 C 
BRANCH  29   5
ATOM      5  O   UNL     1      15.477  10.745  12.698  0.00  0.00    -0.480 OA
ATOM     31  H   UNL     1      16.053  10.015  12.385  0.00  0.00    +0.295 HD
ENDBRANCH  29   5
ENDBRANCH  25  29
ENDBRANCH   1  25
ENDBRANCH  21   1
ENDBRANCH  18  21
TORSDOF 7
ENDMDL
MODEL 2
REMARK VINA RESULT:      -6.6     16.592     19.893
REMARK  Name = 11885215
REMARK  8 active torsions:
REMARK  status: ('A' for Active; 'I' for Inactive)
REMARK    1  A    between atoms: S_1  and  C_21
REMARK    2  A    between atoms: S_1  and  C_25
REMARK    3  A    between atoms: S_2  and  C_28
REMARK    4  A    between atoms: S_2  and  C_30
REMARK    5  A    between atoms: O_5  and  C_29
REMARK    6  A    between atoms: C_18  and  C_21
REMARK    7  A    between atoms: C_19  and  C_22
REMARK    8  A    between atoms: C_25  and  C_29
REMARK                            x       y       z     vdW  Elec       q    Type
REMARK                         _______ _______ _______ _____ _____    ______ ____
ROOT
ATOM      3  O   UNL     1      12.160   7.832   2.416  0.00  0.00    -0.267 OA
ATOM      4  O   UNL     1      13.219   5.904  -2.458  0.00  0.00    -0.275 OA
ATOM      7  N   UNL     1      13.566   4.275  -0.838  0.00  0.00    -0.300 N 
ATOM      8  N   UNL     1      12.710   5.618   1.931  0.00  0.00    -0.311 N 
ATOM      9  C   UNL     1      15.025   4.930   1.081  0.00  0.00    +0.027 C 
ATOM     10  C   UNL     1      13.284   3.224   1.400  0.00  0.00    +0.054 C 
ATOM     11  C   UNL     1      14.722   3.597   1.753  0.00  0.00    +0.018 C 
ATOM     12  C   UNL     1      14.870   4.813  -0.445  0.00  0.00    +0.113 C 
ATOM     13  C   UNL     1      14.105   6.004   1.673  0.00  0.00    +0.130 C 
ATOM     14  C   UNL     1      13.154   3.056  -0.127  0.00  0.00    +0.117 C 
ATOM     15  C   UNL     1      12.310   4.281   1.885  0.00  0.00    +0.027 A 
ATOM     16  C   UNL     1      11.062   3.939   2.241  0.00  0.00    +0.022 A 
ATOM     17  C   UNL     1      11.834   6.646   2.330  0.00  0.00    +0.259 A 
ATOM     18  C   UNL     1      12.855   4.880  -1.875  0.00  0.00    +0.225 C 
ATOM     19  C   UNL     1      10.431   6.237   2.687  0.00  0.00    +0.047 A 
ATOM     20  C   UNL     1      10.110   4.936   2.642  0.00  0.00    +0.015 A 
ENDROOT
BRANCH  19  22
ATOM     22  C   UNL     1       9.419   7.236   3.074  0.00  0.00    -0.013 A 
ATOM     23  C   UNL     1       9.032   7.358   4.409  0.00  0.00    +0.010 A 
ATOM     24  C   UNL     1       8.846   8.060   2.104  0.00  0.00    +0.010 A 
ATOM     26  C   UNL     1       8.074   8.303   4.774  0.00  0.00    +0.015 A 
ATOM     27  C   UNL     1       7.888   9.005   2.470  0.00  0.00    +0.015 A 
ATOM     28  C   UNL     1       7.501   9.127   3.805  0.00  0.00    +0.008 A 
BRANCH  28   2
ATOM      2  S   UNL     1       6.277  10.334   4.272  0.00  0.00    -0.129 S 
ATOM     30  C   UNL     1       5.111  10.235   2.885  0.00  0.00    +0.090 C 
ENDBRANCH  28   2
ENDBRANCH  19  22
BRANCH  18  21
ATOM     21  C   UNL     1      11.562   4.220  -2.281  0.00  0.00    +0.165 C 
BRANCH  21   1
ATOM      1  S   UNL     1      11.262   4.623  -4.008  0.00  0.00    -0.140 S 
BRANCH   1  25
ATOM     25  C   UNL     1      10.777   2.983  -4.598  0.00  0.00    +0.189 C 
BRANCH  25  29
ATOM      6  O   UNL     1       9.222   1.605  -3.374  0.00  0.00    -0.250 OA
ATOM     29  C   UNL     1       9.437   2.621  -4.022  0.00  0.00    +0.315 C 
BRANCH  29   5
ATOM      5  O   UNL     1       8.486   3.553  -4.283  0.00  0.00    -0.480 OA
ATOM     31  H   UNL     1       8.647   4.386  -3.790  0.00  0.00    +0.295 HD
ENDBRANCH  29   5
ENDBRANCH  25  29
ENDBRANCH   1  25
ENDBRANCH  21   1
ENDBRANCH  18  21
TORSDOF 7
ENDMDL
MODEL 3
REMARK VINA RESULT:      -6.6     12.572     14.872
REMARK  Name = 11885215
REMARK  8 active torsions:
REMARK  status: ('A' for Active; 'I' for Inactive)
REMARK    1  A    between atoms: S_1  and  C_21
REMARK    2  A    between atoms: S_1  and  C_25
REMARK    3  A    between atoms: S_2  and  C_28
REMARK    4  A    between atoms: S_2  and  C_30
REMARK    5  A    between atoms: O_5  and  C_29
REMARK    6  A    between atoms: C_18  and  C_21
REMARK    7  A    between atoms: C_19  and  C_22
REMARK    8  A    between atoms: C_25  and  C_29
REMARK                            x       y       z     vdW  Elec       q    Type
REMARK                         _______ _______ _______ _____ _____    ______ ____
ROOT
ATOM      3  O   UNL     1      13.931   6.799   6.843  0.00  0.00    -0.267 OA
ATOM      4  O   UNL     1      11.045   3.738   3.542  0.00  0.00    -0.275 OA
ATOM      7  N   UNL     1       9.882   5.673   4.094  0.00  0.00    -0.300 N 
ATOM      8  N   UNL     1      11.872   7.382   5.917  0.00  0.00    -0.311 N 
ATOM      9  C   UNL     1       9.696   6.182   6.533  0.00  0.00    +0.027 C 
ATOM     10  C   UNL     1       9.658   8.017   4.898  0.00  0.00    +0.054 C 
ATOM     11  C   UNL     1       9.030   7.510   6.194  0.00  0.00    +0.018 C 
ATOM     12  C   UNL     1       9.471   5.162   5.404  0.00  0.00    +0.113 C 
ATOM     13  C   UNL     1      11.185   6.428   6.799  0.00  0.00    +0.130 C 
ATOM     14  C   UNL     1       9.379   7.014   3.761  0.00  0.00    +0.117 C 
ATOM     15  C   UNL     1      11.154   8.213   5.054  0.00  0.00    +0.027 A 
ATOM     16  C   UNL     1      11.790   9.159   4.346  0.00  0.00    +0.022 A 
ATOM     17  C   UNL     1      13.268   7.490   6.067  0.00  0.00    +0.259 A 
ATOM     18  C   UNL     1      10.631   4.861   3.242  0.00  0.00    +0.225 C 
ATOM     19  C   UNL     1      13.959   8.535   5.233  0.00  0.00    +0.047 A 
ATOM     20  C   UNL     1      13.214   9.316   4.436  0.00  0.00    +0.015 A 
ENDROOT
BRANCH  19  22
ATOM     22  C   UNL     1      15.422   8.703   5.276  0.00  0.00    -0.013 A 
ATOM     23  C   UNL     1      16.241   7.899   4.483  0.00  0.00    +0.010 A 
ATOM     24  C   UNL     1      15.990   9.665   6.112  0.00  0.00    +0.010 A 
ATOM     26  C   UNL     1      17.626   8.058   4.524  0.00  0.00    +0.015 A 
ATOM     27  C   UNL     1      17.375   9.823   6.154  0.00  0.00    +0.015 A 
ATOM     28  C   UNL     1      18.194   9.020   5.360  0.00  0.00    +0.008 A 
BRANCH  28   2
ATOM      2  S   UNL     1      19.962   9.222   5.414  0.00  0.00    -0.129 S 
ATOM     30  C   UNL     1      20.366   8.530   7.042  0.00  0.00    +0.090 C 
ENDBRANCH  28   2
ENDBRANCH  19  22
BRANCH  18  21
ATOM     21  C   UNL     1      10.944   5.422   1.878  0.00  0.00    +0.165 C 
BRANCH  21   1
ATOM      1  S   UNL     1      12.689   5.855   1.852  0.00  0.00    -0.140 S 
BRANCH   1  25
ATOM     25  C   UNL     1      13.271   4.600   0.685  0.00  0.00    +0.189 C 
BRANCH  25  29
ATOM      6  O   UNL     1      14.994   3.310   1.771  0.00  0.00    -0.250 OA
ATOM     29  C   UNL     1      13.819   3.427   1.446  0.00  0.00    +0.315 C 
BRANCH  29   5
ATOM      5  O   UNL     1      12.866   2.511   1.754  0.00  0.00    -0.480 OA
ATOM     31  H   UNL     1      13.230   1.768   2.282  0.00  0.00    +0.295 HD
ENDBRANCH  29   5
ENDBRANCH  25  29
ENDBRANCH   1  25
ENDBRANCH  21   1
ENDBRANCH  18  21
TORSDOF 7
ENDMDL
MODEL 4
REMARK VINA RESULT:      -6.6     28.350     30.521
REMARK  Name = 11885215
REMARK  8 active torsions:
REMARK  status: ('A' for Active; 'I' for Inactive)
REMARK    1  A    between atoms: S_1  and  C_21
REMARK    2  A    between atoms: S_1  and  C_25
REMARK    3  A    between atoms: S_2  and  C_28
REMARK    4  A    between atoms: S_2  and  C_30
REMARK    5  A    between atoms: O_5  and  C_29
REMARK    6  A    between atoms: C_18  and  C_21
REMARK    7  A    between atoms: C_19  and  C_22
REMARK    8  A    between atoms: C_25  and  C_29
REMARK                            x       y       z     vdW  Elec       q    Type
REMARK                         _______ _______ _______ _____ _____    ______ ____
ROOT
ATOM      3  O   UNL     1      -5.071 -12.836  10.271  0.00  0.00    -0.267 OA
ATOM      4  O   UNL     1      -5.615 -12.707  15.589  0.00  0.00    -0.275 OA
ATOM      7  N   UNL     1      -3.373 -12.584  14.990  0.00  0.00    -0.300 N 
ATOM      8  N   UNL     1      -3.338 -12.511  11.797  0.00  0.00    -0.311 N 
ATOM      9  C   UNL     1      -2.563 -14.341  13.411  0.00  0.00    +0.027 C 
ATOM     10  C   UNL     1      -1.472 -12.138  13.448  0.00  0.00    +0.054 C 
ATOM     11  C   UNL     1      -1.212 -13.639  13.339  0.00  0.00    +0.018 C 
ATOM     12  C   UNL     1      -3.266 -14.023  14.741  0.00  0.00    +0.113 C 
ATOM     13  C   UNL     1      -3.404 -13.923  12.199  0.00  0.00    +0.130 C 
ATOM     14  C   UNL     1      -2.127 -11.825  14.807  0.00  0.00    +0.117 C 
ATOM     15  C   UNL     1      -2.368 -11.655  12.323  0.00  0.00    +0.027 A 
ATOM     16  C   UNL     1      -2.249 -10.403  11.854  0.00  0.00    +0.022 A 
ATOM     17  C   UNL     1      -4.225 -12.100  10.783  0.00  0.00    +0.259 A 
ATOM     18  C   UNL     1      -4.580 -12.051  15.443  0.00  0.00    +0.225 C 
ATOM     19  C   UNL     1      -4.093 -10.680  10.304  0.00  0.00    +0.047 A 
ATOM     20  C   UNL     1      -3.130  -9.911  10.833  0.00  0.00    +0.015 A 
ENDROOT
BRANCH  19  22
ATOM     22  C   UNL     1      -5.000 -10.132   9.280  0.00  0.00    -0.013 A 
ATOM     23  C   UNL     1      -6.030  -9.267   9.651  0.00  0.00    +0.010 A 
ATOM     24  C   UNL     1      -4.829 -10.478   7.939  0.00  0.00    +0.010 A 
ATOM     26  C   UNL     1      -6.889  -8.749   8.681  0.00  0.00    +0.015 A 
ATOM     27  C   UNL     1      -5.688  -9.960   6.970  0.00  0.00    +0.015 A 
ATOM     28  C   UNL     1      -6.718  -9.095   7.341  0.00  0.00    +0.008 A 
BRANCH  28   2
ATOM      2  S   UNL     1      -7.815  -8.433   6.103  0.00  0.00    -0.129 S 
ATOM     30  C   UNL     1      -8.449  -6.946   6.926  0.00  0.00    +0.090 C 
ENDBRANCH  28   2
ENDBRANCH  19  22
BRANCH  18  21
ATOM     21  C   UNL     1      -4.590 -10.577  15.761  0.00  0.00    +0.165 C 
BRANCH  21   1
ATOM      1  S   UNL     1      -5.987 -10.262  16.848  0.00  0.00    -0.140 S 
BRANCH   1  25
ATOM     25  C   UNL     1      -5.207 -10.672  18.430  0.00  0.00    +0.189 C 
BRANCH  25  29
ATOM      6  O   UNL     1      -6.738 -11.445  20.124  0.00  0.00    -0.250 OA
ATOM     29  C   UNL     1      -6.042 -11.693  19.148  0.00  0.00    +0.315 C 
BRANCH  29   5
ATOM      5  O   UNL     1      -5.957 -12.927  18.588  0.00  0.00    -0.480 OA
ATOM     31  H   UNL     1      -6.783 -13.171  18.117  0.00  0.00    +0.295 HD
ENDBRANCH  29   5
ENDBRANCH  25  29
ENDBRANCH   1  25
ENDBRANCH  21   1
ENDBRANCH  18  21
TORSDOF 7
ENDMDL
MODEL 5
REMARK VINA RESULT:      -6.3     12.708     16.844
REMARK  Name = 11885215
REMARK  8 active torsions:
REMARK  status: ('A' for Active; 'I' for Inactive)
REMARK    1  A    between atoms: S_1  and  C_21
REMARK    2  A    between atoms: S_1  and  C_25
REMARK    3  A    between atoms: S_2  and  C_28
REMARK    4  A    between atoms: S_2  and  C_30
REMARK    5  A    between atoms: O_5  and  C_29
REMARK    6  A    between atoms: C_18  and  C_21
REMARK    7  A    between atoms: C_19  and  C_22
REMARK    8  A    between atoms: C_25  and  C_29
REMARK                            x       y       z     vdW  Elec       q    Type
REMARK                         _______ _______ _______ _____ _____    ______ ____
ROOT
ATOM      3  O   UNL     1       9.919   7.492   2.086  0.00  0.00    -0.267 OA
ATOM      4  O   UNL     1      12.537   9.741   6.170  0.00  0.00    -0.275 OA
ATOM      7  N   UNL     1      10.879   8.310   6.947  0.00  0.00    -0.300 N 
ATOM      8  N   UNL     1       9.595   6.985   4.340  0.00  0.00    -0.311 N 
ATOM      9  C   UNL     1       8.596   8.661   5.998  0.00  0.00    +0.027 C 
ATOM     10  C   UNL     1       9.264   6.426   6.773  0.00  0.00    +0.054 C 
ATOM     11  C   UNL     1       8.108   7.423   6.741  0.00  0.00    +0.018 C 
ATOM     12  C   UNL     1       9.807   9.280   6.716  0.00  0.00    +0.113 C 
ATOM     13  C   UNL     1       8.920   8.274   4.550  0.00  0.00    +0.130 C 
ATOM     14  C   UNL     1      10.452   7.036   7.543  0.00  0.00    +0.117 C 
ATOM     15  C   UNL     1       9.701   6.048   5.371  0.00  0.00    +0.027 A 
ATOM     16  C   UNL     1      10.213   4.833   5.125  0.00  0.00    +0.022 A 
ATOM     17  C   UNL     1      10.027   6.704   3.029  0.00  0.00    +0.259 A 
ATOM     18  C   UNL     1      12.200   8.666   6.672  0.00  0.00    +0.225 C 
ATOM     19  C   UNL     1      10.631   5.346   2.792  0.00  0.00    +0.047 A 
ATOM     20  C   UNL     1      10.689   4.482   3.816  0.00  0.00    +0.015 A 
ENDROOT
BRANCH  19  22
ATOM     22  C   UNL     1      11.157   4.964   1.470  0.00  0.00    -0.013 A 
ATOM     23  C   UNL     1      12.533   4.848   1.273  0.00  0.00    +0.010 A 
ATOM     24  C   UNL     1      10.279   4.719   0.414  0.00  0.00    +0.010 A 
ATOM     26  C   UNL     1      13.032   4.487   0.022  0.00  0.00    +0.015 A 
ATOM     27  C   UNL     1      10.778   4.358  -0.838  0.00  0.00    +0.015 A 
ATOM     28  C   UNL     1      12.154   4.242  -1.035  0.00  0.00    +0.008 A 
BRANCH  28   2
ATOM      2  S   UNL     1      12.790   3.781  -2.633  0.00  0.00    -0.129 S 
ATOM     30  C   UNL     1      11.345   2.990  -3.394  0.00  0.00    +0.090 C 
ENDBRANCH  28   2
ENDBRANCH  19  22
BRANCH  18  21
ATOM     21  C   UNL     1      13.258   7.648   7.015  0.00  0.00    +0.165 C 
BRANCH  21   1
ATOM      1  S   UNL     1      14.592   7.823   5.821  0.00  0.00    -0.140 S 
BRANCH   1  25
ATOM     25  C   UNL     1      13.693   7.341   4.326  0.00  0.00    +0.189 C 
BRANCH  25  29
ATOM      6  O   UNL     1      14.768   7.589   2.183  0.00  0.00    -0.250 OA
ATOM     29  C   UNL     1      14.674   6.988   3.245  0.00  0.00    +0.315 C 
BRANCH  29   5
ATOM      5  O   UNL     1      15.463   5.935   3.578  0.00  0.00    -0.480 OA
ATOM     31  H   UNL     1      14.938   5.122   3.741  0.00  0.00    +0.295 HD
ENDBRANCH  29   5
ENDBRANCH  25  29
ENDBRANCH   1  25
ENDBRANCH  21   1
ENDBRANCH  18  21
TORSDOF 7
ENDMDL
MODEL 6
REMARK VINA RESULT:      -6.3     23.014     25.739
REMARK  Name = 11885215
REMARK  8 active torsions:
REMARK  status: ('A' for Active; 'I' for Inactive)
REMARK    1  A    between atoms: S_1  and  C_21
REMARK    2  A    between atoms: S_1  and  C_25
REMARK    3  A    between atoms: S_2  and  C_28
REMARK    4  A    between atoms: S_2  and  C_30
REMARK    5  A    between atoms: O_5  and  C_29
REMARK    6  A    between atoms: C_18  and  C_21
REMARK    7  A    between atoms: C_19  and  C_22
REMARK    8  A    between atoms: C_25  and  C_29
REMARK                            x       y       z     vdW  Elec       q    Type
REMARK                         _______ _______ _______ _____ _____    ______ ____
ROOT
ATOM      3  O   UNL     1       9.519  -9.363  32.524  0.00  0.00    -0.267 OA
ATOM      4  O   UNL     1       8.977  -7.970  37.658  0.00  0.00    -0.275 OA
ATOM      7  N   UNL     1       8.476  -6.179  36.264  0.00  0.00    -0.300 N 
ATOM      8  N   UNL     1       8.711  -7.313  33.288  0.00  0.00    -0.311 N 
ATOM      9  C   UNL     1      10.186  -5.628  34.530  0.00  0.00    +0.027 C 
ATOM     10  C   UNL     1       7.820  -5.107  34.117  0.00  0.00    +0.054 C 
ATOM     11  C   UNL     1       9.244  -4.583  33.947  0.00  0.00    +0.018 C 
ATOM     12  C   UNL     1       9.884  -5.857  36.020  0.00  0.00    +0.113 C 
ATOM     13  C   UNL     1      10.063  -6.918  33.711  0.00  0.00    +0.130 C 
ATOM     14  C   UNL     1       7.509  -5.281  35.617  0.00  0.00    +0.117 C 
ATOM     15  C   UNL     1       7.634  -6.430  33.398  0.00  0.00    +0.027 A 
ATOM     16  C   UNL     1       6.436  -6.766  32.895  0.00  0.00    +0.022 A 
ATOM     17  C   UNL     1       8.585  -8.572  32.670  0.00  0.00    +0.259 A 
ATOM     18  C   UNL     1       8.148  -7.227  37.125  0.00  0.00    +0.225 C 
ATOM     19  C   UNL     1       7.220  -8.935  32.150  0.00  0.00    +0.047 A 
ATOM     20  C   UNL     1       6.229  -8.040  32.267  0.00  0.00    +0.015 A 
ENDROOT
BRANCH  19  22
ATOM     22  C   UNL     1       6.964 -10.246  31.527  0.00  0.00    -0.013 A 
ATOM     23  C   UNL     1       6.493 -11.306  32.302  0.00  0.00    +0.010 A 
ATOM     24  C   UNL     1       7.193 -10.428  30.163  0.00  0.00    +0.010 A 
ATOM     26  C   UNL     1       6.251 -12.548  31.714  0.00  0.00    +0.015 A 
ATOM     27  C   UNL     1       6.951 -11.669  29.575  0.00  0.00    +0.015 A 
ATOM     28  C   UNL     1       6.480 -12.729  30.349  0.00  0.00    +0.008 A 
BRANCH  28   2
ATOM      2  S   UNL     1       6.172 -14.314  29.597  0.00  0.00    -0.129 S 
ATOM     30  C   UNL     1       7.197 -14.222  28.103  0.00  0.00    +0.090 C 
ENDBRANCH  28   2
ENDBRANCH  19  22
BRANCH  18  21
ATOM     21  C   UNL     1       6.681  -7.444  37.396  0.00  0.00    +0.165 C 
BRANCH  21   1
ATOM      1  S   UNL     1       6.090  -8.688  36.240  0.00  0.00    -0.140 S 
BRANCH   1  25
ATOM     25  C   UNL     1       4.401  -8.869  36.863  0.00  0.00    +0.189 C 
BRANCH  25  29
ATOM      6  O   UNL     1       4.012 -10.369  35.016  0.00  0.00    -0.250 OA
ATOM     29  C   UNL     1       3.564  -9.580  35.838  0.00  0.00    +0.315 C 
BRANCH  29   5
ATOM      5  O   UNL     1       2.246  -9.267  35.929  0.00  0.00    -0.480 OA
ATOM     31  H   UNL     1       1.681 -10.069  35.939  0.00  0.00    +0.295 HD
ENDBRANCH  29   5
ENDBRANCH  25  29
ENDBRANCH   1  25
ENDBRANCH  21   1
ENDBRANCH  18  21
TORSDOF 7
ENDMDL
MODEL 7
REMARK VINA RESULT:      -6.2     24.402     26.880
REMARK  Name = 11885215
REMARK  8 active torsions:
REMARK  status: ('A' for Active; 'I' for Inactive)
REMARK    1  A    between atoms: S_1  and  C_21
REMARK    2  A    between atoms: S_1  and  C_25
REMARK    3  A    between atoms: S_2  and  C_28
REMARK    4  A    between atoms: S_2  and  C_30
REMARK    5  A    between atoms: O_5  and  C_29
REMARK    6  A    between atoms: C_18  and  C_21
REMARK    7  A    between atoms: C_19  and  C_22
REMARK    8  A    between atoms: C_25  and  C_29
REMARK                            x       y       z     vdW  Elec       q    Type
REMARK                         _______ _______ _______ _____ _____    ______ ____
ROOT
ATOM      3  O   UNL     1       8.841 -12.323  31.886  0.00  0.00    -0.267 OA
ATOM      4  O   UNL     1       6.419 -10.397  36.246  0.00  0.00    -0.275 OA
ATOM      7  N   UNL     1       7.236  -8.666  34.929  0.00  0.00    -0.300 N 
ATOM      8  N   UNL     1       8.471 -10.065  32.338  0.00  0.00    -0.311 N 
ATOM      9  C   UNL     1       9.636  -8.837  34.259  0.00  0.00    +0.027 C 
ATOM     10  C   UNL     1       8.051  -7.628  32.820  0.00  0.00    +0.054 C 
ATOM     11  C   UNL     1       9.469  -7.600  33.385  0.00  0.00    +0.018 C 
ATOM     12  C   UNL     1       8.611  -8.830  35.406  0.00  0.00    +0.113 C 
ATOM     13  C   UNL     1       9.508 -10.086  33.379  0.00  0.00    +0.130 C 
ATOM     14  C   UNL     1       7.033  -7.566  33.975  0.00  0.00    +0.117 C 
ATOM     15  C   UNL     1       7.815  -8.880  31.996  0.00  0.00    +0.027 A 
ATOM     16  C   UNL     1       6.960  -8.859  30.961  0.00  0.00    +0.022 A 
ATOM     17  C   UNL     1       8.257 -11.267  31.636  0.00  0.00    +0.259 A 
ATOM     18  C   UNL     1       6.226  -9.478  35.446  0.00  0.00    +0.225 C 
ATOM     19  C   UNL     1       7.265 -11.220  30.505  0.00  0.00    +0.047 A 
ATOM     20  C   UNL     1       6.680 -10.050  30.211  0.00  0.00    +0.015 A 
ENDROOT
BRANCH  19  22
ATOM     22  C   UNL     1       6.929 -12.430  29.733  0.00  0.00    -0.013 A 
ATOM     23  C   UNL     1       5.784 -13.163  30.047  0.00  0.00    +0.010 A 
ATOM     24  C   UNL     1       7.757 -12.844  28.689  0.00  0.00    +0.010 A 
ATOM     26  C   UNL     1       5.467 -14.309  29.317  0.00  0.00    +0.015 A 
ATOM     27  C   UNL     1       7.439 -13.989  27.959  0.00  0.00    +0.015 A 
ATOM     28  C   UNL     1       6.294 -14.722  28.273  0.00  0.00    +0.008 A 
BRANCH  28   2
ATOM      2  S   UNL     1       5.889 -16.185  27.341  0.00  0.00    -0.129 S 
ATOM     30  C   UNL     1       5.986 -15.576  25.634  0.00  0.00    +0.090 C 
ENDBRANCH  28   2
ENDBRANCH  19  22
BRANCH  18  21
ATOM     21  C   UNL     1       4.823  -9.194  34.973  0.00  0.00    +0.165 C 
BRANCH  21   1
ATOM      1  S   UNL     1       3.866 -10.704  35.164  0.00  0.00    -0.140 S 
BRANCH   1  25
ATOM     25  C   UNL     1       2.422 -10.015  36.009  0.00  0.00    +0.189 C 
BRANCH  25  29
ATOM      6  O   UNL     1       3.540 -10.191  38.137  0.00  0.00    -0.250 OA
ATOM     29  C   UNL     1       2.820  -9.551  37.381  0.00  0.00    +0.315 C 
BRANCH  29   5
ATOM      5  O   UNL     1       2.310  -8.332  37.691  0.00  0.00    -0.480 OA
ATOM     31  H   UNL     1       1.337  -8.302  37.566  0.00  0.00    +0.295 HD
ENDBRANCH  29   5
ENDBRANCH  25  29
ENDBRANCH   1  25
ENDBRANCH  21   1
ENDBRANCH  18  21
TORSDOF 7
ENDMDL
MODEL 8
REMARK VINA RESULT:      -6.1     28.400     30.585
REMARK  Name = 11885215
REMARK  8 active torsions:
REMARK  status: ('A' for Active; 'I' for Inactive)
REMARK    1  A    between atoms: S_1  and  C_21
REMARK    2  A    between atoms: S_1  and  C_25
REMARK    3  A    between atoms: S_2  and  C_28
REMARK    4  A    between atoms: S_2  and  C_30
REMARK    5  A    between atoms: O_5  and  C_29
REMARK    6  A    between atoms: C_18  and  C_21
REMARK    7  A    between atoms: C_19  and  C_22
REMARK    8  A    between atoms: C_25  and  C_29
REMARK                            x       y       z     vdW  Elec       q    Type
REMARK                         _______ _______ _______ _____ _____    ______ ____
ROOT
ATOM      3  O   UNL     1      -4.935 -12.951  10.082  0.00  0.00    -0.267 OA
ATOM      4  O   UNL     1      -5.867 -12.752  15.344  0.00  0.00    -0.275 OA
ATOM      7  N   UNL     1      -3.594 -12.554  14.905  0.00  0.00    -0.300 N 
ATOM      8  N   UNL     1      -3.330 -12.533  11.722  0.00  0.00    -0.311 N 
ATOM      9  C   UNL     1      -2.607 -14.304  13.423  0.00  0.00    +0.027 C 
ATOM     10  C   UNL     1      -1.604 -12.061  13.495  0.00  0.00    +0.054 C 
ATOM     11  C   UNL     1      -1.281 -13.552  13.435  0.00  0.00    +0.018 C 
ATOM     12  C   UNL     1      -3.416 -13.991  14.693  0.00  0.00    +0.113 C 
ATOM     13  C   UNL     1      -3.372 -13.940  12.146  0.00  0.00    +0.130 C 
ATOM     14  C   UNL     1      -2.368 -11.750  14.798  0.00  0.00    +0.117 C 
ATOM     15  C   UNL     1      -2.433 -11.631  12.300  0.00  0.00    +0.027 A 
ATOM     16  C   UNL     1      -2.328 -10.384  11.816  0.00  0.00    +0.022 A 
ATOM     17  C   UNL     1      -4.156 -12.174  10.640  0.00  0.00    +0.259 A 
ATOM     18  C   UNL     1      -4.850 -12.060  15.260  0.00  0.00    +0.225 C 
ATOM     19  C   UNL     1      -4.042 -10.758  10.143  0.00  0.00    +0.047 A 
ATOM     20  C   UNL     1      -3.150  -9.943  10.725  0.00  0.00    +0.015 A 
ENDROOT
BRANCH  19  22
ATOM     22  C   UNL     1      -4.892 -10.263   9.046  0.00  0.00    -0.013 A 
ATOM     23  C   UNL     1      -4.692 -10.724   7.745  0.00  0.00    +0.010 A 
ATOM     24  C   UNL     1      -5.897  -9.332   9.308  0.00  0.00    +0.010 A 
ATOM     26  C   UNL     1      -5.496 -10.255   6.706  0.00  0.00    +0.015 A 
ATOM     27  C   UNL     1      -6.702  -8.862   8.269  0.00  0.00    +0.015 A 
ATOM     28  C   UNL     1      -6.501  -9.323   6.968  0.00  0.00    +0.008 A 
BRANCH  28   2
ATOM      2  S   UNL     1      -7.528  -8.724   5.642  0.00  0.00    -0.129 S 
ATOM     30  C   UNL     1      -8.323  -7.285   6.410  0.00  0.00    +0.090 C 
ENDBRANCH  28   2
ENDBRANCH  19  22
BRANCH  18  21
ATOM     21  C   UNL     1      -4.938 -10.582  15.547  0.00  0.00    +0.165 C 
BRANCH  21   1
ATOM      1  S   UNL     1      -5.624 -10.386  17.198  0.00  0.00    -0.140 S 
BRANCH   1  25
ATOM     25  C   UNL     1      -7.091  -9.414  16.777  0.00  0.00    +0.189 C 
BRANCH  25  29
ATOM      6  O   UNL     1      -8.896 -10.007  15.292  0.00  0.00    -0.250 OA
ATOM     29  C   UNL     1      -8.144 -10.321  16.205  0.00  0.00    +0.315 C 
BRANCH  29   5
ATOM      5  O   UNL     1      -8.163 -11.541  16.800  0.00  0.00    -0.480 OA
ATOM     31  H   UNL     1      -9.069 -11.798  17.077  0.00  0.00    +0.295 HD
ENDBRANCH  29   5
ENDBRANCH  25  29
ENDBRANCH   1  25
ENDBRANCH  21   1
ENDBRANCH  18  21
TORSDOF 7
ENDMDL
MODEL 9
REMARK VINA RESULT:      -5.9     12.664     14.961
REMARK  Name = 11885215
REMARK  8 active torsions:
REMARK  status: ('A' for Active; 'I' for Inactive)
REMARK    1  A    between atoms: S_1  and  C_21
REMARK    2  A    between atoms: S_1  and  C_25
REMARK    3  A    between atoms: S_2  and  C_28
REMARK    4  A    between atoms: S_2  and  C_30
REMARK    5  A    between atoms: O_5  and  C_29
REMARK    6  A    between atoms: C_18  and  C_21
REMARK    7  A    between atoms: C_19  and  C_22
REMARK    8  A    between atoms: C_25  and  C_29
REMARK                            x       y       z     vdW  Elec       q    Type
REMARK                         _______ _______ _______ _____ _____    ______ ____
ROOT
ATOM      3  O   UNL     1      14.155   6.661   7.137  0.00  0.00    -0.267 OA
ATOM      4  O   UNL     1      10.571   3.953   4.236  0.00  0.00    -0.275 OA
ATOM      7  N   UNL     1       9.614   5.863   5.147  0.00  0.00    -0.300 N 
ATOM      8  N   UNL     1      11.982   7.368   6.674  0.00  0.00    -0.311 N 
ATOM      9  C   UNL     1       9.917   6.175   7.607  0.00  0.00    +0.027 C 
ATOM     10  C   UNL     1       9.640   8.139   6.154  0.00  0.00    +0.054 C 
ATOM     11  C   UNL     1       9.253   7.543   7.505  0.00  0.00    +0.018 C 
ATOM     12  C   UNL     1       9.441   5.257   6.469  0.00  0.00    +0.113 C 
ATOM     13  C   UNL     1      11.439   6.362   7.598  0.00  0.00    +0.130 C 
ATOM     14  C   UNL     1       9.110   7.239   5.021  0.00  0.00    +0.117 C 
ATOM     15  C   UNL     1      11.145   8.284   6.032  0.00  0.00    +0.027 A 
ATOM     16  C   UNL     1      11.672   9.269   5.288  0.00  0.00    +0.022 A 
ATOM     17  C   UNL     1      13.384   7.429   6.559  0.00  0.00    +0.259 A 
ATOM     18  C   UNL     1      10.153   5.106   4.107  0.00  0.00    +0.225 C 
ATOM     19  C   UNL     1      13.943   8.522   5.688  0.00  0.00    +0.047 A 
ATOM     20  C   UNL     1      13.092   9.383   5.112  0.00  0.00    +0.015 A 
ENDROOT
BRANCH  19  22
ATOM     22  C   UNL     1      15.394   8.649   5.460  0.00  0.00    -0.013 A 
ATOM     23  C   UNL     1      16.145   9.544   6.224  0.00  0.00    +0.010 A 
ATOM     24  C   UNL     1      16.017   7.877   4.480  0.00  0.00    +0.010 A 
ATOM     26  C   UNL     1      17.517   9.665   6.008  0.00  0.00    +0.015 A 
ATOM     27  C   UNL     1      17.389   7.998   4.264  0.00  0.00    +0.015 A 
ATOM     28  C   UNL     1      18.140   8.892   5.027  0.00  0.00    +0.008 A 
BRANCH  28   2
ATOM      2  S   UNL     1      19.893   9.047   4.751  0.00  0.00    -0.129 S 
ATOM     30  C   UNL     1      20.357   7.340   4.345  0.00  0.00    +0.090 C 
ENDBRANCH  28   2
ENDBRANCH  19  22
BRANCH  18  21
ATOM     21  C   UNL     1      10.222   5.769   2.755  0.00  0.00    +0.165 C 
BRANCH  21   1
ATOM      1  S   UNL     1      10.501   4.482   1.530  0.00  0.00    -0.140 S 
BRANCH   1  25
ATOM     25  C   UNL     1      10.650   5.526   0.058  0.00  0.00    +0.189 C 
BRANCH  25  29
ATOM      6  O   UNL     1       8.999   5.222  -1.672  0.00  0.00    -0.250 OA
ATOM     29  C   UNL     1      10.016   4.831  -1.113  0.00  0.00    +0.315 C 
BRANCH  29   5
ATOM      5  O   UNL     1      10.703   3.727  -1.501  0.00  0.00    -0.480 OA
ATOM     31  H   UNL     1      11.402   3.943  -2.155  0.00  0.00    +0.295 HD
ENDBRANCH  29   5
ENDBRANCH  25  29
ENDBRANCH   1  25
ENDBRANCH  21   1
ENDBRANCH  18  21
TORSDOF 7
ENDMDL
MODEL 10
REMARK VINA RESULT:      -5.8     17.016     22.119
REMARK  Name = 11885215
REMARK  8 active torsions:
REMARK  status: ('A' for Active; 'I' for Inactive)
REMARK    1  A    between atoms: S_1  and  C_21
REMARK    2  A    between atoms: S_1  and  C_25
REMARK    3  A    between atoms: S_2  and  C_28
REMARK    4  A    between atoms: S_2  and  C_30
REMARK    5  A    between atoms: O_5  and  C_29
REMARK    6  A    between atoms: C_18  and  C_21
REMARK    7  A    between atoms: C_19  and  C_22
REMARK    8  A    between atoms: C_25  and  C_29
REMARK                            x       y       z     vdW  Elec       q    Type
REMARK                         _______ _______ _______ _____ _____    ______ ____
ROOT
ATOM      3  O   UNL     1       9.496   3.504  -2.812  0.00  0.00    -0.267 OA
ATOM      4  O   UNL     1      10.696   3.864   2.386  0.00  0.00    -0.275 OA
ATOM      7  N   UNL     1      12.410   4.741   1.086  0.00  0.00    -0.300 N 
ATOM      8  N   UNL     1      11.381   4.559  -1.932  0.00  0.00    -0.311 N 
ATOM      9  C   UNL     1      13.253   3.273  -0.751  0.00  0.00    +0.027 C 
ATOM     10  C   UNL     1      13.404   5.716  -0.976  0.00  0.00    +0.054 C 
ATOM     11  C   UNL     1      14.148   4.408  -1.234  0.00  0.00    +0.018 C 
ATOM     12  C   UNL     1      12.953   3.423   0.750  0.00  0.00    +0.113 C 
ATOM     13  C   UNL     1      11.975   3.257  -1.596  0.00  0.00    +0.130 C 
ATOM     14  C   UNL     1      13.157   5.882   0.536  0.00  0.00    +0.117 C 
ATOM     15  C   UNL     1      12.081   5.749  -1.719  0.00  0.00    +0.027 A 
ATOM     16  C   UNL     1      11.571   6.915  -2.143  0.00  0.00    +0.022 A 
ATOM     17  C   UNL     1      10.128   4.535  -2.576  0.00  0.00    +0.259 A 
ATOM     18  C   UNL     1      11.309   4.836   1.937  0.00  0.00    +0.225 C 
ATOM     19  C   UNL     1       9.565   5.863  -3.007  0.00  0.00    +0.047 A 
ATOM     20  C   UNL     1      10.292   6.969  -2.792  0.00  0.00    +0.015 A 
ENDROOT
BRANCH  19  22
ATOM     22  C   UNL     1       8.241   5.959  -3.647  0.00  0.00    -0.013 A 
ATOM     23  C   UNL     1       7.151   6.447  -2.926  0.00  0.00    +0.010 A 
ATOM     24  C   UNL     1       8.077   5.561  -4.974  0.00  0.00    +0.010 A 
ATOM     26  C   UNL     1       5.898   6.538  -3.532  0.00  0.00    +0.015 A 
ATOM     27  C   UNL     1       6.824   5.652  -5.580  0.00  0.00    +0.015 A 
ATOM     28  C   UNL     1       5.734   6.140  -4.859  0.00  0.00    +0.008 A 
BRANCH  28   2
ATOM      2  S   UNL     1       4.134   6.255  -5.633  0.00  0.00    -0.129 S 
ATOM     30  C   UNL     1       3.066   5.466  -4.396  0.00  0.00    +0.090 C 
ENDBRANCH  28   2
ENDBRANCH  19  22
BRANCH  18  21
ATOM     21  C   UNL     1      10.860   6.227   2.306  0.00  0.00    +0.165 C 
BRANCH  21   1
ATOM      1  S   UNL     1      11.362   6.529   4.006  0.00  0.00    -0.140 S 
BRANCH   1  25
ATOM     25  C   UNL     1       9.744   6.386   4.805  0.00  0.00    +0.189 C 
BRANCH  25  29
ATOM      6  O   UNL     1       9.409   5.396   6.977  0.00  0.00    -0.250 OA
ATOM     29  C   UNL     1       9.784   5.277   5.818  0.00  0.00    +0.315 C 
BRANCH  29   5
ATOM      5  O   UNL     1      10.267   4.117   5.305  0.00  0.00    -0.480 OA
ATOM     31  H   UNL     1      10.619   4.238   4.397  0.00  0.00    +0.295 HD
ENDBRANCH  29   5
ENDBRANCH  25  29
ENDBRANCH   1  25
ENDBRANCH  21   1
ENDBRANCH  18  21
TORSDOF 7
ENDMDL
