REMARK  Name = 26743430
REMARK  10 active torsions:
REMARK  status: ('A' for Active; 'I' for Inactive)
REMARK    1  A    between atoms: N_2  and  C_15
REMARK    2  A    between atoms: N_3  and  C_8
REMARK    3  A    between atoms: N_5  and  C_27
REMARK    4  A    between atoms: C_6  and  C_9
REMARK    5  A    between atoms: C_12  and  C_16
REMARK    6  A    between atoms: C_13  and  C_18
REMARK    7  A    between atoms: C_14  and  C_17
REMARK    8  A    between atoms: C_14  and  C_24
REMARK    9  A    between atoms: C_14  and  C_25
REMARK   10  A    between atoms: C_14  and  C_26
REMARK                            x       y       z     vdW  Elec       q    Type
REMARK                         _______ _______ _______ _____ _____    ______ ____
ROOT
ATOM      6  C   UNL     1       0.747   1.392  -0.423  0.00  0.00    +0.047 C 
ATOM      7  C   UNL     1       1.472   0.060  -0.137  0.00  0.00    +0.039 C 
ATOM      8  C   UNL     1       2.439  -0.151  -1.308  0.00  0.00    +0.098 C 
ATOM     10  C   UNL     1       0.926   1.544  -1.906  0.00  0.00    -0.021 C 
ATOM     11  C   UNL     1       1.851   0.704  -2.382  0.00  0.00    -0.009 C 
ENDROOT
BRANCH   6   9
ATOM      2  N   UNL     1      -2.805   0.959   0.359  0.00  0.00    -0.236 N 
ATOM      4  N   UNL     1      -2.588   2.019   1.156  0.00  0.00    -0.171 NA
ATOM      9  C   UNL     1      -0.690   1.403   0.045  0.00  0.00    +0.003 A 
ATOM     12  C   UNL     1      -1.700   0.550  -0.328  0.00  0.00    +0.046 A 
ATOM     13  C   UNL     1      -1.294   2.285   0.960  0.00  0.00    +0.064 A 
ATOM     16  C   UNL     1      -1.703  -0.594  -1.261  0.00  0.00    +0.066 C 
ATOM     18  C   UNL     1      -0.668   3.409   1.680  0.00  0.00    +0.068 C 
BRANCH   2  15
ATOM     15  C   UNL     1      -4.077   0.388   0.299  0.00  0.00    +0.066 A 
ATOM     17  C   UNL     1      -6.620  -0.754   0.186  0.00  0.00    -0.042 A 
ATOM     19  C   UNL     1      -5.166   1.152  -0.120  0.00  0.00    +0.028 A 
ATOM     20  C   UNL     1      -4.259  -0.947   0.661  0.00  0.00    +0.028 A 
ATOM     22  C   UNL     1      -6.438   0.581  -0.176  0.00  0.00    +0.006 A 
ATOM     23  C   UNL     1      -5.530  -1.518   0.605  0.00  0.00    +0.006 A 
BRANCH  17  14
ATOM     14  C   UNL     1      -7.979  -1.364   0.126  0.00  0.00    -0.013 C 
ATOM     24  C   UNL     1      -8.558  -1.315  -1.322  0.00  0.00    +0.015 C 
ATOM     25  C   UNL     1      -8.979  -0.610   1.058  0.00  0.00    +0.015 C 
ATOM     26  C   UNL     1      -8.061  -2.866   0.557  0.00  0.00    +0.015 C 
ENDBRANCH  17  14
ENDBRANCH   2  15
ENDBRANCH   6   9
BRANCH   8   3
ATOM      1  O   UNL     1       4.604  -1.723  -0.282  0.00  0.00    -0.252 OA
ATOM      3  N   UNL     1       3.772   0.306  -1.017  0.00  0.00    -0.293 N 
ATOM      5  N   UNL     1       5.965   0.189  -0.331  0.00  0.00    -0.269 N 
ATOM     21  C   UNL     1       4.781  -0.529  -0.514  0.00  0.00    +0.304 C 
ATOM     33  H   UNL     1       3.987   1.292  -1.135  0.00  0.00    +0.151 HD
ATOM     34  H   UNL     1       5.943   1.176  -0.574  0.00  0.00    +0.156 HD
BRANCH   5  27
ATOM     27  C   UNL     1       7.204  -0.290   0.156  0.00  0.00    +0.035 A 
ATOM     28  C   UNL     1       8.289   0.579   0.275  0.00  0.00    +0.023 A 
ATOM     29  C   UNL     1       7.341  -1.630   0.517  0.00  0.00    +0.023 A 
ATOM     30  C   UNL     1       9.511   0.107   0.755  0.00  0.00    +0.002 A 
ATOM     31  C   UNL     1       8.563  -2.102   0.997  0.00  0.00    +0.002 A 
ATOM     32  C   UNL     1       9.648  -1.233   1.115  0.00  0.00    +0.000 A 
ENDBRANCH   5  27
ENDBRANCH   8   3
TORSDOF 5
