REMARK  Name = 51137036
REMARK  3 active torsions:
REMARK  status: ('A' for Active; 'I' for Inactive)
REMARK    1  A    between atoms: N_3  and  C_12
REMARK    2  A    between atoms: C_7  and  C_11
REMARK    3  A    between atoms: C_12  and  C_13
REMARK                            x       y       z     vdW  Elec       q    Type
REMARK                         _______ _______ _______ _____ _____    ______ ____
ROOT
ATOM      3  N   UNL     1      -1.025  -0.425  -0.164  0.00  0.00    -0.297 NA
ATOM      7  C   UNL     1       1.173  -0.841   0.539  0.00  0.00    +0.070 C 
ATOM      8  C   UNL     1       0.434  -0.025   1.614  0.00  0.00    +0.028 C 
ATOM      9  C   UNL     1       0.301  -0.708  -0.717  0.00  0.00    +0.096 C 
ATOM     10  C   UNL     1      -0.789   0.543   0.906  0.00  0.00    +0.085 C 
ENDROOT
BRANCH   7  11
ATOM      4  N   UNL     1       3.638  -1.314   0.490  0.00  0.00    -0.340 N 
ATOM      5  N   UNL     1       3.035   0.752  -0.082  0.00  0.00    -0.213 NA
ATOM      6  N   UNL     1       5.268   1.603  -0.509  0.00  0.00    -0.234 NA
ATOM     11  C   UNL     1       2.609  -0.431   0.305  0.00  0.00    +0.114 A 
ATOM     14  C   UNL     1       4.803  -0.657   0.204  0.00  0.00    +0.085 A 
ATOM     15  C   UNL     1       4.400   0.625  -0.149  0.00  0.00    +0.178 A 
ATOM     18  C   UNL     1       6.143  -1.032   0.212  0.00  0.00    +0.031 A 
ATOM     21  C   UNL     1       7.046  -0.038  -0.154  0.00  0.00    +0.022 A 
ATOM     23  C   UNL     1       6.567   1.223  -0.495  0.00  0.00    +0.113 A 
ATOM     24  H   UNL     1       3.554  -2.278   0.785  0.00  0.00    +0.167 HD
ENDBRANCH   7  11
BRANCH   3  12
ATOM     12  C   UNL     1      -1.951   0.075  -1.170  0.00  0.00    +0.119 C 
BRANCH  12  13
ATOM      1  F   UNL     1      -6.073   2.042   0.551  0.00  0.00    -0.202 F 
ATOM      2  F   UNL     1      -7.314  -0.394   0.495  0.00  0.00    -0.202 F 
ATOM     13  C   UNL     1      -3.384  -0.050  -0.725  0.00  0.00    -0.030 A 
ATOM     16  C   UNL     1      -4.078   1.076  -0.284  0.00  0.00    +0.046 A 
ATOM     17  C   UNL     1      -4.017  -1.293  -0.754  0.00  0.00    +0.008 A 
ATOM     19  C   UNL     1      -5.406   0.960   0.128  0.00  0.00    +0.159 A 
ATOM     20  C   UNL     1      -5.344  -1.409  -0.342  0.00  0.00    +0.041 A 
ATOM     22  C   UNL     1      -6.039  -0.283   0.099  0.00  0.00    +0.158 A 
ENDBRANCH  12  13
ENDBRANCH   3  12
TORSDOF 3
