MODEL 1
REMARK VINA RESULT:      -8.2      0.000      0.000
REMARK  Name = 11884253
REMARK  3 active torsions:
REMARK  status: ('A' for Active; 'I' for Inactive)
REMARK    1  A    between atoms: C_11  and  C_18
REMARK    2  A    between atoms: C_27  and  C_29
REMARK    3  A    between atoms: C_32  and  C_35
REMARK                            x       y       z     vdW  Elec       q    Type
REMARK                         _______ _______ _______ _____ _____    ______ ____
ROOT
ATOM      4  O   UNL     1     -13.816 -12.055  19.348  0.00  0.00    -0.275 OA
ATOM      5  O   UNL     1     -10.209 -10.783  20.436  0.00  0.00    -0.273 OA
ATOM      6  O   UNL     1      -8.333  -8.488  16.060  0.00  0.00    -0.270 OA
ATOM      7  N   UNL     1     -12.344 -10.552  18.349  0.00  0.00    -0.298 N 
ATOM      8  N   UNL     1      -9.727  -9.842  17.315  0.00  0.00    -0.283 N 
ATOM     10  N   UNL     1      -8.081 -10.630  19.643  0.00  0.00    -0.283 N 
ATOM     12  C   UNL     1      -9.916 -11.080  18.058  0.00  0.00    +0.180 C 
ATOM     13  C   UNL     1     -11.363 -11.585  18.011  0.00  0.00    +0.139 C 
ATOM     14  C   UNL     1     -12.024  -9.178  17.955  0.00  0.00    +0.127 C 
ATOM     15  C   UNL     1     -10.930  -9.119  16.899  0.00  0.00    +0.128 C 
ATOM     18  C   UNL     1     -13.524 -10.911  19.009  0.00  0.00    +0.219 C 
ATOM     21  C   UNL     1      -9.439 -10.790  19.474  0.00  0.00    +0.239 C 
ATOM     22  C   UNL     1      -8.485  -9.424  16.847  0.00  0.00    +0.249 C 
ATOM     23  C   UNL     1      -7.263 -10.116  17.335  0.00  0.00    +0.059 A 
ATOM     24  C   UNL     1      -7.079 -10.564  18.653  0.00  0.00    +0.046 A 
ATOM     25  C   UNL     1      -6.176 -10.145  16.440  0.00  0.00    +0.023 A 
ATOM     26  C   UNL     1      -5.795 -10.964  19.063  0.00  0.00    +0.024 A 
ATOM     27  C   UNL     1      -4.921 -10.591  16.851  0.00  0.00    -0.017 A 
ATOM     28  C   UNL     1      -4.727 -10.988  18.168  0.00  0.00    +0.010 A 
ATOM     37  H   UNL     1      -7.755 -10.660  20.606  0.00  0.00    +0.155 HD
ENDROOT
BRANCH  18  11
ATOM      9  N   UNL     1     -16.972  -8.987  20.626  0.00  0.00    -0.316 NA
ATOM     11  C   UNL     1     -14.502  -9.814  19.301  0.00  0.00    +0.078 C 
ATOM     16  C   UNL     1     -14.575  -9.560  20.808  0.00  0.00    +0.028 C 
ATOM     17  C   UNL     1     -15.883 -10.177  18.754  0.00  0.00    +0.028 C 
ATOM     19  C   UNL     1     -15.675  -8.557  21.148  0.00  0.00    +0.081 C 
ATOM     20  C   UNL     1     -16.934  -9.151  19.172  0.00  0.00    +0.081 C 
ATOM     36  H   UNL     1     -17.222  -9.880  21.052  0.00  0.00    +0.122 HD
ENDBRANCH  18  11
BRANCH  27  29
ATOM     29  C   UNL     1      -3.818 -10.618  15.915  0.00  0.00    -0.017 A 
ATOM     30  C   UNL     1      -4.068 -10.621  14.543  0.00  0.00    +0.021 A 
ATOM     31  C   UNL     1      -2.505 -10.642  16.385  0.00  0.00    +0.008 A 
ATOM     32  C   UNL     1      -3.003 -10.649  13.641  0.00  0.00    +0.055 A 
ATOM     33  C   UNL     1      -1.441 -10.670  15.484  0.00  0.00    +0.001 A 
ATOM     34  C   UNL     1      -1.690 -10.673  14.111  0.00  0.00    +0.012 A 
BRANCH  32  35
ATOM      1  F   UNL     1      -3.483 -11.898  11.658  0.00  0.00    -0.166 F 
ATOM      2  F   UNL     1      -4.369  -9.925  11.815  0.00  0.00    -0.166 F 
ATOM      3  F   UNL     1      -2.235 -10.130  11.452  0.00  0.00    -0.166 F 
ATOM     35  C   UNL     1      -3.269 -10.652  12.173  0.00  0.00    +0.417 C 
ENDBRANCH  32  35
ENDBRANCH  27  29
TORSDOF 3
ENDMDL
MODEL 2
REMARK VINA RESULT:      -7.9     29.568     34.380
REMARK  Name = 11884253
REMARK  3 active torsions:
REMARK  status: ('A' for Active; 'I' for Inactive)
REMARK    1  A    between atoms: C_11  and  C_18
REMARK    2  A    between atoms: C_27  and  C_29
REMARK    3  A    between atoms: C_32  and  C_35
REMARK                            x       y       z     vdW  Elec       q    Type
REMARK                         _______ _______ _______ _____ _____    ______ ____
ROOT
ATOM      4  O   UNL     1      23.424   5.890  25.439  0.00  0.00    -0.275 OA
ATOM      5  O   UNL     1      22.107   5.758  21.690  0.00  0.00    -0.273 OA
ATOM      6  O   UNL     1      18.549   9.661  21.491  0.00  0.00    -0.270 OA
ATOM      7  N   UNL     1      22.196   7.417  24.182  0.00  0.00    -0.298 N 
ATOM      8  N   UNL     1      19.941   8.110  22.491  0.00  0.00    -0.283 N 
ATOM     10  N   UNL     1      20.180   5.943  20.491  0.00  0.00    -0.283 N 
ATOM     12  C   UNL     1      20.208   6.719  22.832  0.00  0.00    +0.180 C 
ATOM     13  C   UNL     1      21.002   6.570  24.136  0.00  0.00    +0.139 C 
ATOM     14  C   UNL     1      22.117   8.714  23.504  0.00  0.00    +0.127 C 
ATOM     15  C   UNL     1      20.682   9.135  23.228  0.00  0.00    +0.128 C 
ATOM     18  C   UNL     1      23.333   6.970  24.863  0.00  0.00    +0.219 C 
ATOM     21  C   UNL     1      20.932   6.130  21.631  0.00  0.00    +0.239 C 
ATOM     22  C   UNL     1      18.910   8.493  21.640  0.00  0.00    +0.249 C 
ATOM     23  C   UNL     1      18.214   7.452  20.838  0.00  0.00    +0.059 A 
ATOM     24  C   UNL     1      18.853   6.351  20.246  0.00  0.00    +0.046 A 
ATOM     25  C   UNL     1      16.867   7.716  20.527  0.00  0.00    +0.023 A 
ATOM     26  C   UNL     1      18.149   5.582  19.301  0.00  0.00    +0.024 A 
ATOM     27  C   UNL     1      16.169   6.914  19.624  0.00  0.00    -0.017 A 
ATOM     28  C   UNL     1      16.815   5.854  19.001  0.00  0.00    +0.010 A 
ATOM     37  H   UNL     1      20.604   5.353  19.780  0.00  0.00    +0.155 HD
ENDROOT
BRANCH  18  11
ATOM      9  N   UNL     1      27.366   8.248  25.424  0.00  0.00    -0.316 NA
ATOM     11  C   UNL     1      24.512   7.894  24.900  0.00  0.00    +0.078 C 
ATOM     16  C   UNL     1      25.588   7.417  23.923  0.00  0.00    +0.028 C 
ATOM     17  C   UNL     1      25.078   7.974  26.319  0.00  0.00    +0.028 C 
ATOM     19  C   UNL     1      26.863   8.248  24.051  0.00  0.00    +0.081 C 
ATOM     20  C   UNL     1      26.373   8.783  26.357  0.00  0.00    +0.081 C 
ATOM     36  H   UNL     1      27.590   7.290  25.695  0.00  0.00    +0.122 HD
ENDBRANCH  18  11
BRANCH  27  29
ATOM     29  C   UNL     1      14.783   7.199  19.322  0.00  0.00    -0.017 A 
ATOM     30  C   UNL     1      13.813   7.077  20.316  0.00  0.00    +0.021 A 
ATOM     31  C   UNL     1      14.418   7.596  18.035  0.00  0.00    +0.008 A 
ATOM     32  C   UNL     1      12.476   7.351  20.023  0.00  0.00    +0.055 A 
ATOM     33  C   UNL     1      13.082   7.869  17.742  0.00  0.00    +0.001 A 
ATOM     34  C   UNL     1      12.111   7.747  18.736  0.00  0.00    +0.012 A 
BRANCH  32  35
ATOM      1  F   UNL     1      11.090   5.928  21.356  0.00  0.00    -0.166 F 
ATOM      2  F   UNL     1      11.816   7.747  22.288  0.00  0.00    -0.166 F 
ATOM      3  F   UNL     1      10.272   7.852  20.760  0.00  0.00    -0.166 F 
ATOM     35  C   UNL     1      11.437   7.220  21.085  0.00  0.00    +0.417 C 
ENDBRANCH  32  35
ENDBRANCH  27  29
TORSDOF 3
ENDMDL
MODEL 3
REMARK VINA RESULT:      -7.4     21.112     23.973
REMARK  Name = 11884253
REMARK  3 active torsions:
REMARK  status: ('A' for Active; 'I' for Inactive)
REMARK    1  A    between atoms: C_11  and  C_18
REMARK    2  A    between atoms: C_27  and  C_29
REMARK    3  A    between atoms: C_32  and  C_35
REMARK                            x       y       z     vdW  Elec       q    Type
REMARK                         _______ _______ _______ _____ _____    ______ ____
ROOT
ATOM      4  O   UNL     1       9.490  -3.552  37.011  0.00  0.00    -0.275 OA
ATOM      5  O   UNL     1       6.935  -4.789  34.227  0.00  0.00    -0.273 OA
ATOM      6  O   UNL     1       6.447  -9.960  35.206  0.00  0.00    -0.270 OA
ATOM      7  N   UNL     1       8.262  -5.520  36.811  0.00  0.00    -0.298 N 
ATOM      8  N   UNL     1       7.411  -7.861  35.322  0.00  0.00    -0.283 N 
ATOM     10  N   UNL     1       6.582  -6.536  32.810  0.00  0.00    -0.283 N 
ATOM     12  C   UNL     1       8.180  -6.811  34.669  0.00  0.00    +0.180 C 
ATOM     13  C   UNL     1       9.025  -5.995  35.654  0.00  0.00    +0.139 C 
ATOM     14  C   UNL     1       7.184  -6.386  37.296  0.00  0.00    +0.127 C 
ATOM     15  C   UNL     1       7.312  -7.812  36.782  0.00  0.00    +0.128 C 
ATOM     18  C   UNL     1       8.592  -4.294  37.398  0.00  0.00    +0.219 C 
ATOM     21  C   UNL     1       7.166  -5.961  33.918  0.00  0.00    +0.239 C 
ATOM     22  C   UNL     1       6.929  -8.976  34.643  0.00  0.00    +0.249 C 
ATOM     23  C   UNL     1       6.964  -8.985  33.157  0.00  0.00    +0.059 A 
ATOM     24  C   UNL     1       6.701  -7.864  32.352  0.00  0.00    +0.046 A 
ATOM     25  C   UNL     1       7.095 -10.249  32.553  0.00  0.00    +0.023 A 
ATOM     26  C   UNL     1       6.505  -8.048  30.972  0.00  0.00    +0.024 A 
ATOM     27  C   UNL     1       6.947 -10.406  31.176  0.00  0.00    -0.017 A 
ATOM     28  C   UNL     1       6.638  -9.306  30.386  0.00  0.00    +0.010 A 
ATOM     37  H   UNL     1       6.085  -5.895  32.197  0.00  0.00    +0.155 HD
ENDROOT
BRANCH  18  11
ATOM      9  N   UNL     1       6.794  -1.699  40.269  0.00  0.00    -0.316 NA
ATOM     11  C   UNL     1       7.794  -3.876  38.596  0.00  0.00    +0.078 C 
ATOM     16  C   UNL     1       6.624  -2.988  38.168  0.00  0.00    +0.028 C 
ATOM     17  C   UNL     1       8.686  -3.138  39.595  0.00  0.00    +0.028 C 
ATOM     19  C   UNL     1       5.886  -2.421  39.379  0.00  0.00    +0.081 C 
ATOM     20  C   UNL     1       7.870  -2.565  40.751  0.00  0.00    +0.081 C 
ATOM     36  H   UNL     1       7.204  -0.916  39.759  0.00  0.00    +0.122 HD
ENDBRANCH  18  11
BRANCH  27  29
ATOM     29  C   UNL     1       7.092 -11.714  30.574  0.00  0.00    -0.017 A 
ATOM     30  C   UNL     1       5.961 -12.439  30.198  0.00  0.00    +0.021 A 
ATOM     31  C   UNL     1       8.364 -12.250  30.370  0.00  0.00    +0.008 A 
ATOM     32  C   UNL     1       6.103 -13.700  29.620  0.00  0.00    +0.055 A 
ATOM     33  C   UNL     1       8.505 -13.511  29.792  0.00  0.00    +0.001 A 
ATOM     34  C   UNL     1       7.375 -14.236  29.415  0.00  0.00    +0.012 A 
BRANCH  32  35
ATOM      1  F   UNL     1       5.030 -15.120  28.020  0.00  0.00    -0.166 F 
ATOM      2  F   UNL     1       4.551 -15.453  30.109  0.00  0.00    -0.166 F 
ATOM      3  F   UNL     1       3.785 -13.692  29.088  0.00  0.00    -0.166 F 
ATOM     35  C   UNL     1       4.894 -14.477  29.217  0.00  0.00    +0.417 C 
ENDBRANCH  32  35
ENDBRANCH  27  29
TORSDOF 3
ENDMDL
MODEL 4
REMARK VINA RESULT:      -7.3     27.712     29.863
REMARK  Name = 11884253
REMARK  3 active torsions:
REMARK  status: ('A' for Active; 'I' for Inactive)
REMARK    1  A    between atoms: C_11  and  C_18
REMARK    2  A    between atoms: C_27  and  C_29
REMARK    3  A    between atoms: C_32  and  C_35
REMARK                            x       y       z     vdW  Elec       q    Type
REMARK                         _______ _______ _______ _____ _____    ______ ____
ROOT
ATOM      4  O   UNL     1       8.683  12.001   8.521  0.00  0.00    -0.275 OA
ATOM      5  O   UNL     1       9.214   8.088   8.055  0.00  0.00    -0.273 OA
ATOM      6  O   UNL     1      13.643   7.772   5.189  0.00  0.00    -0.270 OA
ATOM      7  N   UNL     1      10.529  10.768   7.818  0.00  0.00    -0.298 N 
ATOM      8  N   UNL     1      11.777   8.785   6.105  0.00  0.00    -0.283 N 
ATOM     10  N   UNL     1       9.852   6.571   6.482  0.00  0.00    -0.283 N 
ATOM     12  C   UNL     1      10.331   8.960   6.100  0.00  0.00    +0.180 C 
ATOM     13  C   UNL     1       9.901  10.358   6.560  0.00  0.00    +0.139 C 
ATOM     14  C   UNL     1      11.892  10.291   8.066  0.00  0.00    +0.127 C 
ATOM     15  C   UNL     1      12.573   9.801   6.796  0.00  0.00    +0.128 C 
ATOM     18  C   UNL     1       9.825  11.588   8.705  0.00  0.00    +0.219 C 
ATOM     21  C   UNL     1       9.777   7.852   6.984  0.00  0.00    +0.239 C 
ATOM     22  C   UNL     1      12.422   7.813   5.347  0.00  0.00    +0.249 C 
ATOM     23  C   UNL     1      11.611   6.741   4.711  0.00  0.00    +0.059 A 
ATOM     24  C   UNL     1      10.498   6.129   5.309  0.00  0.00    +0.046 A 
ATOM     25  C   UNL     1      12.128   6.210   3.514  0.00  0.00    +0.023 A 
ATOM     26  C   UNL     1       9.973   4.958   4.733  0.00  0.00    +0.024 A 
ATOM     27  C   UNL     1      11.564   5.077   2.930  0.00  0.00    -0.017 A 
ATOM     28  C   UNL     1      10.494   4.443   3.548  0.00  0.00    +0.010 A 
ATOM     37  H   UNL     1       9.289   5.878   6.969  0.00  0.00    +0.155 HD
ENDROOT
BRANCH  18  11
ATOM      9  N   UNL     1      10.567  13.689  12.344  0.00  0.00    -0.316 NA
ATOM     11  C   UNL     1      10.532  11.998   9.961  0.00  0.00    +0.078 C 
ATOM     16  C   UNL     1       9.652  11.711  11.180  0.00  0.00    +0.028 C 
ATOM     17  C   UNL     1      10.896  13.482   9.904  0.00  0.00    +0.028 C 
ATOM     19  C   UNL     1      10.281  12.260  12.459  0.00  0.00    +0.081 C 
ATOM     20  C   UNL     1      11.476  13.964  11.231  0.00  0.00    +0.081 C 
ATOM     36  H   UNL     1       9.692  14.191  12.187  0.00  0.00    +0.122 HD
ENDBRANCH  18  11
BRANCH  27  29
ATOM     29  C   UNL     1      12.105   4.550   1.696  0.00  0.00    -0.017 A 
ATOM     30  C   UNL     1      11.318   4.518   0.545  0.00  0.00    +0.021 A 
ATOM     31  C   UNL     1      13.417   4.074   1.658  0.00  0.00    +0.008 A 
ATOM     32  C   UNL     1      11.841   4.009  -0.644  0.00  0.00    +0.055 A 
ATOM     33  C   UNL     1      13.939   3.565   0.469  0.00  0.00    +0.001 A 
ATOM     34  C   UNL     1      13.152   3.533  -0.682  0.00  0.00    +0.012 A 
BRANCH  32  35
ATOM      1  F   UNL     1       9.787   4.583  -1.727  0.00  0.00    -0.166 F 
ATOM      2  F   UNL     1      11.578   4.589  -2.949  0.00  0.00    -0.166 F 
ATOM      3  F   UNL     1      10.724   2.702  -2.286  0.00  0.00    -0.166 F 
ATOM     35  C   UNL     1      11.000   3.974  -1.875  0.00  0.00    +0.417 C 
ENDBRANCH  32  35
ENDBRANCH  27  29
TORSDOF 3
ENDMDL
MODEL 5
REMARK VINA RESULT:      -7.3     27.591     29.803
REMARK  Name = 11884253
REMARK  3 active torsions:
REMARK  status: ('A' for Active; 'I' for Inactive)
REMARK    1  A    between atoms: C_11  and  C_18
REMARK    2  A    between atoms: C_27  and  C_29
REMARK    3  A    between atoms: C_32  and  C_35
REMARK                            x       y       z     vdW  Elec       q    Type
REMARK                         _______ _______ _______ _____ _____    ______ ____
ROOT
ATOM      4  O   UNL     1       8.304  12.127   8.921  0.00  0.00    -0.275 OA
ATOM      5  O   UNL     1       8.860   8.221   8.430  0.00  0.00    -0.273 OA
ATOM      6  O   UNL     1      13.295   7.952   5.568  0.00  0.00    -0.270 OA
ATOM      7  N   UNL     1      10.159  10.911   8.212  0.00  0.00    -0.298 N 
ATOM      8  N   UNL     1      11.421   8.948   6.487  0.00  0.00    -0.283 N 
ATOM     10  N   UNL     1       9.510   6.718   6.848  0.00  0.00    -0.283 N 
ATOM     12  C   UNL     1       9.974   9.113   6.482  0.00  0.00    +0.180 C 
ATOM     13  C   UNL     1       9.535  10.505   6.951  0.00  0.00    +0.139 C 
ATOM     14  C   UNL     1      11.525  10.440   8.459  0.00  0.00    +0.127 C 
ATOM     15  C   UNL     1      12.210   9.963   7.187  0.00  0.00    +0.128 C 
ATOM     18  C   UNL     1       9.448  11.720   9.105  0.00  0.00    +0.219 C 
ATOM     21  C   UNL     1       9.427   7.996   7.358  0.00  0.00    +0.239 C 
ATOM     22  C   UNL     1      12.073   7.984   5.724  0.00  0.00    +0.249 C 
ATOM     23  C   UNL     1      11.270   6.912   5.080  0.00  0.00    +0.059 A 
ATOM     24  C   UNL     1      10.160   6.289   5.673  0.00  0.00    +0.046 A 
ATOM     25  C   UNL     1      11.791   6.392   3.880  0.00  0.00    +0.023 A 
ATOM     26  C   UNL     1       9.643   5.119   5.089  0.00  0.00    +0.024 A 
ATOM     27  C   UNL     1      11.235   5.259   3.288  0.00  0.00    -0.017 A 
ATOM     28  C   UNL     1      10.168   4.614   3.900  0.00  0.00    +0.010 A 
ATOM     37  H   UNL     1       8.951   6.019   7.330  0.00  0.00    +0.155 HD
ENDROOT
BRANCH  18  11
ATOM      9  N   UNL     1      10.179  13.811  12.752  0.00  0.00    -0.316 NA
ATOM     11  C   UNL     1      10.151  12.126  10.364  0.00  0.00    +0.078 C 
ATOM     16  C   UNL     1       9.268  11.836  11.579  0.00  0.00    +0.028 C 
ATOM     17  C   UNL     1      10.516  13.610  10.312  0.00  0.00    +0.028 C 
ATOM     19  C   UNL     1       9.892  12.381  12.862  0.00  0.00    +0.081 C 
ATOM     20  C   UNL     1      11.092  14.089  11.643  0.00  0.00    +0.081 C 
ATOM     36  H   UNL     1       9.305  14.313  12.594  0.00  0.00    +0.122 HD
ENDBRANCH  18  11
BRANCH  27  29
ATOM     29  C   UNL     1      11.781   4.744   2.051  0.00  0.00    -0.017 A 
ATOM     30  C   UNL     1      13.162   4.703   1.862  0.00  0.00    +0.021 A 
ATOM     31  C   UNL     1      10.926   4.288   1.047  0.00  0.00    +0.008 A 
ATOM     32  C   UNL     1      13.688   4.207   0.668  0.00  0.00    +0.055 A 
ATOM     33  C   UNL     1      11.451   3.793  -0.145  0.00  0.00    +0.001 A 
ATOM     34  C   UNL     1      12.833   3.752  -0.335  0.00  0.00    +0.012 A 
BRANCH  32  35
ATOM      1  F   UNL     1      15.797   5.330   0.784  0.00  0.00    -0.166 F 
ATOM      2  F   UNL     1      15.791   3.203   1.210  0.00  0.00    -0.166 F 
ATOM      3  F   UNL     1      15.509   3.902  -0.830  0.00  0.00    -0.166 F 
ATOM     35  C   UNL     1      15.165   4.163   0.465  0.00  0.00    +0.417 C 
ENDBRANCH  32  35
ENDBRANCH  27  29
TORSDOF 3
ENDMDL
MODEL 6
REMARK VINA RESULT:      -7.3      9.514     12.358
REMARK  Name = 11884253
REMARK  3 active torsions:
REMARK  status: ('A' for Active; 'I' for Inactive)
REMARK    1  A    between atoms: C_11  and  C_18
REMARK    2  A    between atoms: C_27  and  C_29
REMARK    3  A    between atoms: C_32  and  C_35
REMARK                            x       y       z     vdW  Elec       q    Type
REMARK                         _______ _______ _______ _____ _____    ______ ____
ROOT
ATOM      4  O   UNL     1     -10.601  -9.901   3.986  0.00  0.00    -0.275 OA
ATOM      5  O   UNL     1      -7.707  -8.074   6.009  0.00  0.00    -0.273 OA
ATOM      6  O   UNL     1      -4.132 -11.890   6.775  0.00  0.00    -0.270 OA
ATOM      7  N   UNL     1      -8.403 -10.524   4.435  0.00  0.00    -0.298 N 
ATOM      8  N   UNL     1      -6.203 -10.995   6.268  0.00  0.00    -0.283 N 
ATOM     10  N   UNL     1      -6.271  -8.429   7.740  0.00  0.00    -0.283 N 
ATOM     12  C   UNL     1      -7.429 -10.360   6.734  0.00  0.00    +0.180 C 
ATOM     13  C   UNL     1      -8.644 -10.712   5.867  0.00  0.00    +0.139 C 
ATOM     14  C   UNL     1      -7.045 -10.784   3.951  0.00  0.00    +0.127 C 
ATOM     15  C   UNL     1      -6.226 -11.603   4.937  0.00  0.00    +0.128 C 
ATOM     18  C   UNL     1      -9.456 -10.124   3.605  0.00  0.00    +0.219 C 
ATOM     21  C   UNL     1      -7.138  -8.867   6.762  0.00  0.00    +0.239 C 
ATOM     22  C   UNL     1      -5.097 -11.192   7.089  0.00  0.00    +0.249 C 
ATOM     23  C   UNL     1      -5.049 -10.508   8.409  0.00  0.00    +0.059 A 
ATOM     24  C   UNL     1      -5.509  -9.202   8.640  0.00  0.00    +0.046 A 
ATOM     25  C   UNL     1      -4.330 -11.174   9.419  0.00  0.00    +0.023 A 
ATOM     26  C   UNL     1      -5.176  -8.567   9.851  0.00  0.00    +0.024 A 
ATOM     27  C   UNL     1      -4.051 -10.547  10.633  0.00  0.00    -0.017 A 
ATOM     28  C   UNL     1      -4.463  -9.237  10.843  0.00  0.00    +0.010 A 
ATOM     37  H   UNL     1      -6.257  -7.423   7.892  0.00  0.00    +0.155 HD
ENDROOT
BRANCH  18  11
ATOM      9  N   UNL     1     -10.174  -9.748  -0.584  0.00  0.00    -0.316 NA
ATOM     11  C   UNL     1      -9.154  -9.978   2.145  0.00  0.00    +0.078 C 
ATOM     16  C   UNL     1      -9.763  -8.682   1.607  0.00  0.00    +0.028 C 
ATOM     17  C   UNL     1      -9.691 -11.182   1.370  0.00  0.00    +0.028 C 
ATOM     19  C   UNL     1      -9.606  -8.582   0.091  0.00  0.00    +0.081 C 
ATOM     20  C   UNL     1      -9.537 -10.987  -0.137  0.00  0.00    +0.081 C 
ATOM     36  H   UNL     1     -11.172  -9.797  -0.378  0.00  0.00    +0.122 HD
ENDBRANCH  18  11
BRANCH  27  29
ATOM     29  C   UNL     1      -3.316 -11.251  11.661  0.00  0.00    -0.017 A 
ATOM     30  C   UNL     1      -2.812 -10.555  12.759  0.00  0.00    +0.021 A 
ATOM     31  C   UNL     1      -3.112 -12.627  11.553  0.00  0.00    +0.008 A 
ATOM     32  C   UNL     1      -2.101 -11.234  13.749  0.00  0.00    +0.055 A 
ATOM     33  C   UNL     1      -2.402 -13.306  12.543  0.00  0.00    +0.001 A 
ATOM     34  C   UNL     1      -1.897 -12.610  13.642  0.00  0.00    +0.012 A 
BRANCH  32  35
ATOM      1  F   UNL     1      -2.496 -10.233  15.886  0.00  0.00    -0.166 F 
ATOM      2  F   UNL     1      -0.555 -11.150  15.573  0.00  0.00    -0.166 F 
ATOM      3  F   UNL     1      -1.042  -9.276  14.583  0.00  0.00    -0.166 F 
ATOM     35  C   UNL     1      -1.561 -10.491  14.924  0.00  0.00    +0.417 C 
ENDBRANCH  32  35
ENDBRANCH  27  29
TORSDOF 3
ENDMDL
MODEL 7
REMARK VINA RESULT:      -7.2     29.377     33.861
REMARK  Name = 11884253
REMARK  3 active torsions:
REMARK  status: ('A' for Active; 'I' for Inactive)
REMARK    1  A    between atoms: C_11  and  C_18
REMARK    2  A    between atoms: C_27  and  C_29
REMARK    3  A    between atoms: C_32  and  C_35
REMARK                            x       y       z     vdW  Elec       q    Type
REMARK                         _______ _______ _______ _____ _____    ______ ____
ROOT
ATOM      4  O   UNL     1      24.469   6.714  21.503  0.00  0.00    -0.275 OA
ATOM      5  O   UNL     1      20.884   7.473  23.044  0.00  0.00    -0.273 OA
ATOM      6  O   UNL     1      17.568   5.053  19.715  0.00  0.00    -0.270 OA
ATOM      7  N   UNL     1      22.382   5.767  21.092  0.00  0.00    -0.298 N 
ATOM      8  N   UNL     1      19.567   5.978  20.419  0.00  0.00    -0.283 N 
ATOM     10  N   UNL     1      18.770   8.024  22.402  0.00  0.00    -0.283 N 
ATOM     12  C   UNL     1      20.348   7.173  20.709  0.00  0.00    +0.180 C 
ATOM     13  C   UNL     1      21.848   6.975  20.459  0.00  0.00    +0.139 C 
ATOM     14  C   UNL     1      21.485   4.612  21.180  0.00  0.00    +0.127 C 
ATOM     15  C   UNL     1      20.301   4.726  20.231  0.00  0.00    +0.128 C 
ATOM     18  C   UNL     1      23.698   5.760  21.565  0.00  0.00    +0.219 C 
ATOM     21  C   UNL     1      20.034   7.533  22.153  0.00  0.00    +0.239 C 
ATOM     22  C   UNL     1      18.203   6.017  20.147  0.00  0.00    +0.249 C 
ATOM     23  C   UNL     1      17.451   7.271  20.413  0.00  0.00    +0.059 A 
ATOM     24  C   UNL     1      17.678   8.111  21.515  0.00  0.00    +0.046 A 
ATOM     25  C   UNL     1      16.335   7.504  19.588  0.00  0.00    +0.023 A 
ATOM     26  C   UNL     1      16.741   9.120  21.806  0.00  0.00    +0.024 A 
ATOM     27  C   UNL     1      15.443   8.540  19.863  0.00  0.00    -0.017 A 
ATOM     28  C   UNL     1      15.640   9.340  20.981  0.00  0.00    +0.010 A 
ATOM     37  H   UNL     1      18.644   8.464  23.310  0.00  0.00    +0.155 HD
ENDROOT
BRANCH  18  11
ATOM      9  N   UNL     1      26.482   2.867  23.010  0.00  0.00    -0.316 NA
ATOM     11  C   UNL     1      24.196   4.485  22.175  0.00  0.00    +0.078 C 
ATOM     16  C   UNL     1      24.987   4.784  23.450  0.00  0.00    +0.028 C 
ATOM     17  C   UNL     1      25.067   3.724  21.174  0.00  0.00    +0.028 C 
ATOM     19  C   UNL     1      25.637   3.520  24.009  0.00  0.00    +0.081 C 
ATOM     20  C   UNL     1      25.715   2.501  21.819  0.00  0.00    +0.081 C 
ATOM     36  H   UNL     1      27.229   3.507  22.738  0.00  0.00    +0.122 HD
ENDBRANCH  18  11
BRANCH  27  29
ATOM     29  C   UNL     1      14.304   8.766  18.999  0.00  0.00    -0.017 A 
ATOM     30  C   UNL     1      14.475   9.412  17.775  0.00  0.00    +0.021 A 
ATOM     31  C   UNL     1      13.036   8.337  19.391  0.00  0.00    +0.008 A 
ATOM     32  C   UNL     1      13.376   9.631  16.943  0.00  0.00    +0.055 A 
ATOM     33  C   UNL     1      11.938   8.556  18.560  0.00  0.00    +0.001 A 
ATOM     34  C   UNL     1      12.108   9.202  17.336  0.00  0.00    +0.012 A 
BRANCH  32  35
ATOM      1  F   UNL     1      14.559   9.796  14.871  0.00  0.00    -0.166 F 
ATOM      2  F   UNL     1      12.446  10.285  14.839  0.00  0.00    -0.166 F 
ATOM      3  F   UNL     1      13.860  11.645  15.776  0.00  0.00    -0.166 F 
ATOM     35  C   UNL     1      13.557  10.323  15.634  0.00  0.00    +0.417 C 
ENDBRANCH  32  35
ENDBRANCH  27  29
TORSDOF 3
ENDMDL
MODEL 8
REMARK VINA RESULT:      -7.2      2.102      2.856
REMARK  Name = 11884253
REMARK  3 active torsions:
REMARK  status: ('A' for Active; 'I' for Inactive)
REMARK    1  A    between atoms: C_11  and  C_18
REMARK    2  A    between atoms: C_27  and  C_29
REMARK    3  A    between atoms: C_32  and  C_35
REMARK                            x       y       z     vdW  Elec       q    Type
REMARK                         _______ _______ _______ _____ _____    ______ ____
ROOT
ATOM      4  O   UNL     1     -11.140 -14.261  20.312  0.00  0.00    -0.275 OA
ATOM      5  O   UNL     1      -7.805 -12.108  20.089  0.00  0.00    -0.273 OA
ATOM      6  O   UNL     1      -8.303  -9.526  15.504  0.00  0.00    -0.270 OA
ATOM      7  N   UNL     1     -10.552 -12.465  18.952  0.00  0.00    -0.298 N 
ATOM      8  N   UNL     1      -8.761 -11.153  17.083  0.00  0.00    -0.283 N 
ATOM     10  N   UNL     1      -6.229 -11.451  18.583  0.00  0.00    -0.283 N 
ATOM     12  C   UNL     1      -8.357 -12.381  17.754  0.00  0.00    +0.180 C 
ATOM     13  C   UNL     1      -9.552 -13.230  18.205  0.00  0.00    +0.139 C 
ATOM     14  C   UNL     1     -10.740 -11.064  18.567  0.00  0.00    +0.127 C 
ATOM     15  C   UNL     1     -10.168 -10.761  17.190  0.00  0.00    +0.128 C 
ATOM     18  C   UNL     1     -11.278 -13.090  19.971  0.00  0.00    +0.219 C 
ATOM     21  C   UNL     1      -7.471 -11.948  18.913  0.00  0.00    +0.239 C 
ATOM     22  C   UNL     1      -7.922 -10.452  16.223  0.00  0.00    +0.249 C 
ATOM     23  C   UNL     1      -6.479 -10.806  16.178  0.00  0.00    +0.059 A 
ATOM     24  C   UNL     1      -5.716 -11.163  17.301  0.00  0.00    +0.046 A 
ATOM     25  C   UNL     1      -5.831 -10.586  14.948  0.00  0.00    +0.023 A 
ATOM     26  C   UNL     1      -4.316 -11.222  17.183  0.00  0.00    +0.024 A 
ATOM     27  C   UNL     1      -4.446 -10.697  14.837  0.00  0.00    -0.017 A 
ATOM     28  C   UNL     1      -3.686 -11.001  15.959  0.00  0.00    +0.010 A 
ATOM     37  H   UNL     1      -5.570 -11.376  19.354  0.00  0.00    +0.155 HD
ENDROOT
BRANCH  18  11
ATOM      9  N   UNL     1     -14.999 -12.092  21.807  0.00  0.00    -0.316 NA
ATOM     11  C   UNL     1     -12.309 -12.263  20.679  0.00  0.00    +0.078 C 
ATOM     16  C   UNL     1     -12.676 -12.909  22.016  0.00  0.00    +0.028 C 
ATOM     17  C   UNL     1     -13.552 -12.104  19.804  0.00  0.00    +0.028 C 
ATOM     19  C   UNL     1     -13.834 -12.174  22.688  0.00  0.00    +0.081 C 
ATOM     20  C   UNL     1     -14.678 -11.400  20.559  0.00  0.00    +0.081 C 
ATOM     36  H   UNL     1     -15.316 -13.037  21.587  0.00  0.00    +0.122 HD
ENDBRANCH  18  11
BRANCH  27  29
ATOM     29  C   UNL     1      -3.800 -10.472  13.562  0.00  0.00    -0.017 A 
ATOM     30  C   UNL     1      -4.520  -9.923  12.502  0.00  0.00    +0.021 A 
ATOM     31  C   UNL     1      -2.455 -10.806  13.394  0.00  0.00    +0.008 A 
ATOM     32  C   UNL     1      -3.896  -9.708  11.272  0.00  0.00    +0.055 A 
ATOM     33  C   UNL     1      -1.832 -10.591  12.165  0.00  0.00    +0.001 A 
ATOM     34  C   UNL     1      -2.552 -10.042  11.104  0.00  0.00    +0.012 A 
BRANCH  32  35
ATOM      1  F   UNL     1      -5.248  -7.922  10.433  0.00  0.00    -0.166 F 
ATOM      2  F   UNL     1      -3.904  -8.882   9.027  0.00  0.00    -0.166 F 
ATOM      3  F   UNL     1      -5.681  -9.929   9.717  0.00  0.00    -0.166 F 
ATOM     35  C   UNL     1      -4.665  -9.121  10.137  0.00  0.00    +0.417 C 
ENDBRANCH  32  35
ENDBRANCH  27  29
TORSDOF 3
ENDMDL
MODEL 9
REMARK VINA RESULT:      -7.2     30.438     32.928
REMARK  Name = 11884253
REMARK  3 active torsions:
REMARK  status: ('A' for Active; 'I' for Inactive)
REMARK    1  A    between atoms: C_11  and  C_18
REMARK    2  A    between atoms: C_27  and  C_29
REMARK    3  A    between atoms: C_32  and  C_35
REMARK                            x       y       z     vdW  Elec       q    Type
REMARK                         _______ _______ _______ _____ _____    ______ ____
ROOT
ATOM      4  O   UNL     1      12.912  10.929  19.866  0.00  0.00    -0.275 OA
ATOM      5  O   UNL     1      14.789   7.668  21.151  0.00  0.00    -0.273 OA
ATOM      6  O   UNL     1      19.485   9.492  22.749  0.00  0.00    -0.270 OA
ATOM      7  N   UNL     1      14.827  10.663  21.163  0.00  0.00    -0.298 N 
ATOM      8  N   UNL     1      17.461   9.537  21.632  0.00  0.00    -0.283 N 
ATOM     10  N   UNL     1      16.844   6.689  21.118  0.00  0.00    -0.283 N 
ATOM     12  C   UNL     1      16.648   9.073  20.516  0.00  0.00    +0.180 C 
ATOM     13  C   UNL     1      15.619  10.114  20.060  0.00  0.00    +0.139 C 
ATOM     14  C   UNL     1      15.499  10.801  22.458  0.00  0.00    +0.127 C 
ATOM     15  C   UNL     1      17.014  10.743  22.332  0.00  0.00    +0.128 C 
ATOM     18  C   UNL     1      13.497  11.034  20.940  0.00  0.00    +0.219 C 
ATOM     21  C   UNL     1      16.006   7.775  20.983  0.00  0.00    +0.239 C 
ATOM     22  C   UNL     1      18.704   8.993  21.937  0.00  0.00    +0.249 C 
ATOM     23  C   UNL     1      19.117   7.725  21.278  0.00  0.00    +0.059 A 
ATOM     24  C   UNL     1      18.250   6.654  21.011  0.00  0.00    +0.046 A 
ATOM     25  C   UNL     1      20.501   7.555  21.088  0.00  0.00    +0.023 A 
ATOM     26  C   UNL     1      18.796   5.415  20.628  0.00  0.00    +0.024 A 
ATOM     27  C   UNL     1      21.021   6.334  20.660  0.00  0.00    -0.017 A 
ATOM     28  C   UNL     1      20.169   5.260  20.443  0.00  0.00    +0.010 A 
ATOM     37  H   UNL     1      16.381   5.789  21.211  0.00  0.00    +0.155 HD
ENDROOT
BRANCH  18  11
ATOM      9  N   UNL     1      10.168  12.236  23.323  0.00  0.00    -0.316 NA
ATOM     11  C   UNL     1      12.749  11.617  22.100  0.00  0.00    +0.078 C 
ATOM     16  C   UNL     1      11.879  10.545  22.759  0.00  0.00    +0.028 C 
ATOM     17  C   UNL     1      11.887  12.793  21.638  0.00  0.00    +0.028 C 
ATOM     19  C   UNL     1      10.989  11.144  23.846  0.00  0.00    +0.081 C 
ATOM     20  C   UNL     1      10.995  13.306  22.766  0.00  0.00    +0.081 C 
ATOM     36  H   UNL     1       9.561  11.872  22.588  0.00  0.00    +0.122 HD
ENDBRANCH  18  11
BRANCH  27  29
ATOM     29  C   UNL     1      22.447   6.182  20.465  0.00  0.00    -0.017 A 
ATOM     30  C   UNL     1      22.993   4.913  20.276  0.00  0.00    +0.021 A 
ATOM     31  C   UNL     1      23.274   7.305  20.465  0.00  0.00    +0.008 A 
ATOM     32  C   UNL     1      24.368   4.766  20.089  0.00  0.00    +0.055 A 
ATOM     33  C   UNL     1      24.648   7.158  20.278  0.00  0.00    +0.001 A 
ATOM     34  C   UNL     1      25.196   5.889  20.089  0.00  0.00    +0.012 A 
BRANCH  32  35
ATOM      1  F   UNL     1      25.436   3.203  18.626  0.00  0.00    -0.166 F 
ATOM      2  F   UNL     1      26.004   3.139  20.718  0.00  0.00    -0.166 F 
ATOM      3  F   UNL     1      24.050   2.410  20.102  0.00  0.00    -0.166 F 
ATOM     35  C   UNL     1      24.954   3.409  19.887  0.00  0.00    +0.417 C 
ENDBRANCH  32  35
ENDBRANCH  27  29
TORSDOF 3
ENDMDL
MODEL 10
REMARK VINA RESULT:      -7.1     29.406     33.974
REMARK  Name = 11884253
REMARK  3 active torsions:
REMARK  status: ('A' for Active; 'I' for Inactive)
REMARK    1  A    between atoms: C_11  and  C_18
REMARK    2  A    between atoms: C_27  and  C_29
REMARK    3  A    between atoms: C_32  and  C_35
REMARK                            x       y       z     vdW  Elec       q    Type
REMARK                         _______ _______ _______ _____ _____    ______ ____
ROOT
ATOM      4  O   UNL     1      24.858   5.332  21.252  0.00  0.00    -0.275 OA
ATOM      5  O   UNL     1      21.751   6.983  23.103  0.00  0.00    -0.273 OA
ATOM      6  O   UNL     1      17.619   5.477  20.171  0.00  0.00    -0.270 OA
ATOM      7  N   UNL     1      22.569   4.946  21.066  0.00  0.00    -0.298 N 
ATOM      8  N   UNL     1      19.847   5.865  20.657  0.00  0.00    -0.283 N 
ATOM     10  N   UNL     1      19.792   8.051  22.649  0.00  0.00    -0.283 N 
ATOM     12  C   UNL     1      20.930   6.823  20.838  0.00  0.00    +0.180 C 
ATOM     13  C   UNL     1      22.299   6.249  20.454  0.00  0.00    +0.139 C 
ATOM     14  C   UNL     1      21.422   4.058  21.271  0.00  0.00    +0.127 C 
ATOM     15  C   UNL     1      20.218   4.467  20.435  0.00  0.00    +0.128 C 
ATOM     18  C   UNL     1      23.881   4.606  21.413  0.00  0.00    +0.219 C 
ATOM     21  C   UNL     1      20.860   7.255  22.295  0.00  0.00    +0.239 C 
ATOM     22  C   UNL     1      18.517   6.249  20.514  0.00  0.00    +0.249 C 
ATOM     23  C   UNL     1      18.137   7.654  20.815  0.00  0.00    +0.059 A 
ATOM     24  C   UNL     1      18.676   8.412  21.867  0.00  0.00    +0.046 A 
ATOM     25  C   UNL     1      17.040   8.161  20.093  0.00  0.00    +0.023 A 
ATOM     26  C   UNL     1      18.058   9.626  22.217  0.00  0.00    +0.024 A 
ATOM     27  C   UNL     1      16.471   9.390  20.423  0.00  0.00    -0.017 A 
ATOM     28  C   UNL     1      16.973  10.117  21.495  0.00  0.00    +0.010 A 
ATOM     37  H   UNL     1      19.872   8.512  23.553  0.00  0.00    +0.155 HD
ENDROOT
BRANCH  18  11
ATOM      9  N   UNL     1      25.898   0.983  22.418  0.00  0.00    -0.316 NA
ATOM     11  C   UNL     1      24.098   3.248  22.009  0.00  0.00    +0.078 C 
ATOM     16  C   UNL     1      25.249   3.291  23.015  0.00  0.00    +0.028 C 
ATOM     17  C   UNL     1      24.390   2.228  20.907  0.00  0.00    +0.028 C 
ATOM     19  C   UNL     1      25.594   1.893  23.523  0.00  0.00    +0.081 C 
ATOM     20  C   UNL     1      24.769   0.870  21.494  0.00  0.00    +0.081 C 
ATOM     36  H   UNL     1      26.707   1.338  21.909  0.00  0.00    +0.122 HD
ENDBRANCH  18  11
BRANCH  27  29
ATOM     29  C   UNL     1      15.347   9.897  19.664  0.00  0.00    -0.017 A 
ATOM     30  C   UNL     1      14.291   9.049  19.332  0.00  0.00    +0.021 A 
ATOM     31  C   UNL     1      15.321  11.233  19.266  0.00  0.00    +0.008 A 
ATOM     32  C   UNL     1      13.208   9.538  18.599  0.00  0.00    +0.055 A 
ATOM     33  C   UNL     1      14.240  11.722  18.534  0.00  0.00    +0.001 A 
ATOM     34  C   UNL     1      13.183  10.875  18.201  0.00  0.00    +0.012 A 
BRANCH  32  35
ATOM      1  F   UNL     1      12.443   7.323  18.120  0.00  0.00    -0.166 F 
ATOM      2  F   UNL     1      11.066   8.635  19.162  0.00  0.00    -0.166 F 
ATOM      3  F   UNL     1      11.495   8.964  17.055  0.00  0.00    -0.166 F 
ATOM     35  C   UNL     1      12.078   8.633  18.243  0.00  0.00    +0.417 C 
ENDBRANCH  32  35
ENDBRANCH  27  29
TORSDOF 3
ENDMDL
