MODEL 1
REMARK VINA RESULT:      -6.8      0.000      0.000
REMARK  Name = 26745439
REMARK  5 active torsions:
REMARK  status: ('A' for Active; 'I' for Inactive)
REMARK    1  A    between atoms: N_4  and  C_13
REMARK    2  A    between atoms: N_7  and  C_17
REMARK    3  A    between atoms: C_8  and  C_14
REMARK    4  A    between atoms: C_13  and  C_15
REMARK    5  A    between atoms: C_17  and  C_19
REMARK                            x       y       z     vdW  Elec       q    Type
REMARK                         _______ _______ _______ _____ _____    ______ ____
ROOT
ATOM      4  N   UNL     1      15.899   7.748  20.697  0.00  0.00    -0.281 NA
ATOM      5  N   UNL     1      12.507   6.815  21.934  0.00  0.00    -0.347 N 
ATOM      6  N   UNL     1      12.004   6.622  19.764  0.00  0.00    -0.240 NA
ATOM      8  C   UNL     1      15.428   8.259  19.386  0.00  0.00    +0.150 C 
ATOM      9  C   UNL     1      14.207   7.474  18.828  0.00  0.00    +0.085 C 
ATOM     10  C   UNL     1      14.881   7.763  21.773  0.00  0.00    +0.140 C 
ATOM     11  C   UNL     1      13.601   7.243  21.245  0.00  0.00    +0.053 A 
ATOM     12  C   UNL     1      13.267   7.119  19.919  0.00  0.00    +0.065 A 
ATOM     16  C   UNL     1      11.571   6.451  20.997  0.00  0.00    +0.197 A 
ATOM     27  H   UNL     1      12.398   6.776  22.939  0.00  0.00    +0.167 HD
ENDROOT
BRANCH   8  14
ATOM      3  O   UNL     1      15.913  10.538  19.922  0.00  0.00    -0.274 OA
ATOM      7  N   UNL     1      13.817  10.006  19.060  0.00  0.00    -0.310 N 
ATOM     14  C   UNL     1      15.104   9.724  19.486  0.00  0.00    +0.231 C 
ATOM     28  H   UNL     1      13.223   9.255  18.721  0.00  0.00    +0.149 HD
BRANCH   7  17
ATOM     17  C   UNL     1      13.253  11.337  19.078  0.00  0.00    +0.139 C 
BRANCH  17  19
ATOM      1 CL   UNL     1      10.410  12.499  24.246  0.00  0.00    -0.084 Cl
ATOM     19  C   UNL     1      12.542  11.628  20.368  0.00  0.00    -0.030 A 
ATOM     22  C   UNL     1      11.913  10.596  21.065  0.00  0.00    +0.006 A 
ATOM     23  C   UNL     1      12.513  12.929  20.870  0.00  0.00    +0.006 A 
ATOM     24  C   UNL     1      11.253  10.866  22.264  0.00  0.00    +0.020 A 
ATOM     25  C   UNL     1      11.852  13.199  22.068  0.00  0.00    +0.020 A 
ATOM     26  C   UNL     1      11.222  12.167  22.766  0.00  0.00    +0.041 A 
ENDBRANCH  17  19
ENDBRANCH   7  17
ENDBRANCH   8  14
BRANCH   4  13
ATOM     13  C   UNL     1      17.151   8.354  21.140  0.00  0.00    +0.128 C 
BRANCH  13  15
ATOM      2  S   UNL     1      19.849   7.874  21.589  0.00  0.00    -0.100 S 
ATOM     15  C   UNL     1      18.317   7.425  20.970  0.00  0.00    +0.004 A 
ATOM     18  C   UNL     1      18.350   6.192  20.356  0.00  0.00    +0.012 A 
ATOM     20  C   UNL     1      19.649   5.608  20.395  0.00  0.00    +0.008 A 
ATOM     21  C   UNL     1      20.561   6.417  21.037  0.00  0.00    +0.045 A 
ENDBRANCH  13  15
ENDBRANCH   4  13
TORSDOF 5
ENDMDL
MODEL 2
REMARK VINA RESULT:      -6.8      3.407      4.572
REMARK  Name = 26745439
REMARK  5 active torsions:
REMARK  status: ('A' for Active; 'I' for Inactive)
REMARK    1  A    between atoms: N_4  and  C_13
REMARK    2  A    between atoms: N_7  and  C_17
REMARK    3  A    between atoms: C_8  and  C_14
REMARK    4  A    between atoms: C_13  and  C_15
REMARK    5  A    between atoms: C_17  and  C_19
REMARK                            x       y       z     vdW  Elec       q    Type
REMARK                         _______ _______ _______ _____ _____    ______ ____
ROOT
ATOM      4  N   UNL     1      14.301   7.761  20.206  0.00  0.00    -0.281 NA
ATOM      5  N   UNL     1      11.783   9.164  22.573  0.00  0.00    -0.347 N 
ATOM      6  N   UNL     1      10.592   7.347  22.044  0.00  0.00    -0.240 NA
ATOM      8  C   UNL     1      13.316   7.000  19.398  0.00  0.00    +0.150 C 
ATOM      9  C   UNL     1      12.136   6.440  20.242  0.00  0.00    +0.085 C 
ATOM     10  C   UNL     1      13.741   8.920  20.939  0.00  0.00    +0.140 C 
ATOM     11  C   UNL     1      12.470   8.526  21.586  0.00  0.00    +0.053 A 
ATOM     12  C   UNL     1      11.719   7.418  21.276  0.00  0.00    +0.065 A 
ATOM     16  C   UNL     1      10.658   8.415  22.814  0.00  0.00    +0.197 A 
ATOM     27  H   UNL     1      12.043  10.024  23.037  0.00  0.00    +0.167 HD
ENDROOT
BRANCH   8  14
ATOM      3  O   UNL     1      11.620   8.209  18.225  0.00  0.00    -0.274 OA
ATOM      7  N   UNL     1      13.773   8.150  17.342  0.00  0.00    -0.310 N 
ATOM     14  C   UNL     1      12.794   7.854  18.276  0.00  0.00    +0.231 C 
ATOM     28  H   UNL     1      14.717   7.801  17.477  0.00  0.00    +0.149 HD
BRANCH   7  17
ATOM     17  C   UNL     1      13.522   8.937  16.156  0.00  0.00    +0.139 C 
BRANCH  17  19
ATOM      1 CL   UNL     1      17.323  13.572  15.696  0.00  0.00    -0.084 Cl
ATOM     19  C   UNL     1      14.471  10.094  16.040  0.00  0.00    -0.030 A 
ATOM     22  C   UNL     1      14.636  10.970  17.114  0.00  0.00    +0.006 A 
ATOM     23  C   UNL     1      15.187  10.294  14.860  0.00  0.00    +0.006 A 
ATOM     24  C   UNL     1      15.518  12.045  17.007  0.00  0.00    +0.020 A 
ATOM     25  C   UNL     1      16.068  11.370  14.753  0.00  0.00    +0.020 A 
ATOM     26  C   UNL     1      16.234  12.246  15.827  0.00  0.00    +0.041 A 
ENDBRANCH  17  19
ENDBRANCH   7  17
ENDBRANCH   8  14
BRANCH   4  13
ATOM     13  C   UNL     1      15.500   8.132  19.460  0.00  0.00    +0.128 C 
BRANCH  13  15
ATOM      2  S   UNL     1      17.559   8.119  21.325  0.00  0.00    -0.100 S 
ATOM     15  C   UNL     1      16.726   7.446  19.989  0.00  0.00    +0.004 A 
ATOM     18  C   UNL     1      17.322   6.288  19.538  0.00  0.00    +0.012 A 
ATOM     20  C   UNL     1      18.477   5.949  20.301  0.00  0.00    +0.008 A 
ATOM     21  C   UNL     1      18.721   6.861  21.305  0.00  0.00    +0.045 A 
ENDBRANCH  13  15
ENDBRANCH   4  13
TORSDOF 5
ENDMDL
MODEL 3
REMARK VINA RESULT:      -6.3      3.339      6.600
REMARK  Name = 26745439
REMARK  5 active torsions:
REMARK  status: ('A' for Active; 'I' for Inactive)
REMARK    1  A    between atoms: N_4  and  C_13
REMARK    2  A    between atoms: N_7  and  C_17
REMARK    3  A    between atoms: C_8  and  C_14
REMARK    4  A    between atoms: C_13  and  C_15
REMARK    5  A    between atoms: C_17  and  C_19
REMARK                            x       y       z     vdW  Elec       q    Type
REMARK                         _______ _______ _______ _____ _____    ______ ____
ROOT
ATOM      4  N   UNL     1      13.052   8.947  20.210  0.00  0.00    -0.281 NA
ATOM      5  N   UNL     1      13.336  10.503  16.832  0.00  0.00    -0.347 N 
ATOM      6  N   UNL     1      12.381   8.611  16.118  0.00  0.00    -0.240 NA
ATOM      8  C   UNL     1      13.069   7.548  19.715  0.00  0.00    +0.150 C 
ATOM      9  C   UNL     1      12.364   7.379  18.339  0.00  0.00    +0.085 C 
ATOM     10  C   UNL     1      13.685   9.935  19.305  0.00  0.00    +0.140 C 
ATOM     11  C   UNL     1      13.241   9.685  17.916  0.00  0.00    +0.053 A 
ATOM     12  C   UNL     1      12.657   8.531  17.453  0.00  0.00    +0.065 A 
ATOM     16  C   UNL     1      12.803   9.811  15.771  0.00  0.00    +0.197 A 
ATOM     27  H   UNL     1      13.724  11.436  16.806  0.00  0.00    +0.167 HD
ENDROOT
BRANCH   8  14
ATOM      3  O   UNL     1      15.094   6.979  18.579  0.00  0.00    -0.274 OA
ATOM      7  N   UNL     1      14.964   6.650  20.880  0.00  0.00    -0.310 N 
ATOM     14  C   UNL     1      14.483   7.041  19.642  0.00  0.00    +0.231 C 
ATOM     28  H   UNL     1      14.372   6.738  21.700  0.00  0.00    +0.149 HD
BRANCH   7  17
ATOM     17  C   UNL     1      16.288   6.105  21.077  0.00  0.00    +0.139 C 
BRANCH  17  19
ATOM      1 CL   UNL     1      20.433  10.422  21.644  0.00  0.00    -0.084 Cl
ATOM     19  C   UNL     1      17.324   7.182  21.218  0.00  0.00    -0.030 A 
ATOM     22  C   UNL     1      16.929   8.502  21.441  0.00  0.00    +0.006 A 
ATOM     23  C   UNL     1      18.678   6.864  21.126  0.00  0.00    +0.006 A 
ATOM     24  C   UNL     1      17.891   9.504  21.572  0.00  0.00    +0.020 A 
ATOM     25  C   UNL     1      19.639   7.866  21.256  0.00  0.00    +0.020 A 
ATOM     26  C   UNL     1      19.246   9.186  21.480  0.00  0.00    +0.041 A 
ENDBRANCH  17  19
ENDBRANCH   7  17
ENDBRANCH   8  14
BRANCH   4  13
ATOM     13  C   UNL     1      13.545   9.085  21.576  0.00  0.00    +0.128 C 
BRANCH  13  15
ATOM      2  S   UNL     1      11.037   9.625  22.641  0.00  0.00    -0.100 S 
ATOM     15  C   UNL     1      12.687  10.007  22.393  0.00  0.00    +0.004 A 
ATOM     18  C   UNL     1      13.043  11.186  23.012  0.00  0.00    +0.012 A 
ATOM     20  C   UNL     1      11.946  11.782  23.700  0.00  0.00    +0.008 A 
ATOM     21  C   UNL     1      10.793  11.037  23.580  0.00  0.00    +0.045 A 
ENDBRANCH  13  15
ENDBRANCH   4  13
TORSDOF 5
ENDMDL
MODEL 4
REMARK VINA RESULT:      -6.0     16.876     19.270
REMARK  Name = 26745439
REMARK  5 active torsions:
REMARK  status: ('A' for Active; 'I' for Inactive)
REMARK    1  A    between atoms: N_4  and  C_13
REMARK    2  A    between atoms: N_7  and  C_17
REMARK    3  A    between atoms: C_8  and  C_14
REMARK    4  A    between atoms: C_13  and  C_15
REMARK    5  A    between atoms: C_17  and  C_19
REMARK                            x       y       z     vdW  Elec       q    Type
REMARK                         _______ _______ _______ _____ _____    ______ ____
ROOT
ATOM      4  N   UNL     1       9.474   7.043   4.840  0.00  0.00    -0.281 NA
ATOM      5  N   UNL     1       9.062   5.564   8.239  0.00  0.00    -0.347 N 
ATOM      6  N   UNL     1      11.288   5.744   8.352  0.00  0.00    -0.240 NA
ATOM      8  C   UNL     1      10.863   6.556   4.650  0.00  0.00    +0.150 C 
ATOM      9  C   UNL     1      11.686   6.529   5.969  0.00  0.00    +0.085 C 
ATOM     10  C   UNL     1       8.668   6.260   5.806  0.00  0.00    +0.140 C 
ATOM     11  C   UNL     1       9.477   5.985   7.013  0.00  0.00    +0.053 A 
ATOM     12  C   UNL     1      10.844   6.083   7.105  0.00  0.00    +0.065 A 
ATOM     16  C   UNL     1      10.189   5.434   9.012  0.00  0.00    +0.197 A 
ATOM     27  H   UNL     1       8.111   5.379   8.529  0.00  0.00    +0.167 HD
ENDROOT
BRANCH   8  14
ATOM      3  O   UNL     1      10.134   4.290   4.431  0.00  0.00    -0.274 OA
ATOM      7  N   UNL     1      11.744   5.101   2.959  0.00  0.00    -0.310 N 
ATOM     14  C   UNL     1      10.853   5.193   4.014  0.00  0.00    +0.231 C 
ATOM     28  H   UNL     1      12.299   5.910   2.696  0.00  0.00    +0.149 HD
BRANCH   7  17
ATOM     17  C   UNL     1      11.943   3.889   2.196  0.00  0.00    +0.139 C 
BRANCH  17  19
ATOM      1 CL   UNL     1      16.713   4.282  -1.442  0.00  0.00    -0.084 Cl
ATOM     19  C   UNL     1      13.135   3.986   1.288  0.00  0.00    -0.030 A 
ATOM     22  C   UNL     1      12.986   4.492  -0.004  0.00  0.00    +0.006 A 
ATOM     23  C   UNL     1      14.388   3.573   1.736  0.00  0.00    +0.006 A 
ATOM     24  C   UNL     1      14.093   4.582  -0.848  0.00  0.00    +0.020 A 
ATOM     25  C   UNL     1      15.495   3.663   0.892  0.00  0.00    +0.020 A 
ATOM     26  C   UNL     1      15.347   4.168  -0.401  0.00  0.00    +0.041 A 
ENDBRANCH  17  19
ENDBRANCH   7  17
ENDBRANCH   8  14
BRANCH   4  13
ATOM     13  C   UNL     1       8.753   7.245   3.587  0.00  0.00    +0.128 C 
BRANCH  13  15
ATOM      2  S   UNL     1       7.633   9.273   2.055  0.00  0.00    -0.100 S 
ATOM     15  C   UNL     1       8.030   8.560   3.560  0.00  0.00    +0.004 A 
ATOM     18  C   UNL     1       7.611   9.330   4.623  0.00  0.00    +0.012 A 
ATOM     20  C   UNL     1       6.954  10.521   4.196  0.00  0.00    +0.008 A 
ATOM     21  C   UNL     1       6.897  10.616   2.822  0.00  0.00    +0.045 A 
ENDBRANCH  13  15
ENDBRANCH   4  13
TORSDOF 5
ENDMDL
MODEL 5
REMARK VINA RESULT:      -6.0     23.787     26.152
REMARK  Name = 26745439
REMARK  5 active torsions:
REMARK  status: ('A' for Active; 'I' for Inactive)
REMARK    1  A    between atoms: N_4  and  C_13
REMARK    2  A    between atoms: N_7  and  C_17
REMARK    3  A    between atoms: C_8  and  C_14
REMARK    4  A    between atoms: C_13  and  C_15
REMARK    5  A    between atoms: C_17  and  C_19
REMARK                            x       y       z     vdW  Elec       q    Type
REMARK                         _______ _______ _______ _____ _____    ______ ____
ROOT
ATOM      4  N   UNL     1     -11.923   8.622  19.342  0.00  0.00    -0.281 NA
ATOM      5  N   UNL     1     -12.770   8.322  15.723  0.00  0.00    -0.347 N 
ATOM      6  N   UNL     1     -10.572   8.587  15.408  0.00  0.00    -0.240 NA
ATOM      8  C   UNL     1     -10.693   9.424  19.127  0.00  0.00    +0.150 C 
ATOM      9  C   UNL     1      -9.934   9.039  17.824  0.00  0.00    +0.085 C 
ATOM     10  C   UNL     1     -12.921   8.707  18.251  0.00  0.00    +0.140 C 
ATOM     11  C   UNL     1     -12.234   8.585  16.946  0.00  0.00    +0.053 A 
ATOM     12  C   UNL     1     -10.888   8.748  16.727  0.00  0.00    +0.065 A 
ATOM     16  C   UNL     1     -11.729   8.333  14.828  0.00  0.00    +0.197 A 
ATOM     27  H   UNL     1     -13.744   8.155  15.509  0.00  0.00    +0.167 HD
ENDROOT
BRANCH   8  14
ATOM      3  O   UNL     1     -11.782  11.386  19.951  0.00  0.00    -0.274 OA
ATOM      7  N   UNL     1     -10.403  11.565  18.085  0.00  0.00    -0.310 N 
ATOM     14  C   UNL     1     -11.025  10.891  19.122  0.00  0.00    +0.231 C 
ATOM     28  H   UNL     1      -9.796  11.058  17.447  0.00  0.00    +0.149 HD
BRANCH   7  17
ATOM     17  C   UNL     1     -10.576  12.980  17.845  0.00  0.00    +0.139 C 
BRANCH  17  19
ATOM      1 CL   UNL     1      -5.538  15.544  15.799  0.00  0.00    -0.084 Cl
ATOM     19  C   UNL     1      -9.318  13.621  17.335  0.00  0.00    -0.030 A 
ATOM     22  C   UNL     1      -8.369  12.852  16.661  0.00  0.00    +0.006 A 
ATOM     23  C   UNL     1      -9.099  14.983  17.535  0.00  0.00    +0.006 A 
ATOM     24  C   UNL     1      -7.200  13.447  16.186  0.00  0.00    +0.020 A 
ATOM     25  C   UNL     1      -7.930  15.578  17.061  0.00  0.00    +0.020 A 
ATOM     26  C   UNL     1      -6.980  14.810  16.386  0.00  0.00    +0.041 A 
ENDBRANCH  17  19
ENDBRANCH   7  17
ENDBRANCH   8  14
BRANCH   4  13
ATOM     13  C   UNL     1     -12.540   8.846  20.646  0.00  0.00    +0.128 C 
BRANCH  13  15
ATOM      2  S   UNL     1     -14.629   7.566  21.955  0.00  0.00    -0.100 S 
ATOM     15  C   UNL     1     -13.072   7.575  21.243  0.00  0.00    +0.004 A 
ATOM     18  C   UNL     1     -12.465   6.340  21.311  0.00  0.00    +0.012 A 
ATOM     20  C   UNL     1     -13.290   5.373  21.956  0.00  0.00    +0.008 A 
ATOM     21  C   UNL     1     -14.496   5.907  22.357  0.00  0.00    +0.045 A 
ENDBRANCH  13  15
ENDBRANCH   4  13
TORSDOF 5
ENDMDL
MODEL 6
REMARK VINA RESULT:      -5.9     27.814     29.089
REMARK  Name = 26745439
REMARK  5 active torsions:
REMARK  status: ('A' for Active; 'I' for Inactive)
REMARK    1  A    between atoms: N_4  and  C_13
REMARK    2  A    between atoms: N_7  and  C_17
REMARK    3  A    between atoms: C_8  and  C_14
REMARK    4  A    between atoms: C_13  and  C_15
REMARK    5  A    between atoms: C_17  and  C_19
REMARK                            x       y       z     vdW  Elec       q    Type
REMARK                         _______ _______ _______ _____ _____    ______ ____
ROOT
ATOM      4  N   UNL     1      -2.746 -12.264  12.627  0.00  0.00    -0.281 NA
ATOM      5  N   UNL     1      -1.931 -15.331  14.585  0.00  0.00    -0.347 N 
ATOM      6  N   UNL     1      -4.134 -15.415  14.962  0.00  0.00    -0.240 NA
ATOM      8  C   UNL     1      -3.984 -11.947  13.383  0.00  0.00    +0.150 C 
ATOM      9  C   UNL     1      -4.752 -13.215  13.854  0.00  0.00    +0.085 C 
ATOM     10  C   UNL     1      -1.760 -13.085  13.365  0.00  0.00    +0.140 C 
ATOM     11  C   UNL     1      -2.458 -14.196  14.049  0.00  0.00    +0.053 A 
ATOM     12  C   UNL     1      -3.807 -14.268  14.296  0.00  0.00    +0.065 A 
ATOM     16  C   UNL     1      -2.981 -16.034  15.123  0.00  0.00    +0.197 A 
ATOM     27  H   UNL     1      -0.958 -15.606  14.592  0.00  0.00    +0.167 HD
ENDROOT
BRANCH   8  14
ATOM      3  O   UNL     1      -2.653 -10.368  14.588  0.00  0.00    -0.274 OA
ATOM      7  N   UNL     1      -4.610 -11.166  15.563  0.00  0.00    -0.310 N 
ATOM     14  C   UNL     1      -3.663 -11.066  14.558  0.00  0.00    +0.231 C 
ATOM     28  H   UNL     1      -5.411 -11.779  15.440  0.00  0.00    +0.149 HD
BRANCH   7  17
ATOM     17  C   UNL     1      -4.522 -10.438  16.808  0.00  0.00    +0.139 C 
BRANCH  17  19
ATOM      1 CL   UNL     1      -9.588 -10.845  20.020  0.00  0.00    -0.084 Cl
ATOM     19  C   UNL     1      -5.788 -10.540  17.609  0.00  0.00    -0.030 A 
ATOM     22  C   UNL     1      -5.770 -11.150  18.865  0.00  0.00    +0.006 A 
ATOM     23  C   UNL     1      -6.979 -10.026  17.100  0.00  0.00    +0.006 A 
ATOM     24  C   UNL     1      -6.946 -11.244  19.609  0.00  0.00    +0.020 A 
ATOM     25  C   UNL     1      -8.154 -10.121  17.844  0.00  0.00    +0.020 A 
ATOM     26  C   UNL     1      -8.138 -10.730  19.100  0.00  0.00    +0.041 A 
ENDBRANCH  17  19
ENDBRANCH   7  17
ENDBRANCH   8  14
BRANCH   4  13
ATOM     13  C   UNL     1      -2.119 -11.092  12.025  0.00  0.00    +0.128 C 
BRANCH  13  15
ATOM      2  S   UNL     1      -3.915 -11.594   9.967  0.00  0.00    -0.100 S 
ATOM     15  C   UNL     1      -2.930 -10.540  10.889  0.00  0.00    +0.004 A 
ATOM     18  C   UNL     1      -3.010  -9.238  10.445  0.00  0.00    +0.012 A 
ATOM     20  C   UNL     1      -3.892  -9.104   9.334  0.00  0.00    +0.008 A 
ATOM     21  C   UNL     1      -4.453 -10.309   8.970  0.00  0.00    +0.045 A 
ENDBRANCH  13  15
ENDBRANCH   4  13
TORSDOF 5
ENDMDL
MODEL 7
REMARK VINA RESULT:      -5.9     16.406     17.867
REMARK  Name = 26745439
REMARK  5 active torsions:
REMARK  status: ('A' for Active; 'I' for Inactive)
REMARK    1  A    between atoms: N_4  and  C_13
REMARK    2  A    between atoms: N_7  and  C_17
REMARK    3  A    between atoms: C_8  and  C_14
REMARK    4  A    between atoms: C_13  and  C_15
REMARK    5  A    between atoms: C_17  and  C_19
REMARK                            x       y       z     vdW  Elec       q    Type
REMARK                         _______ _______ _______ _____ _____    ______ ____
ROOT
ATOM      4  N   UNL     1      10.387   5.924   4.223  0.00  0.00    -0.281 NA
ATOM      5  N   UNL     1      11.422   5.822   7.804  0.00  0.00    -0.347 N 
ATOM      6  N   UNL     1       9.233   5.613   8.208  0.00  0.00    -0.240 NA
ATOM      8  C   UNL     1       9.024   6.446   4.492  0.00  0.00    +0.150 C 
ATOM      9  C   UNL     1       8.417   5.911   5.821  0.00  0.00    +0.085 C 
ATOM     10  C   UNL     1      11.386   6.223   5.274  0.00  0.00    +0.140 C 
ATOM     11  C   UNL     1      10.794   5.961   6.605  0.00  0.00    +0.053 A 
ATOM     12  C   UNL     1       9.454   5.834   6.878  0.00  0.00    +0.065 A 
ATOM     16  C   UNL     1      10.439   5.614   8.740  0.00  0.00    +0.197 A 
ATOM     27  H   UNL     1      12.417   5.867   7.978  0.00  0.00    +0.167 HD
ENDROOT
BRANCH   8  14
ATOM      3  O   UNL     1      10.073   8.590   4.359  0.00  0.00    -0.274 OA
ATOM      7  N   UNL     1       7.770   8.482   4.679  0.00  0.00    -0.310 N 
ATOM     14  C   UNL     1       9.034   7.949   4.492  0.00  0.00    +0.231 C 
ATOM     28  H   UNL     1       6.973   7.862   4.784  0.00  0.00    +0.149 HD
BRANCH   7  17
ATOM     17  C   UNL     1       7.513   9.903   4.741  0.00  0.00    +0.139 C 
BRANCH  17  19
ATOM      1 CL   UNL     1       2.543  11.418   1.717  0.00  0.00    -0.084 Cl
ATOM     19  C   UNL     1       6.272  10.283   3.987  0.00  0.00    -0.030 A 
ATOM     22  C   UNL     1       6.013   9.711   2.740  0.00  0.00    +0.006 A 
ATOM     23  C   UNL     1       5.379  11.205   4.531  0.00  0.00    +0.006 A 
ATOM     24  C   UNL     1       4.860  10.063   2.038  0.00  0.00    +0.020 A 
ATOM     25  C   UNL     1       4.227  11.557   3.828  0.00  0.00    +0.020 A 
ATOM     26  C   UNL     1       3.967  10.986   2.582  0.00  0.00    +0.041 A 
ENDBRANCH  17  19
ENDBRANCH   7  17
ENDBRANCH   8  14
BRANCH   4  13
ATOM     13  C   UNL     1      10.889   6.271   2.897  0.00  0.00    +0.128 C 
BRANCH  13  15
ATOM      2  S   UNL     1      13.379   5.733   1.790  0.00  0.00    -0.100 S 
ATOM     15  C   UNL     1      11.845   5.240   2.370  0.00  0.00    +0.004 A 
ATOM     18  C   UNL     1      11.669   3.877   2.274  0.00  0.00    +0.012 A 
ATOM     20  C   UNL     1      12.809   3.228   1.718  0.00  0.00    +0.008 A 
ATOM     21  C   UNL     1      13.813   4.120   1.409  0.00  0.00    +0.045 A 
ENDBRANCH  13  15
ENDBRANCH   4  13
TORSDOF 5
ENDMDL
MODEL 8
REMARK VINA RESULT:      -5.9     27.329     29.020
REMARK  Name = 26745439
REMARK  5 active torsions:
REMARK  status: ('A' for Active; 'I' for Inactive)
REMARK    1  A    between atoms: N_4  and  C_13
REMARK    2  A    between atoms: N_7  and  C_17
REMARK    3  A    between atoms: C_8  and  C_14
REMARK    4  A    between atoms: C_13  and  C_15
REMARK    5  A    between atoms: C_17  and  C_19
REMARK                            x       y       z     vdW  Elec       q    Type
REMARK                         _______ _______ _______ _____ _____    ______ ____
ROOT
ATOM      4  N   UNL     1      -3.696 -11.892  15.626  0.00  0.00    -0.281 NA
ATOM      5  N   UNL     1      -5.845 -13.285  12.914  0.00  0.00    -0.347 N 
ATOM      6  N   UNL     1      -4.051 -14.528  12.427  0.00  0.00    -0.240 NA
ATOM      8  C   UNL     1      -2.412 -12.168  14.935  0.00  0.00    +0.150 C 
ATOM      9  C   UNL     1      -2.444 -13.471  14.086  0.00  0.00    +0.085 C 
ATOM     10  C   UNL     1      -4.869 -11.764  14.730  0.00  0.00    +0.140 C 
ATOM     11  C   UNL     1      -4.842 -12.851  13.726  0.00  0.00    +0.053 A 
ATOM     12  C   UNL     1      -3.753 -13.624  13.406  0.00  0.00    +0.065 A 
ATOM     16  C   UNL     1      -5.319 -14.297  12.150  0.00  0.00    +0.197 A 
ATOM     27  H   UNL     1      -6.792 -12.932  12.875  0.00  0.00    +0.167 HD
ENDROOT
BRANCH   8  14
ATOM      3  O   UNL     1      -1.672  -9.926  14.562  0.00  0.00    -0.274 OA
ATOM      7  N   UNL     1      -2.132 -11.278  12.725  0.00  0.00    -0.310 N 
ATOM     14  C   UNL     1      -2.022 -10.997  14.076  0.00  0.00    +0.231 C 
ATOM     28  H   UNL     1      -2.438 -12.200  12.426  0.00  0.00    +0.149 HD
BRANCH   7  17
ATOM     17  C   UNL     1      -1.839 -10.313  11.690  0.00  0.00    +0.139 C 
BRANCH  17  19
ATOM      1 CL   UNL     1      -6.242  -9.988   7.609  0.00  0.00    -0.084 Cl
ATOM     19  C   UNL     1      -2.938 -10.231  10.670  0.00  0.00    -0.030 A 
ATOM     22  C   UNL     1      -3.665 -11.374  10.338  0.00  0.00    +0.006 A 
ATOM     23  C   UNL     1      -3.231  -9.014  10.057  0.00  0.00    +0.006 A 
ATOM     24  C   UNL     1      -4.687 -11.299   9.391  0.00  0.00    +0.020 A 
ATOM     25  C   UNL     1      -4.251  -8.939   9.110  0.00  0.00    +0.020 A 
ATOM     26  C   UNL     1      -4.980 -10.081   8.776  0.00  0.00    +0.041 A 
ENDBRANCH  17  19
ENDBRANCH   7  17
ENDBRANCH   8  14
BRANCH   4  13
ATOM     13  C   UNL     1      -3.621 -10.778  16.566  0.00  0.00    +0.128 C 
BRANCH  13  15
ATOM      2  S   UNL     1      -4.238 -11.999  18.982  0.00  0.00    -0.100 S 
ATOM     15  C   UNL     1      -4.597 -10.928  17.696  0.00  0.00    +0.004 A 
ATOM     18  C   UNL     1      -5.812 -10.301  17.870  0.00  0.00    +0.012 A 
ATOM     20  C   UNL     1      -6.455 -10.704  19.075  0.00  0.00    +0.008 A 
ATOM     21  C   UNL     1      -5.708 -11.625  19.777  0.00  0.00    +0.045 A 
ENDBRANCH  13  15
ENDBRANCH   4  13
TORSDOF 5
ENDMDL
MODEL 9
REMARK VINA RESULT:      -5.9     14.733     16.277
REMARK  Name = 26745439
REMARK  5 active torsions:
REMARK  status: ('A' for Active; 'I' for Inactive)
REMARK    1  A    between atoms: N_4  and  C_13
REMARK    2  A    between atoms: N_7  and  C_17
REMARK    3  A    between atoms: C_8  and  C_14
REMARK    4  A    between atoms: C_13  and  C_15
REMARK    5  A    between atoms: C_17  and  C_19
REMARK                            x       y       z     vdW  Elec       q    Type
REMARK                         _______ _______ _______ _____ _____    ______ ____
ROOT
ATOM      4  N   UNL     1      10.416   5.975   3.893  0.00  0.00    -0.281 NA
ATOM      5  N   UNL     1      11.394   5.813   7.488  0.00  0.00    -0.347 N 
ATOM      6  N   UNL     1       9.195   5.944   7.870  0.00  0.00    -0.240 NA
ATOM      8  C   UNL     1       9.144   6.702   4.132  0.00  0.00    +0.150 C 
ATOM      9  C   UNL     1       8.453   6.299   5.466  0.00  0.00    +0.085 C 
ATOM     10  C   UNL     1      11.440   6.148   4.949  0.00  0.00    +0.140 C 
ATOM     11  C   UNL     1      10.804   6.013   6.278  0.00  0.00    +0.053 A 
ATOM     12  C   UNL     1       9.457   6.095   6.538  0.00  0.00    +0.065 A 
ATOM     16  C   UNL     1      10.383   5.778   8.416  0.00  0.00    +0.197 A 
ATOM     27  H   UNL     1      12.383   5.713   7.673  0.00  0.00    +0.167 HD
ENDROOT
BRANCH   8  14
ATOM      3  O   UNL     1      10.202   8.693   3.338  0.00  0.00    -0.274 OA
ATOM      7  N   UNL     1       8.593   8.865   5.011  0.00  0.00    -0.310 N 
ATOM     14  C   UNL     1       9.380   8.187   4.096  0.00  0.00    +0.231 C 
ATOM     28  H   UNL     1       7.944   8.348   5.597  0.00  0.00    +0.149 HD
BRANCH   7  17
ATOM     17  C   UNL     1       8.646  10.298   5.190  0.00  0.00    +0.139 C 
BRANCH  17  19
ATOM      1 CL   UNL     1      10.455  11.810  10.721  0.00  0.00    -0.084 Cl
ATOM     19  C   UNL     1       9.099  10.675   6.571  0.00  0.00    -0.030 A 
ATOM     22  C   UNL     1       9.026  12.004   6.990  0.00  0.00    +0.006 A 
ATOM     23  C   UNL     1       9.591   9.697   7.435  0.00  0.00    +0.006 A 
ATOM     24  C   UNL     1       9.446  12.355   8.273  0.00  0.00    +0.020 A 
ATOM     25  C   UNL     1      10.012  10.048   8.718  0.00  0.00    +0.020 A 
ATOM     26  C   UNL     1       9.939  11.377   9.137  0.00  0.00    +0.041 A 
ENDBRANCH  17  19
ENDBRANCH   7  17
ENDBRANCH   8  14
BRANCH   4  13
ATOM     13  C   UNL     1      10.976   6.209   2.565  0.00  0.00    +0.128 C 
BRANCH  13  15
ATOM      2  S   UNL     1      13.575   5.586   1.810  0.00  0.00    -0.100 S 
ATOM     15  C   UNL     1      11.961   5.146   2.175  0.00  0.00    +0.004 A 
ATOM     18  C   UNL     1      11.757   3.788   2.058  0.00  0.00    +0.012 A 
ATOM     20  C   UNL     1      12.941   3.100   1.664  0.00  0.00    +0.008 A 
ATOM     21  C   UNL     1      14.006   3.959   1.495  0.00  0.00    +0.045 A 
ENDBRANCH  13  15
ENDBRANCH   4  13
TORSDOF 5
ENDMDL
MODEL 10
REMARK VINA RESULT:      -5.8     25.950     28.199
REMARK  Name = 26745439
REMARK  5 active torsions:
REMARK  status: ('A' for Active; 'I' for Inactive)
REMARK    1  A    between atoms: N_4  and  C_13
REMARK    2  A    between atoms: N_7  and  C_17
REMARK    3  A    between atoms: C_8  and  C_14
REMARK    4  A    between atoms: C_13  and  C_15
REMARK    5  A    between atoms: C_17  and  C_19
REMARK                            x       y       z     vdW  Elec       q    Type
REMARK                         _______ _______ _______ _____ _____    ______ ____
ROOT
ATOM      4  N   UNL     1     -13.350   6.960  20.920  0.00  0.00    -0.281 NA
ATOM      5  N   UNL     1     -15.114   4.139  22.606  0.00  0.00    -0.347 N 
ATOM      6  N   UNL     1     -16.825   4.701  21.282  0.00  0.00    -0.240 NA
ATOM      8  C   UNL     1     -14.587   7.708  20.583  0.00  0.00    +0.150 C 
ATOM      9  C   UNL     1     -15.791   6.781  20.254  0.00  0.00    +0.085 C 
ATOM     10  C   UNL     1     -13.477   6.036  22.070  0.00  0.00    +0.140 C 
ATOM     11  C   UNL     1     -14.739   5.272  21.952  0.00  0.00    +0.053 A 
ATOM     12  C   UNL     1     -15.805   5.600  21.150  0.00  0.00    +0.065 A 
ATOM     16  C   UNL     1     -16.379   3.833  22.168  0.00  0.00    +0.197 A 
ATOM     27  H   UNL     1     -14.572   3.622  23.285  0.00  0.00    +0.167 HD
ENDROOT
BRANCH   8  14
ATOM      3  O   UNL     1     -15.733   8.333  22.586  0.00  0.00    -0.274 OA
ATOM      7  N   UNL     1     -14.307   9.873  21.578  0.00  0.00    -0.310 N 
ATOM     14  C   UNL     1     -14.944   8.650  21.699  0.00  0.00    +0.231 C 
ATOM     28  H   UNL     1     -13.675  10.036  20.801  0.00  0.00    +0.149 HD
BRANCH   7  17
ATOM     17  C   UNL     1     -14.500  10.960  22.511  0.00  0.00    +0.139 C 
BRANCH  17  19
ATOM      1 CL   UNL     1     -10.647  10.680  27.118  0.00  0.00    -0.084 Cl
ATOM     19  C   UNL     1     -13.538  10.889  23.662  0.00  0.00    -0.030 A 
ATOM     22  C   UNL     1     -12.227  11.340  23.502  0.00  0.00    +0.006 A 
ATOM     23  C   UNL     1     -13.955  10.374  24.889  0.00  0.00    +0.006 A 
ATOM     24  C   UNL     1     -11.333  11.274  24.571  0.00  0.00    +0.020 A 
ATOM     25  C   UNL     1     -13.061  10.308  25.957  0.00  0.00    +0.020 A 
ATOM     26  C   UNL     1     -11.750  10.759  25.799  0.00  0.00    +0.041 A 
ENDBRANCH  17  19
ENDBRANCH   7  17
ENDBRANCH   8  14
BRANCH   4  13
ATOM     13  C   UNL     1     -12.173   7.813  21.050  0.00  0.00    +0.128 C 
BRANCH  13  15
ATOM      2  S   UNL     1     -10.727   9.568  19.455  0.00  0.00    -0.100 S 
ATOM     15  C   UNL     1     -11.518   8.074  19.724  0.00  0.00    +0.004 A 
ATOM     18  C   UNL     1     -11.452   7.248  18.623  0.00  0.00    +0.012 A 
ATOM     20  C   UNL     1     -10.741   7.850  17.545  0.00  0.00    +0.008 A 
ATOM     21  C   UNL     1     -10.291   9.113  17.863  0.00  0.00    +0.045 A 
ENDBRANCH  13  15
ENDBRANCH   4  13
TORSDOF 5
ENDMDL
