REMARK  Name = 40533593
REMARK  7 active torsions:
REMARK  status: ('A' for Active; 'I' for Inactive)
REMARK    1  A    between atoms: O_3  and  C_30
REMARK    2  A    between atoms: O_3  and  C_31
REMARK    3  A    between atoms: N_4  and  C_11
REMARK    4  A    between atoms: N_4  and  C_15
REMARK    5  A    between atoms: N_5  and  C_12
REMARK    6  A    between atoms: C_15  and  C_17
REMARK    7  A    between atoms: C_19  and  C_23
REMARK                            x       y       z     vdW  Elec       q    Type
REMARK                         _______ _______ _______ _____ _____    ______ ____
ROOT
ATOM      1  O   UNL     1      -0.766   0.570   2.207  0.00  0.00    -0.370 OA
ATOM      2  O   UNL     1      -2.081   3.248   1.363  0.00  0.00    -0.370 OA
ATOM      9  C   UNL     1      -2.184   1.909   0.850  0.00  0.00    +0.168 C 
ATOM     10  C   UNL     1      -0.808   1.281   0.957  0.00  0.00    +0.171 C 
ATOM     11  C   UNL     1      -3.049   1.063   1.758  0.00  0.00    +0.111 C 
ATOM     12  C   UNL     1       0.133   2.462   0.997  0.00  0.00    +0.130 C 
ATOM     13  C   UNL     1      -2.057   0.641   2.831  0.00  0.00    +0.181 C 
ATOM     14  C   UNL     1      -0.707   3.532   1.670  0.00  0.00    +0.185 C 
ENDROOT
BRANCH  12   5
ATOM      5  N   UNL     1       0.477   2.867  -0.348  0.00  0.00    -0.306 N 
ATOM      6  N   UNL     1       2.197   1.310  -0.480  0.00  0.00    -0.214 NA
ATOM      7  N   UNL     1       1.700   2.784  -2.321  0.00  0.00    -0.223 NA
ATOM     16  C   UNL     1       1.504   2.296  -1.081  0.00  0.00    +0.216 A 
ATOM     19  C   UNL     1       3.186   0.774  -1.224  0.00  0.00    +0.076 A 
ATOM     20  C   UNL     1       2.705   2.203  -3.009  0.00  0.00    +0.116 A 
ATOM     21  C   UNL     1       3.489   1.184  -2.506  0.00  0.00    +0.048 A 
ATOM     33  H   UNL     1      -0.082   3.572  -0.815  0.00  0.00    +0.149 HD
BRANCH  19  23
ATOM     23  C   UNL     1       3.932  -0.282  -0.583  0.00  0.00    +0.001 A 
ATOM     26  C   UNL     1       5.306  -0.145  -0.383  0.00  0.00    +0.013 A 
ATOM     27  C   UNL     1       3.278  -1.442  -0.164  0.00  0.00    +0.013 A 
ATOM     28  C   UNL     1       6.026  -1.168   0.235  0.00  0.00    +0.046 A 
ATOM     29  C   UNL     1       3.998  -2.464   0.454  0.00  0.00    +0.046 A 
ATOM     30  C   UNL     1       5.372  -2.327   0.653  0.00  0.00    +0.120 A 
BRANCH  30   3
ATOM      3  O   UNL     1       6.076  -3.325   1.255  0.00  0.00    -0.495 OA
ATOM     31  C   UNL     1       5.345  -4.482   1.657  0.00  0.00    +0.277 C 
ENDBRANCH  30   3
ENDBRANCH  19  23
ENDBRANCH  12   5
BRANCH  11   4
ATOM      4  N   UNL     1      -3.539  -0.117   1.049  0.00  0.00    -0.303 NA
ATOM     32  H   UNL     1      -3.710  -0.869   1.718  0.00  0.00    +0.123 HD
BRANCH   4  15
ATOM     15  C   UNL     1      -4.787   0.176   0.361  0.00  0.00    +0.137 C 
BRANCH  15  17
ATOM      8  N   UNL     1      -6.351  -1.678   0.184  0.00  0.00    -0.259 NA
ATOM     17  C   UNL     1      -5.313  -1.023  -0.381  0.00  0.00    +0.055 A 
ATOM     18  C   UNL     1      -4.724  -1.391  -1.581  0.00  0.00    +0.024 A 
ATOM     22  C   UNL     1      -5.235  -2.502  -2.242  0.00  0.00    +0.003 A 
ATOM     24  C   UNL     1      -6.821  -2.754  -0.488  0.00  0.00    +0.111 A 
ATOM     25  C   UNL     1      -6.303  -3.202  -1.692  0.00  0.00    +0.020 A 
ENDBRANCH  15  17
ENDBRANCH   4  15
ENDBRANCH  11   4
TORSDOF 6
