MODEL 1
REMARK VINA RESULT:      -6.8      0.000      0.000
REMARK  Name = 26743040
REMARK  13 active torsions:
REMARK  status: ('A' for Active; 'I' for Inactive)
REMARK    1  A    between atoms: O_3  and  C_21
REMARK    2  A    between atoms: O_3  and  C_28
REMARK    3  A    between atoms: O_4  and  C_25
REMARK    4  A    between atoms: O_4  and  C_29
REMARK    5  A    between atoms: O_5  and  C_27
REMARK    6  A    between atoms: O_5  and  C_30
REMARK    7  A    between atoms: N_7  and  C_20
REMARK    8  A    between atoms: C_9  and  C_15
REMARK    9  A    between atoms: C_10  and  C_14
REMARK   10  A    between atoms: C_14  and  C_16
REMARK   11  A    between atoms: C_15  and  C_17
REMARK   12  A    between atoms: C_19  and  C_21
REMARK   13  A    between atoms: C_20  and  C_22
REMARK                            x       y       z     vdW  Elec       q    Type
REMARK                         _______ _______ _______ _____ _____    ______ ____
ROOT
ATOM      6  N   UNL     1      14.136   8.896  16.194  0.00  0.00    -0.316 NA
ATOM      9  C   UNL     1      13.040   9.021  18.931  0.00  0.00    +0.004 C 
ATOM     10  C   UNL     1      14.277   8.168  18.564  0.00  0.00    +0.012 C 
ATOM     11  C   UNL     1      12.902  10.167  17.916  0.00  0.00    +0.019 C 
ATOM     12  C   UNL     1      14.256   7.743  17.086  0.00  0.00    +0.085 C 
ATOM     13  C   UNL     1      12.929   9.673  16.470  0.00  0.00    +0.081 C 
ATOM     31  H   UNL     1      14.117   8.575  15.227  0.00  0.00    +0.122 HD
ENDROOT
BRANCH  10  14
ATOM     14  C   UNL     1      14.455   6.949  19.471  0.00  0.00    +0.064 C 
BRANCH  14  16
ATOM      2  O   UNL     1      17.791   5.662  19.058  0.00  0.00    -0.357 OA
ATOM      8  N   UNL     1      16.477   5.829  18.639  0.00  0.00    -0.083 NA
ATOM     16  C   UNL     1      15.902   6.565  19.593  0.00  0.00    +0.084 A 
ATOM     18  C   UNL     1      16.794   6.890  20.629  0.00  0.00    +0.073 A 
ATOM     19  C   UNL     1      17.968   6.298  20.244  0.00  0.00    +0.163 A 
BRANCH  19  21
ATOM     21  C   UNL     1      19.309   6.222  20.835  0.00  0.00    +0.236 C 
BRANCH  21   3
ATOM      3  O   UNL     1      19.395   7.071  21.983  0.00  0.00    -0.375 OA
ATOM     28  C   UNL     1      20.346   6.580  22.914  0.00  0.00    +0.194 C 
ENDBRANCH  21   3
ENDBRANCH  19  21
ENDBRANCH  14  16
ENDBRANCH  10  14
BRANCH   9  15
ATOM     15  C   UNL     1      11.736   8.220  19.029  0.00  0.00    +0.099 C 
BRANCH  15  17
ATOM      1  O   UNL     1      10.918   6.972  20.934  0.00  0.00    -0.276 OA
ATOM      7  N   UNL     1      11.309   9.254  21.147  0.00  0.00    -0.311 N 
ATOM     17  C   UNL     1      11.275   8.048  20.461  0.00  0.00    +0.214 C 
ATOM     32  H   UNL     1      11.638  10.092  20.677  0.00  0.00    +0.149 HD
BRANCH   7  20
ATOM     20  C   UNL     1      10.920   9.384  22.531  0.00  0.00    +0.139 C 
BRANCH  20  22
ATOM     22  C   UNL     1      11.057  10.795  23.023  0.00  0.00    -0.027 A 
ATOM     23  C   UNL     1      11.322  11.825  22.121  0.00  0.00    +0.054 A 
ATOM     24  C   UNL     1      10.918  11.078  24.382  0.00  0.00    +0.009 A 
ATOM     25  C   UNL     1      11.448  13.138  22.577  0.00  0.00    +0.162 A 
ATOM     26  C   UNL     1      11.044  12.390  24.838  0.00  0.00    +0.050 A 
ATOM     27  C   UNL     1      11.309  13.420  23.936  0.00  0.00    +0.162 A 
BRANCH  25   4
ATOM      4  O   UNL     1      11.705  14.136  21.686  0.00  0.00    -0.491 OA
ATOM     29  C   UNL     1      10.651  14.494  20.794  0.00  0.00    +0.277 C 
ENDBRANCH  25   4
BRANCH  27   5
ATOM      5  O   UNL     1      11.429  14.697  24.394  0.00  0.00    -0.491 OA
ATOM     30  C   UNL     1      11.224  14.907  25.790  0.00  0.00    +0.277 C 
ENDBRANCH  27   5
ENDBRANCH  20  22
ENDBRANCH   7  20
ENDBRANCH  15  17
ENDBRANCH   9  15
TORSDOF 10
ENDMDL
MODEL 2
REMARK VINA RESULT:      -6.6      2.955      6.708
REMARK  Name = 26743040
REMARK  13 active torsions:
REMARK  status: ('A' for Active; 'I' for Inactive)
REMARK    1  A    between atoms: O_3  and  C_21
REMARK    2  A    between atoms: O_3  and  C_28
REMARK    3  A    between atoms: O_4  and  C_25
REMARK    4  A    between atoms: O_4  and  C_29
REMARK    5  A    between atoms: O_5  and  C_27
REMARK    6  A    between atoms: O_5  and  C_30
REMARK    7  A    between atoms: N_7  and  C_20
REMARK    8  A    between atoms: C_9  and  C_15
REMARK    9  A    between atoms: C_10  and  C_14
REMARK   10  A    between atoms: C_14  and  C_16
REMARK   11  A    between atoms: C_15  and  C_17
REMARK   12  A    between atoms: C_19  and  C_21
REMARK   13  A    between atoms: C_20  and  C_22
REMARK                            x       y       z     vdW  Elec       q    Type
REMARK                         _______ _______ _______ _____ _____    ______ ____
ROOT
ATOM      6  N   UNL     1      21.059   5.251  21.840  0.00  0.00    -0.316 NA
ATOM      9  C   UNL     1      19.198   7.532  22.045  0.00  0.00    +0.004 C 
ATOM     10  C   UNL     1      18.931   6.315  21.128  0.00  0.00    +0.012 C 
ATOM     11  C   UNL     1      20.134   7.104  23.187  0.00  0.00    +0.019 C 
ATOM     12  C   UNL     1      20.239   5.636  20.690  0.00  0.00    +0.085 C 
ATOM     13  C   UNL     1      21.392   6.400  22.678  0.00  0.00    +0.081 C 
ATOM     31  H   UNL     1      21.918   4.813  21.511  0.00  0.00    +0.122 HD
ENDROOT
BRANCH  10  14
ATOM     14  C   UNL     1      18.071   6.659  19.911  0.00  0.00    +0.064 C 
BRANCH  14  16
ATOM      2  O   UNL     1      14.869   6.944  21.529  0.00  0.00    -0.357 OA
ATOM      8  N   UNL     1      16.258   6.916  21.548  0.00  0.00    -0.083 NA
ATOM     16  C   UNL     1      16.616   6.737  20.274  0.00  0.00    +0.084 A 
ATOM     18  C   UNL     1      15.508   6.646  19.414  0.00  0.00    +0.073 A 
ATOM     19  C   UNL     1      14.434   6.782  20.254  0.00  0.00    +0.163 A 
BRANCH  19  21
ATOM     21  C   UNL     1      12.980   6.786  20.051  0.00  0.00    +0.236 C 
BRANCH  21   3
ATOM      3  O   UNL     1      12.306   6.984  21.297  0.00  0.00    -0.375 OA
ATOM     28  C   UNL     1      11.256   6.046  21.467  0.00  0.00    +0.194 C 
ENDBRANCH  21   3
ENDBRANCH  19  21
ENDBRANCH  14  16
ENDBRANCH  10  14
BRANCH   9  15
ATOM     15  C   UNL     1      19.758   8.756  21.311  0.00  0.00    +0.099 C 
BRANCH  15  17
ATOM      1  O   UNL     1      19.159  11.086  21.055  0.00  0.00    -0.276 OA
ATOM      7  N   UNL     1      17.607   9.599  21.941  0.00  0.00    -0.311 N 
ATOM     17  C   UNL     1      18.838   9.954  21.407  0.00  0.00    +0.214 C 
ATOM     32  H   UNL     1      17.425   8.630  22.187  0.00  0.00    +0.149 HD
BRANCH   7  20
ATOM     20  C   UNL     1      16.536  10.545  22.149  0.00  0.00    +0.139 C 
BRANCH  20  22
ATOM     22  C   UNL     1      15.486  10.448  21.080  0.00  0.00    -0.027 A 
ATOM     23  C   UNL     1      14.135  10.446  21.429  0.00  0.00    +0.054 A 
ATOM     24  C   UNL     1      15.860  10.362  19.739  0.00  0.00    +0.009 A 
ATOM     25  C   UNL     1      13.159  10.357  20.436  0.00  0.00    +0.162 A 
ATOM     26  C   UNL     1      14.884  10.273  18.747  0.00  0.00    +0.050 A 
ATOM     27  C   UNL     1      13.533  10.271  19.095  0.00  0.00    +0.162 A 
BRANCH  25   4
ATOM      4  O   UNL     1      11.843  10.358  20.789  0.00  0.00    -0.491 OA
ATOM     29  C   UNL     1      11.451  11.253  21.829  0.00  0.00    +0.277 C 
ENDBRANCH  25   4
BRANCH  27   5
ATOM      5  O   UNL     1      12.590  10.185  18.117  0.00  0.00    -0.491 OA
ATOM     30  C   UNL     1      12.772   9.174  17.128  0.00  0.00    +0.277 C 
ENDBRANCH  27   5
ENDBRANCH  20  22
ENDBRANCH   7  20
ENDBRANCH  15  17
ENDBRANCH   9  15
TORSDOF 10
ENDMDL
MODEL 3
REMARK VINA RESULT:      -6.4     26.974     29.049
REMARK  Name = 26743040
REMARK  13 active torsions:
REMARK  status: ('A' for Active; 'I' for Inactive)
REMARK    1  A    between atoms: O_3  and  C_21
REMARK    2  A    between atoms: O_3  and  C_28
REMARK    3  A    between atoms: O_4  and  C_25
REMARK    4  A    between atoms: O_4  and  C_29
REMARK    5  A    between atoms: O_5  and  C_27
REMARK    6  A    between atoms: O_5  and  C_30
REMARK    7  A    between atoms: N_7  and  C_20
REMARK    8  A    between atoms: C_9  and  C_15
REMARK    9  A    between atoms: C_10  and  C_14
REMARK   10  A    between atoms: C_14  and  C_16
REMARK   11  A    between atoms: C_15  and  C_17
REMARK   12  A    between atoms: C_19  and  C_21
REMARK   13  A    between atoms: C_20  and  C_22
REMARK                            x       y       z     vdW  Elec       q    Type
REMARK                         _______ _______ _______ _____ _____    ______ ____
ROOT
ATOM      6  N   UNL     1      -3.503 -13.700  10.615  0.00  0.00    -0.316 NA
ATOM      9  C   UNL     1      -3.407 -12.582  13.345  0.00  0.00    +0.004 C 
ATOM     10  C   UNL     1      -4.010 -11.812  12.146  0.00  0.00    +0.012 C 
ATOM     11  C   UNL     1      -3.470 -14.091  13.054  0.00  0.00    +0.019 C 
ATOM     12  C   UNL     1      -3.385 -12.255  10.813  0.00  0.00    +0.085 C 
ATOM     13  C   UNL     1      -2.867 -14.450  11.697  0.00  0.00    +0.081 C 
ATOM     31  H   UNL     1      -3.070 -13.956   9.729  0.00  0.00    +0.122 HD
ENDROOT
BRANCH  10  14
ATOM     14  C   UNL     1      -3.920 -10.294  12.303  0.00  0.00    +0.064 C 
BRANCH  14  16
ATOM      2  O   UNL     1      -5.370  -8.269   9.704  0.00  0.00    -0.357 OA
ATOM      8  N   UNL     1      -4.289  -8.730  10.444  0.00  0.00    -0.083 NA
ATOM     16  C   UNL     1      -4.813  -9.588  11.323  0.00  0.00    +0.084 A 
ATOM     18  C   UNL     1      -6.207  -9.709  11.186  0.00  0.00    +0.073 A 
ATOM     19  C   UNL     1      -6.506  -8.858  10.155  0.00  0.00    +0.163 A 
BRANCH  19  21
ATOM     21  C   UNL     1      -7.753  -8.481   9.478  0.00  0.00    +0.236 C 
BRANCH  21   3
ATOM      3  O   UNL     1      -7.468  -7.843   8.231  0.00  0.00    -0.375 OA
ATOM     28  C   UNL     1      -8.152  -6.606   8.119  0.00  0.00    +0.194 C 
ENDBRANCH  21   3
ENDBRANCH  19  21
ENDBRANCH  14  16
ENDBRANCH  10  14
BRANCH   9  15
ATOM     15  C   UNL     1      -1.979 -12.156  13.706  0.00  0.00    +0.099 C 
BRANCH  15  17
ATOM      1  O   UNL     1      -0.872 -11.032  15.540  0.00  0.00    -0.276 OA
ATOM      7  N   UNL     1      -3.128 -11.564  15.722  0.00  0.00    -0.311 N 
ATOM     17  C   UNL     1      -1.900 -11.519  15.077  0.00  0.00    +0.214 C 
ATOM     32  H   UNL     1      -3.930 -11.971  15.251  0.00  0.00    +0.149 HD
BRANCH   7  20
ATOM     20  C   UNL     1      -3.342 -11.030  17.046  0.00  0.00    +0.139 C 
BRANCH  20  22
ATOM     22  C   UNL     1      -4.774 -10.639  17.270  0.00  0.00    -0.027 A 
ATOM     23  C   UNL     1      -5.429 -11.030  18.437  0.00  0.00    +0.054 A 
ATOM     24  C   UNL     1      -5.448  -9.882  16.312  0.00  0.00    +0.009 A 
ATOM     25  C   UNL     1      -6.759 -10.665  18.647  0.00  0.00    +0.162 A 
ATOM     26  C   UNL     1      -6.778  -9.518  16.521  0.00  0.00    +0.050 A 
ATOM     27  C   UNL     1      -7.434  -9.909  17.689  0.00  0.00    +0.162 A 
BRANCH  25   4
ATOM      4  O   UNL     1      -7.388 -11.052  19.792  0.00  0.00    -0.491 OA
ATOM     29  C   UNL     1      -7.912 -12.379  19.826  0.00  0.00    +0.277 C 
ENDBRANCH  25   4
BRANCH  27   5
ATOM      5  O   UNL     1      -8.732  -9.545  17.881  0.00  0.00    -0.491 OA
ATOM     30  C   UNL     1      -9.210  -8.427  17.136  0.00  0.00    +0.277 C 
ENDBRANCH  27   5
ENDBRANCH  20  22
ENDBRANCH   7  20
ENDBRANCH  15  17
ENDBRANCH   9  15
TORSDOF 10
ENDMDL
MODEL 4
REMARK VINA RESULT:      -6.4      2.220      7.655
REMARK  Name = 26743040
REMARK  13 active torsions:
REMARK  status: ('A' for Active; 'I' for Inactive)
REMARK    1  A    between atoms: O_3  and  C_21
REMARK    2  A    between atoms: O_3  and  C_28
REMARK    3  A    between atoms: O_4  and  C_25
REMARK    4  A    between atoms: O_4  and  C_29
REMARK    5  A    between atoms: O_5  and  C_27
REMARK    6  A    between atoms: O_5  and  C_30
REMARK    7  A    between atoms: N_7  and  C_20
REMARK    8  A    between atoms: C_9  and  C_15
REMARK    9  A    between atoms: C_10  and  C_14
REMARK   10  A    between atoms: C_14  and  C_16
REMARK   11  A    between atoms: C_15  and  C_17
REMARK   12  A    between atoms: C_19  and  C_21
REMARK   13  A    between atoms: C_20  and  C_22
REMARK                            x       y       z     vdW  Elec       q    Type
REMARK                         _______ _______ _______ _____ _____    ______ ____
ROOT
ATOM      6  N   UNL     1      12.275  10.291  15.160  0.00  0.00    -0.316 NA
ATOM      9  C   UNL     1      12.400   8.978  17.800  0.00  0.00    +0.004 C 
ATOM     10  C   UNL     1      13.224  10.241  17.454  0.00  0.00    +0.012 C 
ATOM     11  C   UNL     1      11.162   8.923  16.889  0.00  0.00    +0.019 C 
ATOM     12  C   UNL     1      13.509  10.338  15.946  0.00  0.00    +0.085 C 
ATOM     13  C   UNL     1      11.519   9.066  15.410  0.00  0.00    +0.081 C 
ATOM     31  H   UNL     1      12.504  10.349  14.169  0.00  0.00    +0.122 HD
ENDROOT
BRANCH  10  14
ATOM     14  C   UNL     1      14.524  10.345  18.253  0.00  0.00    +0.064 C 
BRANCH  14  16
ATOM      2  O   UNL     1      14.486  10.605  21.843  0.00  0.00    -0.357 OA
ATOM      8  N   UNL     1      14.987  10.094  20.653  0.00  0.00    -0.083 NA
ATOM     16  C   UNL     1      14.255  10.668  19.695  0.00  0.00    +0.084 A 
ATOM     18  C   UNL     1      13.286  11.544  20.215  0.00  0.00    +0.073 A 
ATOM     19  C   UNL     1      13.474  11.467  21.570  0.00  0.00    +0.163 A 
BRANCH  19  21
ATOM     21  C   UNL     1      12.826  12.103  22.723  0.00  0.00    +0.236 C 
BRANCH  21   3
ATOM      3  O   UNL     1      12.258  11.112  23.583  0.00  0.00    -0.375 OA
ATOM     28  C   UNL     1      10.970  10.720  23.135  0.00  0.00    +0.194 C 
ENDBRANCH  21   3
ENDBRANCH  19  21
ENDBRANCH  14  16
ENDBRANCH  10  14
BRANCH   9  15
ATOM     15  C   UNL     1      13.196   7.670  17.718  0.00  0.00    +0.099 C 
BRANCH  15  17
ATOM      1  O   UNL     1      12.577   6.610  19.802  0.00  0.00    -0.276 OA
ATOM      7  N   UNL     1      14.809   7.120  19.399  0.00  0.00    -0.311 N 
ATOM     17  C   UNL     1      13.459   7.072  19.083  0.00  0.00    +0.214 C 
ATOM     32  H   UNL     1      15.470   7.505  18.731  0.00  0.00    +0.149 HD
BRANCH   7  20
ATOM     20  C   UNL     1      15.345   6.620  20.644  0.00  0.00    +0.139 C 
BRANCH  20  22
ATOM     22  C   UNL     1      16.845   6.567  20.629  0.00  0.00    -0.027 A 
ATOM     23  C   UNL     1      17.578   7.336  21.533  0.00  0.00    +0.054 A 
ATOM     24  C   UNL     1      17.506   5.749  19.714  0.00  0.00    +0.009 A 
ATOM     25  C   UNL     1      18.972   7.287  21.521  0.00  0.00    +0.162 A 
ATOM     26  C   UNL     1      18.900   5.699  19.702  0.00  0.00    +0.050 A 
ATOM     27  C   UNL     1      19.633   6.468  20.605  0.00  0.00    +0.162 A 
BRANCH  25   4
ATOM      4  O   UNL     1      19.677   8.041  22.409  0.00  0.00    -0.491 OA
ATOM     29  C   UNL     1      20.191   7.373  23.561  0.00  0.00    +0.277 C 
ENDBRANCH  25   4
BRANCH  27   5
ATOM      5  O   UNL     1      20.994   6.410  20.584  0.00  0.00    -0.491 OA
ATOM     30  C   UNL     1      21.586   5.120  20.444  0.00  0.00    +0.277 C 
ENDBRANCH  27   5
ENDBRANCH  20  22
ENDBRANCH   7  20
ENDBRANCH  15  17
ENDBRANCH   9  15
TORSDOF 10
ENDMDL
MODEL 5
REMARK VINA RESULT:      -6.3      1.355      2.103
REMARK  Name = 26743040
REMARK  13 active torsions:
REMARK  status: ('A' for Active; 'I' for Inactive)
REMARK    1  A    between atoms: O_3  and  C_21
REMARK    2  A    between atoms: O_3  and  C_28
REMARK    3  A    between atoms: O_4  and  C_25
REMARK    4  A    between atoms: O_4  and  C_29
REMARK    5  A    between atoms: O_5  and  C_27
REMARK    6  A    between atoms: O_5  and  C_30
REMARK    7  A    between atoms: N_7  and  C_20
REMARK    8  A    between atoms: C_9  and  C_15
REMARK    9  A    between atoms: C_10  and  C_14
REMARK   10  A    between atoms: C_14  and  C_16
REMARK   11  A    between atoms: C_15  and  C_17
REMARK   12  A    between atoms: C_19  and  C_21
REMARK   13  A    between atoms: C_20  and  C_22
REMARK                            x       y       z     vdW  Elec       q    Type
REMARK                         _______ _______ _______ _____ _____    ______ ____
ROOT
ATOM      6  N   UNL     1      13.715   8.407  16.414  0.00  0.00    -0.316 NA
ATOM      9  C   UNL     1      13.333   8.140  19.329  0.00  0.00    +0.004 C 
ATOM     10  C   UNL     1      14.634   7.705  18.612  0.00  0.00    +0.012 C 
ATOM     11  C   UNL     1      12.628   9.213  18.481  0.00  0.00    +0.019 C 
ATOM     12  C   UNL     1      14.374   7.324  17.145  0.00  0.00    +0.085 C 
ATOM     13  C   UNL     1      12.442   8.780  17.027  0.00  0.00    +0.081 C 
ATOM     31  H   UNL     1      13.553   8.115  15.452  0.00  0.00    +0.122 HD
ENDROOT
BRANCH  10  14
ATOM     14  C   UNL     1      15.369   6.578  19.338  0.00  0.00    +0.064 C 
BRANCH  14  16
ATOM      2  O   UNL     1      17.839   8.413  21.205  0.00  0.00    -0.357 OA
ATOM      8  N   UNL     1      16.560   8.248  20.689  0.00  0.00    -0.083 NA
ATOM     16  C   UNL     1      16.599   7.086  20.033  0.00  0.00    +0.084 A 
ATOM     18  C   UNL     1      17.865   6.478  20.099  0.00  0.00    +0.073 A 
ATOM     19  C   UNL     1      18.607   7.353  20.847  0.00  0.00    +0.163 A 
BRANCH  19  21
ATOM     21  C   UNL     1      19.999   7.365  21.311  0.00  0.00    +0.236 C 
BRANCH  21   3
ATOM      3  O   UNL     1      20.198   6.362  22.311  0.00  0.00    -0.375 OA
ATOM     28  C   UNL     1      21.042   5.325  21.837  0.00  0.00    +0.194 C 
ENDBRANCH  21   3
ENDBRANCH  19  21
ENDBRANCH  14  16
ENDBRANCH  10  14
BRANCH   9  15
ATOM     15  C   UNL     1      12.378   6.983  19.645  0.00  0.00    +0.099 C 
BRANCH  15  17
ATOM      1  O   UNL     1      11.321   6.177  21.667  0.00  0.00    -0.276 OA
ATOM      7  N   UNL     1      11.674   8.459  21.395  0.00  0.00    -0.311 N 
ATOM     17  C   UNL     1      11.733   7.127  21.007  0.00  0.00    +0.214 C 
ATOM     32  H   UNL     1      12.059   9.177  20.789  0.00  0.00    +0.149 HD
BRANCH   7  20
ATOM     20  C   UNL     1      11.106   8.889  22.651  0.00  0.00    +0.139 C 
BRANCH  20  22
ATOM     22  C   UNL     1      11.104  10.385  22.784  0.00  0.00    -0.027 A 
ATOM     23  C   UNL     1      10.917  10.973  24.034  0.00  0.00    +0.054 A 
ATOM     24  C   UNL     1      11.292  11.186  21.657  0.00  0.00    +0.009 A 
ATOM     25  C   UNL     1      10.918  12.362  24.159  0.00  0.00    +0.162 A 
ATOM     26  C   UNL     1      11.293  12.575  21.782  0.00  0.00    +0.050 A 
ATOM     27  C   UNL     1      11.106  13.164  23.033  0.00  0.00    +0.162 A 
BRANCH  25   4
ATOM      4  O   UNL     1      10.736  12.926  25.386  0.00  0.00    -0.491 OA
ATOM     29  C   UNL     1      11.907  13.337  26.089  0.00  0.00    +0.277 C 
ENDBRANCH  25   4
BRANCH  27   5
ATOM      5  O   UNL     1      11.109  14.521  23.141  0.00  0.00    -0.491 OA
ATOM     30  C   UNL     1      12.025  15.236  22.313  0.00  0.00    +0.277 C 
ENDBRANCH  27   5
ENDBRANCH  20  22
ENDBRANCH   7  20
ENDBRANCH  15  17
ENDBRANCH   9  15
TORSDOF 10
ENDMDL
MODEL 6
REMARK VINA RESULT:      -6.1     26.327     29.946
REMARK  Name = 26743040
REMARK  13 active torsions:
REMARK  status: ('A' for Active; 'I' for Inactive)
REMARK    1  A    between atoms: O_3  and  C_21
REMARK    2  A    between atoms: O_3  and  C_28
REMARK    3  A    between atoms: O_4  and  C_25
REMARK    4  A    between atoms: O_4  and  C_29
REMARK    5  A    between atoms: O_5  and  C_27
REMARK    6  A    between atoms: O_5  and  C_30
REMARK    7  A    between atoms: N_7  and  C_20
REMARK    8  A    between atoms: C_9  and  C_15
REMARK    9  A    between atoms: C_10  and  C_14
REMARK   10  A    between atoms: C_14  and  C_16
REMARK   11  A    between atoms: C_15  and  C_17
REMARK   12  A    between atoms: C_19  and  C_21
REMARK   13  A    between atoms: C_20  and  C_22
REMARK                            x       y       z     vdW  Elec       q    Type
REMARK                         _______ _______ _______ _____ _____    ______ ____
ROOT
ATOM      6  N   UNL     1      -6.976 -10.512  20.125  0.00  0.00    -0.316 NA
ATOM      9  C   UNL     1      -6.220 -11.358  17.401  0.00  0.00    +0.004 C 
ATOM     10  C   UNL     1      -7.549 -10.627  17.712  0.00  0.00    +0.012 C 
ATOM     11  C   UNL     1      -5.192 -11.015  18.492  0.00  0.00    +0.019 C 
ATOM     12  C   UNL     1      -8.010 -10.878  19.157  0.00  0.00    +0.085 C 
ATOM     13  C   UNL     1      -5.736 -11.251  19.901  0.00  0.00    +0.081 C 
ATOM     31  H   UNL     1      -7.314 -10.700  21.068  0.00  0.00    +0.122 HD
ENDROOT
BRANCH  10  14
ATOM     14  C   UNL     1      -8.665 -10.968  16.724  0.00  0.00    +0.064 C 
BRANCH  14  16
ATOM      2  O   UNL     1     -10.185  -8.452  14.646  0.00  0.00    -0.357 OA
ATOM      8  N   UNL     1      -9.688  -9.731  14.865  0.00  0.00    -0.083 NA
ATOM     16  C   UNL     1      -9.270  -9.727  16.133  0.00  0.00    +0.084 A 
ATOM     18  C   UNL     1      -9.476  -8.486  16.760  0.00  0.00    +0.073 A 
ATOM     19  C   UNL     1     -10.053  -7.720  15.781  0.00  0.00    +0.163 A 
BRANCH  19  21
ATOM     21  C   UNL     1     -10.531  -6.334  15.726  0.00  0.00    +0.236 C 
BRANCH  21   3
ATOM      3  O   UNL     1     -11.959  -6.298  15.796  0.00  0.00    -0.375 OA
ATOM     28  C   UNL     1     -12.514  -5.680  14.646  0.00  0.00    +0.194 C 
ENDBRANCH  21   3
ENDBRANCH  19  21
ENDBRANCH  14  16
ENDBRANCH  10  14
BRANCH   9  15
ATOM     15  C   UNL     1      -6.365 -12.876  17.245  0.00  0.00    +0.099 C 
BRANCH  15  17
ATOM      1  O   UNL     1      -6.511 -13.477  14.906  0.00  0.00    -0.276 OA
ATOM      7  N   UNL     1      -4.477 -13.684  16.013  0.00  0.00    -0.311 N 
ATOM     17  C   UNL     1      -5.826 -13.371  15.920  0.00  0.00    +0.214 C 
ATOM     32  H   UNL     1      -3.987 -13.546  16.892  0.00  0.00    +0.149 HD
BRANCH   7  20
ATOM     20  C   UNL     1      -3.705 -14.182  14.899  0.00  0.00    +0.139 C 
BRANCH  20  22
ATOM     22  C   UNL     1      -3.204 -13.072  14.021  0.00  0.00    -0.027 A 
ATOM     23  C   UNL     1      -2.535 -11.985  14.585  0.00  0.00    +0.054 A 
ATOM     24  C   UNL     1      -3.405 -13.127  12.642  0.00  0.00    +0.009 A 
ATOM     25  C   UNL     1      -2.068 -10.954  13.770  0.00  0.00    +0.162 A 
ATOM     26  C   UNL     1      -2.938 -12.096  11.827  0.00  0.00    +0.050 A 
ATOM     27  C   UNL     1      -2.269 -11.010  12.391  0.00  0.00    +0.162 A 
BRANCH  25   4
ATOM      4  O   UNL     1      -1.415  -9.899  14.332  0.00  0.00    -0.491 OA
ATOM     29  C   UNL     1      -1.078 -10.008  15.714  0.00  0.00    +0.277 C 
ENDBRANCH  25   4
BRANCH  27   5
ATOM      5  O   UNL     1      -1.817 -10.010  11.584  0.00  0.00    -0.491 OA
ATOM     30  C   UNL     1      -2.726  -9.504  10.608  0.00  0.00    +0.277 C 
ENDBRANCH  27   5
ENDBRANCH  20  22
ENDBRANCH   7  20
ENDBRANCH  15  17
ENDBRANCH   9  15
TORSDOF 10
ENDMDL
MODEL 7
REMARK VINA RESULT:      -6.1     15.429     20.208
REMARK  Name = 26743040
REMARK  13 active torsions:
REMARK  status: ('A' for Active; 'I' for Inactive)
REMARK    1  A    between atoms: O_3  and  C_21
REMARK    2  A    between atoms: O_3  and  C_28
REMARK    3  A    between atoms: O_4  and  C_25
REMARK    4  A    between atoms: O_4  and  C_29
REMARK    5  A    between atoms: O_5  and  C_27
REMARK    6  A    between atoms: O_5  and  C_30
REMARK    7  A    between atoms: N_7  and  C_20
REMARK    8  A    between atoms: C_9  and  C_15
REMARK    9  A    between atoms: C_10  and  C_14
REMARK   10  A    between atoms: C_14  and  C_16
REMARK   11  A    between atoms: C_15  and  C_17
REMARK   12  A    between atoms: C_19  and  C_21
REMARK   13  A    between atoms: C_20  and  C_22
REMARK                            x       y       z     vdW  Elec       q    Type
REMARK                         _______ _______ _______ _____ _____    ______ ____
ROOT
ATOM      6  N   UNL     1      11.396   8.931   3.706  0.00  0.00    -0.316 NA
ATOM      9  C   UNL     1       9.852   6.660   2.626  0.00  0.00    +0.004 C 
ATOM     10  C   UNL     1       9.261   7.664   3.644  0.00  0.00    +0.012 C 
ATOM     11  C   UNL     1      10.999   7.340   1.859  0.00  0.00    +0.019 C 
ATOM     12  C   UNL     1      10.357   8.297   4.518  0.00  0.00    +0.085 C 
ATOM     13  C   UNL     1      12.026   7.981   2.792  0.00  0.00    +0.081 C 
ATOM     31  H   UNL     1      12.106   9.330   4.318  0.00  0.00    +0.122 HD
ENDROOT
BRANCH  10  14
ATOM     14  C   UNL     1       8.163   7.056   4.517  0.00  0.00    +0.064 C 
BRANCH  14  16
ATOM      2  O   UNL     1       8.748   7.291   8.061  0.00  0.00    -0.357 OA
ATOM      8  N   UNL     1       8.131   7.703   6.886  0.00  0.00    -0.083 NA
ATOM     16  C   UNL     1       8.619   6.898   5.939  0.00  0.00    +0.084 A 
ATOM     18  C   UNL     1       9.539   5.967   6.450  0.00  0.00    +0.073 A 
ATOM     19  C   UNL     1       9.585   6.257   7.789  0.00  0.00    +0.163 A 
BRANCH  19  21
ATOM     21  C   UNL     1      10.324   5.696   8.925  0.00  0.00    +0.236 C 
BRANCH  21   3
ATOM      3  O   UNL     1       9.800   4.412   9.273  0.00  0.00    -0.375 OA
ATOM     28  C   UNL     1       8.824   4.516  10.297  0.00  0.00    +0.194 C 
ENDBRANCH  21   3
ENDBRANCH  19  21
ENDBRANCH  14  16
ENDBRANCH  10  14
BRANCH   9  15
ATOM     15  C   UNL     1      10.321   5.340   3.250  0.00  0.00    +0.099 C 
BRANCH  15  17
ATOM      1  O   UNL     1       9.975   4.001   1.265  0.00  0.00    -0.276 OA
ATOM      7  N   UNL     1      11.962   3.790   2.453  0.00  0.00    -0.311 N 
ATOM     17  C   UNL     1      10.702   4.315   2.204  0.00  0.00    +0.214 C 
ATOM     32  H   UNL     1      12.501   4.125   3.246  0.00  0.00    +0.149 HD
BRANCH   7  20
ATOM     20  C   UNL     1      12.578   2.788   1.614  0.00  0.00    +0.139 C 
BRANCH  20  22
ATOM     22  C   UNL     1      13.582   3.384   0.671  0.00  0.00    -0.027 A 
ATOM     23  C   UNL     1      13.243   3.599  -0.664  0.00  0.00    +0.054 A 
ATOM     24  C   UNL     1      14.854   3.726   1.131  0.00  0.00    +0.009 A 
ATOM     25  C   UNL     1      14.175   4.154  -1.541  0.00  0.00    +0.162 A 
ATOM     26  C   UNL     1      15.786   4.282   0.254  0.00  0.00    +0.050 A 
ATOM     27  C   UNL     1      15.447   4.496  -1.081  0.00  0.00    +0.162 A 
BRANCH  25   4
ATOM      4  O   UNL     1      13.831   4.361  -2.843  0.00  0.00    -0.491 OA
ATOM     29  C   UNL     1      12.910   5.417  -3.109  0.00  0.00    +0.277 C 
ENDBRANCH  25   4
BRANCH  27   5
ATOM      5  O   UNL     1      16.366   5.040  -1.927  0.00  0.00    -0.491 OA
ATOM     30  C   UNL     1      16.670   6.423  -1.751  0.00  0.00    +0.277 C 
ENDBRANCH  27   5
ENDBRANCH  20  22
ENDBRANCH   7  20
ENDBRANCH  15  17
ENDBRANCH   9  15
TORSDOF 10
ENDMDL
MODEL 8
REMARK VINA RESULT:      -6.1     27.639     29.882
REMARK  Name = 26743040
REMARK  13 active torsions:
REMARK  status: ('A' for Active; 'I' for Inactive)
REMARK    1  A    between atoms: O_3  and  C_21
REMARK    2  A    between atoms: O_3  and  C_28
REMARK    3  A    between atoms: O_4  and  C_25
REMARK    4  A    between atoms: O_4  and  C_29
REMARK    5  A    between atoms: O_5  and  C_27
REMARK    6  A    between atoms: O_5  and  C_30
REMARK    7  A    between atoms: N_7  and  C_20
REMARK    8  A    between atoms: C_9  and  C_15
REMARK    9  A    between atoms: C_10  and  C_14
REMARK   10  A    between atoms: C_14  and  C_16
REMARK   11  A    between atoms: C_15  and  C_17
REMARK   12  A    between atoms: C_19  and  C_21
REMARK   13  A    between atoms: C_20  and  C_22
REMARK                            x       y       z     vdW  Elec       q    Type
REMARK                         _______ _______ _______ _____ _____    ______ ____
ROOT
ATOM      6  N   UNL     1      -7.335 -10.647  19.826  0.00  0.00    -0.316 NA
ATOM      9  C   UNL     1      -5.882 -10.849  17.265  0.00  0.00    +0.004 C 
ATOM     10  C   UNL     1      -7.329 -10.310  17.365  0.00  0.00    +0.012 C 
ATOM     11  C   UNL     1      -5.179 -10.655  18.619  0.00  0.00    +0.019 C 
ATOM     12  C   UNL     1      -8.068 -10.890  18.583  0.00  0.00    +0.085 C 
ATOM     13  C   UNL     1      -5.991 -11.219  19.784  0.00  0.00    +0.081 C 
ATOM     31  H   UNL     1      -7.850 -11.052  20.606  0.00  0.00    +0.122 HD
ENDROOT
BRANCH  10  14
ATOM     14  C   UNL     1      -8.140 -10.532  16.089  0.00  0.00    +0.064 C 
BRANCH  14  16
ATOM      2  O   UNL     1     -10.351  -8.076  14.660  0.00  0.00    -0.357 OA
ATOM      8  N   UNL     1      -9.623  -9.259  14.601  0.00  0.00    -0.083 NA
ATOM     16  C   UNL     1      -9.024  -9.355  15.790  0.00  0.00    +0.084 A 
ATOM     18  C   UNL     1      -9.332  -8.274  16.634  0.00  0.00    +0.073 A 
ATOM     19  C   UNL     1     -10.169  -7.499  15.875  0.00  0.00    +0.163 A 
BRANCH  19  21
ATOM     21  C   UNL     1     -10.871  -6.232  16.110  0.00  0.00    +0.236 C 
BRANCH  21   3
ATOM      3  O   UNL     1     -11.808  -5.981  15.059  0.00  0.00    -0.375 OA
ATOM     28  C   UNL     1     -13.133  -6.278  15.471  0.00  0.00    +0.194 C 
ENDBRANCH  21   3
ENDBRANCH  19  21
ENDBRANCH  14  16
ENDBRANCH  10  14
BRANCH   9  15
ATOM     15  C   UNL     1      -5.790 -12.310  16.808  0.00  0.00    +0.099 C 
BRANCH  15  17
ATOM      1  O   UNL     1      -4.293 -13.652  15.463  0.00  0.00    -0.276 OA
ATOM      7  N   UNL     1      -4.053 -11.340  15.475  0.00  0.00    -0.311 N 
ATOM     17  C   UNL     1      -4.642 -12.540  15.848  0.00  0.00    +0.214 C 
ATOM     32  H   UNL     1      -4.424 -10.464  15.832  0.00  0.00    +0.149 HD
BRANCH   7  20
ATOM     20  C   UNL     1      -2.932 -11.261  14.568  0.00  0.00    +0.139 C 
BRANCH  20  22
ATOM     22  C   UNL     1      -3.315 -10.643  13.255  0.00  0.00    -0.027 A 
ATOM     23  C   UNL     1      -4.631 -10.239  13.032  0.00  0.00    +0.054 A 
ATOM     24  C   UNL     1      -2.354 -10.470  12.258  0.00  0.00    +0.009 A 
ATOM     25  C   UNL     1      -4.987  -9.663  11.812  0.00  0.00    +0.162 A 
ATOM     26  C   UNL     1      -2.710  -9.894  11.039  0.00  0.00    +0.050 A 
ATOM     27  C   UNL     1      -4.027  -9.490  10.816  0.00  0.00    +0.162 A 
BRANCH  25   4
ATOM      4  O   UNL     1      -6.275  -9.270  11.607  0.00  0.00    -0.491 OA
ATOM     29  C   UNL     1      -7.283 -10.276  11.708  0.00  0.00    +0.277 C 
ENDBRANCH  25   4
BRANCH  27   5
ATOM      5  O   UNL     1      -4.361  -8.928   9.621  0.00  0.00    -0.491 OA
ATOM     30  C   UNL     1      -4.719  -9.817   8.564  0.00  0.00    +0.277 C 
ENDBRANCH  27   5
ENDBRANCH  20  22
ENDBRANCH   7  20
ENDBRANCH  15  17
ENDBRANCH   9  15
TORSDOF 10
ENDMDL
MODEL 9
REMARK VINA RESULT:      -6.0     25.614     28.707
REMARK  Name = 26743040
REMARK  13 active torsions:
REMARK  status: ('A' for Active; 'I' for Inactive)
REMARK    1  A    between atoms: O_3  and  C_21
REMARK    2  A    between atoms: O_3  and  C_28
REMARK    3  A    between atoms: O_4  and  C_25
REMARK    4  A    between atoms: O_4  and  C_29
REMARK    5  A    between atoms: O_5  and  C_27
REMARK    6  A    between atoms: O_5  and  C_30
REMARK    7  A    between atoms: N_7  and  C_20
REMARK    8  A    between atoms: C_9  and  C_15
REMARK    9  A    between atoms: C_10  and  C_14
REMARK   10  A    between atoms: C_14  and  C_16
REMARK   11  A    between atoms: C_15  and  C_17
REMARK   12  A    between atoms: C_19  and  C_21
REMARK   13  A    between atoms: C_20  and  C_22
REMARK                            x       y       z     vdW  Elec       q    Type
REMARK                         _______ _______ _______ _____ _____    ______ ____
ROOT
ATOM      6  N   UNL     1     -18.211   6.642  21.294  0.00  0.00    -0.316 NA
ATOM      9  C   UNL     1     -15.373   5.902  20.965  0.00  0.00    +0.004 C 
ATOM     10  C   UNL     1     -16.284   5.268  22.044  0.00  0.00    +0.012 C 
ATOM     11  C   UNL     1     -16.248   6.418  19.811  0.00  0.00    +0.019 C 
ATOM     12  C   UNL     1     -17.425   6.214  22.451  0.00  0.00    +0.085 C 
ATOM     13  C   UNL     1     -17.384   7.318  20.296  0.00  0.00    +0.081 C 
ATOM     31  H   UNL     1     -18.950   7.272  21.602  0.00  0.00    +0.122 HD
ENDROOT
BRANCH  10  14
ATOM     14  C   UNL     1     -15.512   4.795  23.276  0.00  0.00    +0.064 C 
BRANCH  14  16
ATOM      2  O   UNL     1     -16.994   1.549  23.752  0.00  0.00    -0.357 OA
ATOM      8  N   UNL     1     -16.601   2.617  22.954  0.00  0.00    -0.083 NA
ATOM     16  C   UNL     1     -16.058   3.497  23.798  0.00  0.00    +0.084 A 
ATOM     18  C   UNL     1     -16.079   3.045  25.129  0.00  0.00    +0.073 A 
ATOM     19  C   UNL     1     -16.678   1.816  25.045  0.00  0.00    +0.163 A 
BRANCH  19  21
ATOM     21  C   UNL     1     -17.027   0.786  26.030  0.00  0.00    +0.236 C 
BRANCH  21   3
ATOM      3  O   UNL     1     -16.395   1.063  27.283  0.00  0.00    -0.375 OA
ATOM     28  C   UNL     1     -17.352   1.204  28.320  0.00  0.00    +0.194 C 
ENDBRANCH  21   3
ENDBRANCH  19  21
ENDBRANCH  14  16
ENDBRANCH  10  14
BRANCH   9  15
ATOM     15  C   UNL     1     -14.459   7.013  21.495  0.00  0.00    +0.099 C 
BRANCH  15  17
ATOM      1  O   UNL     1     -12.412   5.734  21.651  0.00  0.00    -0.276 OA
ATOM      7  N   UNL     1     -12.422   7.730  20.460  0.00  0.00    -0.311 N 
ATOM     17  C   UNL     1     -12.996   6.728  21.229  0.00  0.00    +0.214 C 
ATOM     32  H   UNL     1     -12.990   8.508  20.139  0.00  0.00    +0.149 HD
BRANCH   7  20
ATOM     20  C   UNL     1     -11.035   7.716  20.057  0.00  0.00    +0.139 C 
BRANCH  20  22
ATOM     22  C   UNL     1     -10.758   8.706  18.963  0.00  0.00    -0.027 A 
ATOM     23  C   UNL     1     -10.739   8.288  17.633  0.00  0.00    +0.054 A 
ATOM     24  C   UNL     1     -10.523  10.045  19.276  0.00  0.00    +0.009 A 
ATOM     25  C   UNL     1     -10.483   9.207  16.616  0.00  0.00    +0.162 A 
ATOM     26  C   UNL     1     -10.267  10.964  18.259  0.00  0.00    +0.050 A 
ATOM     27  C   UNL     1     -10.247  10.546  16.928  0.00  0.00    +0.162 A 
BRANCH  25   4
ATOM      4  O   UNL     1     -10.468   8.787  15.320  0.00  0.00    -0.491 OA
ATOM     29  C   UNL     1     -11.729   8.489  14.721  0.00  0.00    +0.277 C 
ENDBRANCH  25   4
BRANCH  27   5
ATOM      5  O   UNL     1      -9.997  11.454  15.944  0.00  0.00    -0.491 OA
ATOM     30  C   UNL     1      -9.107  12.523  16.260  0.00  0.00    +0.277 C 
ENDBRANCH  27   5
ENDBRANCH  20  22
ENDBRANCH   7  20
ENDBRANCH  15  17
ENDBRANCH   9  15
TORSDOF 10
ENDMDL
MODEL 10
REMARK VINA RESULT:      -6.0      2.245      6.983
REMARK  Name = 26743040
REMARK  13 active torsions:
REMARK  status: ('A' for Active; 'I' for Inactive)
REMARK    1  A    between atoms: O_3  and  C_21
REMARK    2  A    between atoms: O_3  and  C_28
REMARK    3  A    between atoms: O_4  and  C_25
REMARK    4  A    between atoms: O_4  and  C_29
REMARK    5  A    between atoms: O_5  and  C_27
REMARK    6  A    between atoms: O_5  and  C_30
REMARK    7  A    between atoms: N_7  and  C_20
REMARK    8  A    between atoms: C_9  and  C_15
REMARK    9  A    between atoms: C_10  and  C_14
REMARK   10  A    between atoms: C_14  and  C_16
REMARK   11  A    between atoms: C_15  and  C_17
REMARK   12  A    between atoms: C_19  and  C_21
REMARK   13  A    between atoms: C_20  and  C_22
REMARK                            x       y       z     vdW  Elec       q    Type
REMARK                         _______ _______ _______ _____ _____    ______ ____
ROOT
ATOM      6  N   UNL     1      13.114  10.889  15.646  0.00  0.00    -0.316 NA
ATOM      9  C   UNL     1      12.761   8.976  17.865  0.00  0.00    +0.004 C 
ATOM     10  C   UNL     1      13.403  10.370  18.057  0.00  0.00    +0.012 C 
ATOM     11  C   UNL     1      11.845   9.012  16.630  0.00  0.00    +0.019 C 
ATOM     12  C   UNL     1      14.060  10.876  16.762  0.00  0.00    +0.085 C 
ATOM     13  C   UNL     1      12.554   9.563  15.393  0.00  0.00    +0.081 C 
ATOM     31  H   UNL     1      13.586  11.221  14.806  0.00  0.00    +0.122 HD
ENDROOT
BRANCH  10  14
ATOM     14  C   UNL     1      14.398  10.417  19.218  0.00  0.00    +0.064 C 
BRANCH  14  16
ATOM      2  O   UNL     1      13.521  11.334  22.586  0.00  0.00    -0.357 OA
ATOM      8  N   UNL     1      14.448  11.055  21.589  0.00  0.00    -0.083 NA
ATOM     16  C   UNL     1      13.717  10.770  20.508  0.00  0.00    +0.084 A 
ATOM     18  C   UNL     1      12.337  10.852  20.760  0.00  0.00    +0.073 A 
ATOM     19  C   UNL     1      12.268  11.209  22.080  0.00  0.00    +0.163 A 
BRANCH  19  21
ATOM     21  C   UNL     1      11.159  11.470  23.006  0.00  0.00    +0.236 C 
BRANCH  21   3
ATOM      3  O   UNL     1      11.541  11.140  24.344  0.00  0.00    -0.375 OA
ATOM     28  C   UNL     1      10.984  12.053  25.276  0.00  0.00    +0.194 C 
ENDBRANCH  21   3
ENDBRANCH  19  21
ENDBRANCH  14  16
ENDBRANCH  10  14
BRANCH   9  15
ATOM     15  C   UNL     1      13.774   7.830  17.759  0.00  0.00    +0.099 C 
BRANCH  15  17
ATOM      1  O   UNL     1      13.214   6.985  19.955  0.00  0.00    -0.276 OA
ATOM      7  N   UNL     1      15.422   6.910  19.233  0.00  0.00    -0.311 N 
ATOM     17  C   UNL     1      14.071   7.201  19.103  0.00  0.00    +0.214 C 
ATOM     32  H   UNL     1      16.056   7.107  18.465  0.00  0.00    +0.149 HD
BRANCH   7  20
ATOM     20  C   UNL     1      15.987   6.305  20.416  0.00  0.00    +0.139 C 
BRANCH  20  22
ATOM     22  C   UNL     1      17.110   7.124  20.985  0.00  0.00    -0.027 A 
ATOM     23  C   UNL     1      16.976   8.507  21.098  0.00  0.00    +0.054 A 
ATOM     24  C   UNL     1      18.286   6.502  21.402  0.00  0.00    +0.009 A 
ATOM     25  C   UNL     1      18.017   9.269  21.627  0.00  0.00    +0.162 A 
ATOM     26  C   UNL     1      19.328   7.263  21.931  0.00  0.00    +0.050 A 
ATOM     27  C   UNL     1      19.194   8.647  22.044  0.00  0.00    +0.162 A 
BRANCH  25   4
ATOM      4  O   UNL     1      17.874  10.619  21.734  0.00  0.00    -0.491 OA
ATOM     29  C   UNL     1      17.991  11.380  20.532  0.00  0.00    +0.277 C 
ENDBRANCH  25   4
BRANCH  27   5
ATOM      5  O   UNL     1      20.219   9.379  22.563  0.00  0.00    -0.491 OA
ATOM     30  C   UNL     1      21.459   9.348  21.860  0.00  0.00    +0.277 C 
ENDBRANCH  27   5
ENDBRANCH  20  22
ENDBRANCH   7  20
ENDBRANCH  15  17
ENDBRANCH   9  15
TORSDOF 10
ENDMDL
