MODEL 1
REMARK VINA RESULT:      -6.3      0.000      0.000
REMARK  Name = 75536177
REMARK  13 active torsions:
REMARK  status: ('A' for Active; 'I' for Inactive)
REMARK    1  A    between atoms: O_3  and  C_31
REMARK    2  A    between atoms: N_5  and  C_15
REMARK    3  A    between atoms: C_8  and  C_12
REMARK    4  A    between atoms: C_9  and  C_15
REMARK    5  A    between atoms: C_11  and  C_16
REMARK    6  A    between atoms: C_12  and  C_17
REMARK    7  A    between atoms: C_12  and  C_18
REMARK    8  A    between atoms: C_13  and  C_19
REMARK    9  A    between atoms: C_16  and  C_20
REMARK   10  A    between atoms: C_21  and  C_24
REMARK   11  A    between atoms: C_24  and  C_25
REMARK   12  A    between atoms: C_25  and  C_30
REMARK   13  A    between atoms: C_30  and  C_31
REMARK                            x       y       z     vdW  Elec       q    Type
REMARK                         _______ _______ _______ _____ _____    ______ ____
ROOT
ATOM      8  C   UNL     1      14.804  12.218  21.121  0.00  0.00    +0.000 C 
ATOM      9  C   UNL     1      13.593  12.344  20.164  0.00  0.00    +0.032 C 
ATOM     10  C   UNL     1      15.966  11.494  20.423  0.00  0.00    +0.012 C 
ATOM     11  C   UNL     1      15.571  10.083  19.949  0.00  0.00    +0.022 C 
ATOM     13  C   UNL     1      14.241  10.085  19.222  0.00  0.00    -0.073 C 
ATOM     14  C   UNL     1      13.376  11.110  19.320  0.00  0.00    -0.022 C 
ATOM     19  C   UNL     1      13.948   8.901  18.343  0.00  0.00    +0.039 C 
ENDROOT
BRANCH   8  12
ATOM     12  C   UNL     1      15.274  13.586  21.626  0.00  0.00    -0.013 C 
ATOM     17  C   UNL     1      16.204  13.421  22.825  0.00  0.00    +0.007 C 
ATOM     18  C   UNL     1      15.966  14.357  20.507  0.00  0.00    +0.007 C 
ENDBRANCH   8  12
BRANCH   9  15
ATOM     15  C   UNL     1      12.308  12.666  20.936  0.00  0.00    +0.112 C 
BRANCH  15   5
ATOM      2  O   UNL     1      12.232  11.446  23.533  0.00  0.00    -0.276 OA
ATOM      5  N   UNL     1      11.617  11.467  21.294  0.00  0.00    -0.315 N 
ATOM     21  C   UNL     1      11.634  10.942  22.586  0.00  0.00    +0.213 C 
ATOM     32  H   UNL     1      10.998  11.039  20.612  0.00  0.00    +0.149 HD
BRANCH  21  24
ATOM     24  C   UNL     1      10.844   9.648  22.691  0.00  0.00    +0.096 C 
BRANCH  24  25
ATOM     25  C   UNL     1      10.979   8.746  21.464  0.00  0.00    +0.020 C 
BRANCH  25  30
ATOM     30  C   UNL     1      12.161   7.781  21.579  0.00  0.00    +0.121 C 
BRANCH  30  31
ATOM      4  O   UNL     1      11.957   6.377  19.602  0.00  0.00    -0.251 OA
ATOM     31  C   UNL     1      11.917   6.498  20.818  0.00  0.00    +0.305 C 
BRANCH  31   3
ATOM      3  O   UNL     1      11.643   5.467  21.658  0.00  0.00    -0.481 OA
ATOM     34  H   UNL     1      10.692   5.229  21.647  0.00  0.00    +0.295 HD
ENDBRANCH  31   3
ENDBRANCH  30  31
ENDBRANCH  25  30
ENDBRANCH  24  25
ENDBRANCH  21  24
ENDBRANCH  15   5
ENDBRANCH   9  15
BRANCH  11  16
ATOM     16  C   UNL     1      15.557   9.090  21.116  0.00  0.00    +0.082 C 
BRANCH  16  20
ATOM      1 CL   UNL     1      22.105   5.422  22.428  0.00  0.00    -0.083 Cl
ATOM      6  N   UNL     1      17.742   8.263  22.010  0.00  0.00    -0.342 N 
ATOM      7  N   UNL     1      16.987   7.235  20.190  0.00  0.00    -0.232 NA
ATOM     20  C   UNL     1      16.749   8.178  21.074  0.00  0.00    +0.109 A 
ATOM     22  C   UNL     1      18.683   7.311  21.710  0.00  0.00    +0.068 A 
ATOM     23  C   UNL     1      18.189   6.684  20.570  0.00  0.00    +0.089 A 
ATOM     26  C   UNL     1      19.886   6.957  22.319  0.00  0.00    +0.047 A 
ATOM     27  C   UNL     1      18.926   5.638  19.989  0.00  0.00    +0.031 A 
ATOM     28  C   UNL     1      20.608   5.914  21.728  0.00  0.00    +0.043 A 
ATOM     29  C   UNL     1      20.138   5.264  20.584  0.00  0.00    +0.022 A 
ATOM     33  H   UNL     1      17.778   8.910  22.786  0.00  0.00    +0.167 HD
ENDBRANCH  16  20
ENDBRANCH  11  16
TORSDOF 10
ENDMDL
MODEL 2
REMARK VINA RESULT:      -6.2      4.043      7.915
REMARK  Name = 75536177
REMARK  13 active torsions:
REMARK  status: ('A' for Active; 'I' for Inactive)
REMARK    1  A    between atoms: O_3  and  C_31
REMARK    2  A    between atoms: N_5  and  C_15
REMARK    3  A    between atoms: C_8  and  C_12
REMARK    4  A    between atoms: C_9  and  C_15
REMARK    5  A    between atoms: C_11  and  C_16
REMARK    6  A    between atoms: C_12  and  C_17
REMARK    7  A    between atoms: C_12  and  C_18
REMARK    8  A    between atoms: C_13  and  C_19
REMARK    9  A    between atoms: C_16  and  C_20
REMARK   10  A    between atoms: C_21  and  C_24
REMARK   11  A    between atoms: C_24  and  C_25
REMARK   12  A    between atoms: C_25  and  C_30
REMARK   13  A    between atoms: C_30  and  C_31
REMARK                            x       y       z     vdW  Elec       q    Type
REMARK                         _______ _______ _______ _____ _____    ______ ____
ROOT
ATOM      8  C   UNL     1      14.550   8.773  20.603  0.00  0.00    +0.000 C 
ATOM      9  C   UNL     1      14.204   7.287  20.338  0.00  0.00    +0.032 C 
ATOM     10  C   UNL     1      13.980   9.222  21.958  0.00  0.00    +0.012 C 
ATOM     11  C   UNL     1      12.450   9.057  22.029  0.00  0.00    +0.022 C 
ATOM     13  C   UNL     1      12.007   7.698  21.526  0.00  0.00    -0.073 C 
ATOM     14  C   UNL     1      12.809   6.916  20.782  0.00  0.00    -0.022 C 
ATOM     19  C   UNL     1      10.635   7.239  21.935  0.00  0.00    +0.039 C 
ENDROOT
BRANCH   8  12
ATOM     12  C   UNL     1      16.062   9.021  20.569  0.00  0.00    -0.013 C 
ATOM     17  C   UNL     1      16.389  10.394  21.148  0.00  0.00    +0.007 C 
ATOM     18  C   UNL     1      16.798   7.923  21.329  0.00  0.00    +0.007 C 
ENDBRANCH   8  12
BRANCH   9  15
ATOM     15  C   UNL     1      14.379   6.935  18.856  0.00  0.00    +0.112 C 
BRANCH  15   5
ATOM      2  O   UNL     1      11.903   7.266  17.442  0.00  0.00    -0.276 OA
ATOM      5  N   UNL     1      14.013   8.039  18.026  0.00  0.00    -0.315 N 
ATOM     21  C   UNL     1      12.783   8.120  17.372  0.00  0.00    +0.213 C 
ATOM     32  H   UNL     1      14.623   8.851  17.997  0.00  0.00    +0.149 HD
BRANCH  21  24
ATOM     24  C   UNL     1      12.660   9.381  16.534  0.00  0.00    +0.096 C 
BRANCH  24  25
ATOM     25  C   UNL     1      13.953   9.772  15.820  0.00  0.00    +0.020 C 
BRANCH  25  30
ATOM     30  C   UNL     1      14.162  11.288  15.784  0.00  0.00    +0.121 C 
BRANCH  30  31
ATOM      4  O   UNL     1      15.195  11.441  17.983  0.00  0.00    -0.251 OA
ATOM     31  C   UNL     1      14.386  11.858  17.166  0.00  0.00    +0.305 C 
BRANCH  31   3
ATOM      3  O   UNL     1      13.569  12.916  17.405  0.00  0.00    -0.481 OA
ATOM     34  H   UNL     1      13.398  13.037  18.363  0.00  0.00    +0.295 HD
ENDBRANCH  31   3
ENDBRANCH  30  31
ENDBRANCH  25  30
ENDBRANCH  24  25
ENDBRANCH  21  24
ENDBRANCH  15   5
ENDBRANCH   9  15
BRANCH  11  16
ATOM     16  C   UNL     1      11.736  10.182  21.273  0.00  0.00    +0.082 C 
BRANCH  16  20
ATOM      1 CL   UNL     1      10.618  14.814  27.219  0.00  0.00    -0.083 Cl
ATOM      6  N   UNL     1      11.571  11.234  23.536  0.00  0.00    -0.342 N 
ATOM      7  N   UNL     1      10.940  12.507  21.828  0.00  0.00    -0.232 NA
ATOM     20  C   UNL     1      11.405  11.330  22.184  0.00  0.00    +0.109 A 
ATOM     22  C   UNL     1      11.188  12.429  24.091  0.00  0.00    +0.068 A 
ATOM     23  C   UNL     1      10.798  13.205  23.004  0.00  0.00    +0.089 A 
ATOM     26  C   UNL     1      11.150  12.881  25.410  0.00  0.00    +0.047 A 
ATOM     27  C   UNL     1      10.340  14.515  23.227  0.00  0.00    +0.031 A 
ATOM     28  C   UNL     1      10.692  14.187  25.614  0.00  0.00    +0.043 A 
ATOM     29  C   UNL     1      10.293  14.992  24.544  0.00  0.00    +0.022 A 
ATOM     33  H   UNL     1      11.915  10.428  24.041  0.00  0.00    +0.167 HD
ENDBRANCH  16  20
ENDBRANCH  11  16
TORSDOF 10
ENDMDL
MODEL 3
REMARK VINA RESULT:      -6.1     27.776     30.351
REMARK  Name = 75536177
REMARK  13 active torsions:
REMARK  status: ('A' for Active; 'I' for Inactive)
REMARK    1  A    between atoms: O_3  and  C_31
REMARK    2  A    between atoms: N_5  and  C_15
REMARK    3  A    between atoms: C_8  and  C_12
REMARK    4  A    between atoms: C_9  and  C_15
REMARK    5  A    between atoms: C_11  and  C_16
REMARK    6  A    between atoms: C_12  and  C_17
REMARK    7  A    between atoms: C_12  and  C_18
REMARK    8  A    between atoms: C_13  and  C_19
REMARK    9  A    between atoms: C_16  and  C_20
REMARK   10  A    between atoms: C_21  and  C_24
REMARK   11  A    between atoms: C_24  and  C_25
REMARK   12  A    between atoms: C_25  and  C_30
REMARK   13  A    between atoms: C_30  and  C_31
REMARK                            x       y       z     vdW  Elec       q    Type
REMARK                         _______ _______ _______ _____ _____    ______ ____
ROOT
ATOM      8  C   UNL     1      -3.012 -12.439  13.423  0.00  0.00    +0.000 C 
ATOM      9  C   UNL     1      -1.838 -11.460  13.676  0.00  0.00    +0.032 C 
ATOM     10  C   UNL     1      -3.171 -12.707  11.918  0.00  0.00    +0.012 C 
ATOM     11  C   UNL     1      -3.433 -11.415  11.122  0.00  0.00    +0.022 C 
ATOM     13  C   UNL     1      -2.476 -10.308  11.514  0.00  0.00    -0.073 C 
ATOM     14  C   UNL     1      -1.762 -10.352  12.652  0.00  0.00    -0.022 C 
ATOM     19  C   UNL     1      -2.324  -9.169  10.544  0.00  0.00    +0.039 C 
ENDROOT
BRANCH   8  12
ATOM     12  C   UNL     1      -2.818 -13.764  14.167  0.00  0.00    -0.013 C 
ATOM     17  C   UNL     1      -4.109 -14.578  14.151  0.00  0.00    +0.007 C 
ATOM     18  C   UNL     1      -1.670 -14.557  13.553  0.00  0.00    +0.007 C 
ENDBRANCH   8  12
BRANCH   9  15
ATOM     15  C   UNL     1      -1.917 -10.853  15.082  0.00  0.00    +0.112 C 
BRANCH  15   5
ATOM      2  O   UNL     1      -3.533 -11.360  17.399  0.00  0.00    -0.276 OA
ATOM      5  N   UNL     1      -3.225 -10.336  15.338  0.00  0.00    -0.315 N 
ATOM     21  C   UNL     1      -3.943 -10.636  16.496  0.00  0.00    +0.213 C 
ATOM     32  H   UNL     1      -3.604  -9.635  14.708  0.00  0.00    +0.149 HD
BRANCH  21  24
ATOM     24  C   UNL     1      -5.314  -9.982  16.506  0.00  0.00    +0.096 C 
BRANCH  24  25
ATOM     25  C   UNL     1      -6.378 -10.798  17.239  0.00  0.00    +0.020 C 
BRANCH  25  30
ATOM     30  C   UNL     1      -6.536 -10.370  18.700  0.00  0.00    +0.121 C 
BRANCH  30  31
ATOM      4  O   UNL     1      -5.911 -11.305  20.858  0.00  0.00    -0.251 OA
ATOM     31  C   UNL     1      -6.077 -11.448  19.655  0.00  0.00    +0.305 C 
BRANCH  31   3
ATOM      3  O   UNL     1      -5.866 -12.625  19.011  0.00  0.00    -0.481 OA
ATOM     34  H   UNL     1      -6.682 -13.166  18.963  0.00  0.00    +0.295 HD
ENDBRANCH  31   3
ENDBRANCH  30  31
ENDBRANCH  25  30
ENDBRANCH  24  25
ENDBRANCH  21  24
ENDBRANCH  15   5
ENDBRANCH   9  15
BRANCH  11  16
ATOM     16  C   UNL     1      -4.889 -10.959  11.270  0.00  0.00    +0.082 C 
BRANCH  16  20
ATOM      1 CL   UNL     1      -8.738  -7.321   5.793  0.00  0.00    -0.083 Cl
ATOM      6  N   UNL     1      -6.417  -9.496   9.936  0.00  0.00    -0.342 N 
ATOM      7  N   UNL     1      -5.081 -10.828   8.762  0.00  0.00    -0.232 NA
ATOM     20  C   UNL     1      -5.440 -10.450   9.968  0.00  0.00    +0.109 A 
ATOM     22  C   UNL     1      -6.709  -9.241   8.620  0.00  0.00    +0.068 A 
ATOM     23  C   UNL     1      -5.863 -10.085   7.908  0.00  0.00    +0.089 A 
ATOM     26  C   UNL     1      -7.614  -8.370   8.012  0.00  0.00    +0.047 A 
ATOM     27  C   UNL     1      -5.906 -10.074   6.503  0.00  0.00    +0.031 A 
ATOM     28  C   UNL     1      -7.645  -8.372   6.613  0.00  0.00    +0.043 A 
ATOM     29  C   UNL     1      -6.808  -9.207   5.870  0.00  0.00    +0.022 A 
ATOM     33  H   UNL     1      -6.849  -9.055  10.737  0.00  0.00    +0.167 HD
ENDBRANCH  16  20
ENDBRANCH  11  16
TORSDOF 10
ENDMDL
MODEL 4
REMARK VINA RESULT:      -5.9     15.755     18.252
REMARK  Name = 75536177
REMARK  13 active torsions:
REMARK  status: ('A' for Active; 'I' for Inactive)
REMARK    1  A    between atoms: O_3  and  C_31
REMARK    2  A    between atoms: N_5  and  C_15
REMARK    3  A    between atoms: C_8  and  C_12
REMARK    4  A    between atoms: C_9  and  C_15
REMARK    5  A    between atoms: C_11  and  C_16
REMARK    6  A    between atoms: C_12  and  C_17
REMARK    7  A    between atoms: C_12  and  C_18
REMARK    8  A    between atoms: C_13  and  C_19
REMARK    9  A    between atoms: C_16  and  C_20
REMARK   10  A    between atoms: C_21  and  C_24
REMARK   11  A    between atoms: C_24  and  C_25
REMARK   12  A    between atoms: C_25  and  C_30
REMARK   13  A    between atoms: C_30  and  C_31
REMARK                            x       y       z     vdW  Elec       q    Type
REMARK                         _______ _______ _______ _____ _____    ______ ____
ROOT
ATOM      8  C   UNL     1       8.752   8.668   5.330  0.00  0.00    +0.000 C 
ATOM      9  C   UNL     1       8.454   7.825   6.596  0.00  0.00    +0.032 C 
ATOM     10  C   UNL     1       8.550   7.822   4.063  0.00  0.00    +0.012 C 
ATOM     11  C   UNL     1       9.457   6.577   4.045  0.00  0.00    +0.022 C 
ATOM     13  C   UNL     1       9.423   5.835   5.366  0.00  0.00    -0.073 C 
ATOM     14  C   UNL     1       8.959   6.405   6.492  0.00  0.00    -0.022 C 
ATOM     19  C   UNL     1       9.891   4.407   5.353  0.00  0.00    +0.039 C 
ENDROOT
BRANCH   8  12
ATOM     12  C   UNL     1       7.874   9.921   5.262  0.00  0.00    -0.013 C 
ATOM     17  C   UNL     1       8.737  11.168   5.094  0.00  0.00    +0.007 C 
ATOM     18  C   UNL     1       6.865   9.803   4.124  0.00  0.00    +0.007 C 
ENDBRANCH   8  12
BRANCH   9  15
ATOM     15  C   UNL     1       9.039   8.485   7.850  0.00  0.00    +0.112 C 
BRANCH  15   5
ATOM      2  O   UNL     1      10.206  11.051   8.390  0.00  0.00    -0.276 OA
ATOM      5  N   UNL     1      10.401   8.864   7.636  0.00  0.00    -0.315 N 
ATOM     21  C   UNL     1      10.886  10.139   7.927  0.00  0.00    +0.213 C 
ATOM     32  H   UNL     1      11.069   8.148   7.366  0.00  0.00    +0.149 HD
BRANCH  21  24
ATOM     24  C   UNL     1      12.357  10.287   7.580  0.00  0.00    +0.096 C 
BRANCH  24  25
ATOM     25  C   UNL     1      12.767   9.539   6.311  0.00  0.00    +0.020 C 
BRANCH  25  30
ATOM     30  C   UNL     1      14.012   8.675   6.522  0.00  0.00    +0.121 C 
BRANCH  30  31
ATOM      4  O   UNL     1      13.230   6.521   7.341  0.00  0.00    -0.251 OA
ATOM     31  C   UNL     1      13.695   7.200   6.436  0.00  0.00    +0.305 C 
BRANCH  31   3
ATOM      3  O   UNL     1      13.988   6.699   5.208  0.00  0.00    -0.481 OA
ATOM     34  H   UNL     1      13.700   5.766   5.115  0.00  0.00    +0.295 HD
ENDBRANCH  31   3
ENDBRANCH  30  31
ENDBRANCH  25  30
ENDBRANCH  24  25
ENDBRANCH  21  24
ENDBRANCH  15   5
ENDBRANCH   9  15
BRANCH  11  16
ATOM     16  C   UNL     1      10.894   6.945   3.659  0.00  0.00    +0.082 C 
BRANCH  16  20
ATOM      1 CL   UNL     1      11.815   2.555  -2.500  0.00  0.00    -0.083 Cl
ATOM      6  N   UNL     1      10.623   5.642   1.542  0.00  0.00    -0.342 N 
ATOM      7  N   UNL     1      12.634   5.555   2.482  0.00  0.00    -0.232 NA
ATOM     20  C   UNL     1      11.419   6.046   2.576  0.00  0.00    +0.109 A 
ATOM     22  C   UNL     1      11.375   4.838   0.724  0.00  0.00    +0.068 A 
ATOM     23  C   UNL     1      12.626   4.799   1.333  0.00  0.00    +0.089 A 
ATOM     26  C   UNL     1      11.077   4.162  -0.459  0.00  0.00    +0.047 A 
ATOM     27  C   UNL     1      13.653   4.046   0.740  0.00  0.00    +0.031 A 
ATOM     28  C   UNL     1      12.111   3.417  -1.036  0.00  0.00    +0.043 A 
ATOM     29  C   UNL     1      13.377   3.358  -0.449  0.00  0.00    +0.022 A 
ATOM     33  H   UNL     1       9.653   5.892   1.401  0.00  0.00    +0.167 HD
ENDBRANCH  16  20
ENDBRANCH  11  16
TORSDOF 10
ENDMDL
MODEL 5
REMARK VINA RESULT:      -5.6     14.645     16.710
REMARK  Name = 75536177
REMARK  13 active torsions:
REMARK  status: ('A' for Active; 'I' for Inactive)
REMARK    1  A    between atoms: O_3  and  C_31
REMARK    2  A    between atoms: N_5  and  C_15
REMARK    3  A    between atoms: C_8  and  C_12
REMARK    4  A    between atoms: C_9  and  C_15
REMARK    5  A    between atoms: C_11  and  C_16
REMARK    6  A    between atoms: C_12  and  C_17
REMARK    7  A    between atoms: C_12  and  C_18
REMARK    8  A    between atoms: C_13  and  C_19
REMARK    9  A    between atoms: C_16  and  C_20
REMARK   10  A    between atoms: C_21  and  C_24
REMARK   11  A    between atoms: C_24  and  C_25
REMARK   12  A    between atoms: C_25  and  C_30
REMARK   13  A    between atoms: C_30  and  C_31
REMARK                            x       y       z     vdW  Elec       q    Type
REMARK                         _______ _______ _______ _____ _____    ______ ____
ROOT
ATOM      8  C   UNL     1      12.935   7.681   2.675  0.00  0.00    +0.000 C 
ATOM      9  C   UNL     1      11.868   7.326   3.740  0.00  0.00    +0.032 C 
ATOM     10  C   UNL     1      14.243   6.924   2.953  0.00  0.00    +0.012 C 
ATOM     11  C   UNL     1      14.817   7.248   4.345  0.00  0.00    +0.022 C 
ATOM     13  C   UNL     1      13.754   7.181   5.423  0.00  0.00    -0.073 C 
ATOM     14  C   UNL     1      12.441   7.204   5.132  0.00  0.00    -0.022 C 
ATOM     19  C   UNL     1      14.234   7.041   6.841  0.00  0.00    +0.039 C 
ENDROOT
BRANCH   8  12
ATOM     12  C   UNL     1      12.448   7.368   1.256  0.00  0.00    -0.013 C 
ATOM     17  C   UNL     1      13.569   7.596   0.246  0.00  0.00    +0.007 C 
ATOM     18  C   UNL     1      11.929   5.937   1.175  0.00  0.00    +0.007 C 
ENDBRANCH   8  12
BRANCH   9  15
ATOM     15  C   UNL     1      10.729   8.353   3.745  0.00  0.00    +0.112 C 
BRANCH  15   5
ATOM      2  O   UNL     1       8.129   7.269   4.295  0.00  0.00    -0.276 OA
ATOM      5  N   UNL     1      10.054   8.355   5.005  0.00  0.00    -0.315 N 
ATOM     21  C   UNL     1       8.785   7.804   5.184  0.00  0.00    +0.213 C 
ATOM     32  H   UNL     1      10.560   8.668   5.828  0.00  0.00    +0.149 HD
BRANCH  21  24
ATOM     24  C   UNL     1       8.286   7.963   6.610  0.00  0.00    +0.096 C 
BRANCH  24  25
ATOM     25  C   UNL     1       9.103   7.180   7.638  0.00  0.00    +0.020 C 
BRANCH  25  30
ATOM     30  C   UNL     1       9.313   5.722   7.225  0.00  0.00    +0.121 C 
BRANCH  30  31
ATOM      4  O   UNL     1       9.853   4.072   8.931  0.00  0.00    -0.251 OA
ATOM     31  C   UNL     1      10.205   4.985   8.198  0.00  0.00    +0.305 C 
BRANCH  31   3
ATOM      3  O   UNL     1      11.477   5.460   8.164  0.00  0.00    -0.481 OA
ATOM     34  H   UNL     1      11.574   6.198   7.525  0.00  0.00    +0.295 HD
ENDBRANCH  31   3
ENDBRANCH  30  31
ENDBRANCH  25  30
ENDBRANCH  24  25
ENDBRANCH  21  24
ENDBRANCH  15   5
ENDBRANCH   9  15
BRANCH  11  16
ATOM     16  C   UNL     1      15.519   8.611   4.351  0.00  0.00    +0.082 C 
BRANCH  16  20
ATOM      1 CL   UNL     1      23.011   7.287   4.757  0.00  0.00    -0.083 Cl
ATOM      6  N   UNL     1      17.901   7.981   3.925  0.00  0.00    -0.342 N 
ATOM      7  N   UNL     1      17.466   8.825   5.934  0.00  0.00    -0.232 NA
ATOM     20  C   UNL     1      16.955   8.487   4.771  0.00  0.00    +0.109 A 
ATOM     22  C   UNL     1      19.103   7.993   4.585  0.00  0.00    +0.068 A 
ATOM     23  C   UNL     1      18.805   8.523   5.836  0.00  0.00    +0.089 A 
ATOM     26  C   UNL     1      20.386   7.597   4.205  0.00  0.00    +0.047 A 
ATOM     27  C   UNL     1      19.836   8.676   6.779  0.00  0.00    +0.031 A 
ATOM     28  C   UNL     1      21.400   7.755   5.156  0.00  0.00    +0.043 A 
ATOM     29  C   UNL     1      21.133   8.284   6.421  0.00  0.00    +0.022 A 
ATOM     33  H   UNL     1      17.745   7.656   2.979  0.00  0.00    +0.167 HD
ENDBRANCH  16  20
ENDBRANCH  11  16
TORSDOF 10
ENDMDL
MODEL 6
REMARK VINA RESULT:      -5.5      3.882      6.862
REMARK  Name = 75536177
REMARK  13 active torsions:
REMARK  status: ('A' for Active; 'I' for Inactive)
REMARK    1  A    between atoms: O_3  and  C_31
REMARK    2  A    between atoms: N_5  and  C_15
REMARK    3  A    between atoms: C_8  and  C_12
REMARK    4  A    between atoms: C_9  and  C_15
REMARK    5  A    between atoms: C_11  and  C_16
REMARK    6  A    between atoms: C_12  and  C_17
REMARK    7  A    between atoms: C_12  and  C_18
REMARK    8  A    between atoms: C_13  and  C_19
REMARK    9  A    between atoms: C_16  and  C_20
REMARK   10  A    between atoms: C_21  and  C_24
REMARK   11  A    between atoms: C_24  and  C_25
REMARK   12  A    between atoms: C_25  and  C_30
REMARK   13  A    between atoms: C_30  and  C_31
REMARK                            x       y       z     vdW  Elec       q    Type
REMARK                         _______ _______ _______ _____ _____    ______ ____
ROOT
ATOM      8  C   UNL     1      15.188   8.110  20.382  0.00  0.00    +0.000 C 
ATOM      9  C   UNL     1      14.402   7.086  19.525  0.00  0.00    +0.032 C 
ATOM     10  C   UNL     1      14.683   8.094  21.834  0.00  0.00    +0.012 C 
ATOM     11  C   UNL     1      13.182   8.427  21.930  0.00  0.00    +0.022 C 
ATOM     13  C   UNL     1      12.365   7.646  20.921  0.00  0.00    -0.073 C 
ATOM     14  C   UNL     1      12.929   7.043  19.860  0.00  0.00    -0.022 C 
ATOM     19  C   UNL     1      10.889   7.536  21.184  0.00  0.00    +0.039 C 
ENDROOT
BRANCH   8  12
ATOM     12  C   UNL     1      16.695   7.835  20.356  0.00  0.00    -0.013 C 
ATOM     17  C   UNL     1      17.437   8.852  21.218  0.00  0.00    +0.007 C 
ATOM     18  C   UNL     1      16.986   6.413  20.824  0.00  0.00    +0.007 C 
ENDBRANCH   8  12
BRANCH   9  15
ATOM     15  C   UNL     1      14.577   7.368  18.028  0.00  0.00    +0.112 C 
BRANCH  15   5
ATOM      2  O   UNL     1      14.025   8.373  15.397  0.00  0.00    -0.276 OA
ATOM      5  N   UNL     1      14.094   8.673  17.698  0.00  0.00    -0.315 N 
ATOM     21  C   UNL     1      13.852   9.080  16.386  0.00  0.00    +0.213 C 
ATOM     32  H   UNL     1      13.809   9.292  18.451  0.00  0.00    +0.149 HD
BRANCH  21  24
ATOM     24  C   UNL     1      13.371  10.519  16.311  0.00  0.00    +0.096 C 
BRANCH  24  25
ATOM     25  C   UNL     1      14.503  11.546  16.328  0.00  0.00    +0.020 C 
BRANCH  25  30
ATOM     30  C   UNL     1      14.884  12.016  14.923  0.00  0.00    +0.121 C 
BRANCH  30  31
ATOM      4  O   UNL     1      17.235  11.476  14.600  0.00  0.00    -0.251 OA
ATOM     31  C   UNL     1      16.058  11.241  14.369  0.00  0.00    +0.305 C 
BRANCH  31   3
ATOM      3  O   UNL     1      15.648  10.225  13.566  0.00  0.00    -0.481 OA
ATOM     34  H   UNL     1      14.802  10.434  13.116  0.00  0.00    +0.295 HD
ENDBRANCH  31   3
ENDBRANCH  30  31
ENDBRANCH  25  30
ENDBRANCH  24  25
ENDBRANCH  21  24
ENDBRANCH  15   5
ENDBRANCH   9  15
BRANCH  11  16
ATOM     16  C   UNL     1      12.940   9.934  21.785  0.00  0.00    +0.082 C 
BRANCH  16  20
ATOM      1 CL   UNL     1      16.620  13.289  27.551  0.00  0.00    -0.083 Cl
ATOM      6  N   UNL     1      13.733  10.759  24.009  0.00  0.00    -0.342 N 
ATOM      7  N   UNL     1      14.897  11.450  22.246  0.00  0.00    -0.232 NA
ATOM     20  C   UNL     1      13.877  10.726  22.650  0.00  0.00    +0.109 A 
ATOM     22  C   UNL     1      14.727  11.556  24.516  0.00  0.00    +0.068 A 
ATOM     23  C   UNL     1      15.439  11.976  23.396  0.00  0.00    +0.089 A 
ATOM     26  C   UNL     1      15.053  11.935  25.818  0.00  0.00    +0.047 A 
ATOM     27  C   UNL     1      16.546  12.825  23.566  0.00  0.00    +0.031 A 
ATOM     28  C   UNL     1      16.158  12.780  25.970  0.00  0.00    +0.043 A 
ATOM     29  C   UNL     1      16.893  13.218  24.866  0.00  0.00    +0.022 A 
ATOM     33  H   UNL     1      13.023  10.280  24.546  0.00  0.00    +0.167 HD
ENDBRANCH  16  20
ENDBRANCH  11  16
TORSDOF 10
ENDMDL
MODEL 7
REMARK VINA RESULT:      -5.4     28.018     31.585
REMARK  Name = 75536177
REMARK  13 active torsions:
REMARK  status: ('A' for Active; 'I' for Inactive)
REMARK    1  A    between atoms: O_3  and  C_31
REMARK    2  A    between atoms: N_5  and  C_15
REMARK    3  A    between atoms: C_8  and  C_12
REMARK    4  A    between atoms: C_9  and  C_15
REMARK    5  A    between atoms: C_11  and  C_16
REMARK    6  A    between atoms: C_12  and  C_17
REMARK    7  A    between atoms: C_12  and  C_18
REMARK    8  A    between atoms: C_13  and  C_19
REMARK    9  A    between atoms: C_16  and  C_20
REMARK   10  A    between atoms: C_21  and  C_24
REMARK   11  A    between atoms: C_24  and  C_25
REMARK   12  A    between atoms: C_25  and  C_30
REMARK   13  A    between atoms: C_30  and  C_31
REMARK                            x       y       z     vdW  Elec       q    Type
REMARK                         _______ _______ _______ _____ _____    ______ ____
ROOT
ATOM      8  C   UNL     1     -14.610   5.313  32.052  0.00  0.00    +0.000 C 
ATOM      9  C   UNL     1     -16.114   5.676  31.974  0.00  0.00    +0.032 C 
ATOM     10  C   UNL     1     -13.974   5.931  33.307  0.00  0.00    +0.012 C 
ATOM     11  C   UNL     1     -14.106   7.466  33.329  0.00  0.00    +0.022 C 
ATOM     13  C   UNL     1     -15.514   7.915  32.993  0.00  0.00    -0.073 C 
ATOM     14  C   UNL     1     -16.401   7.097  32.400  0.00  0.00    -0.022 C 
ATOM     19  C   UNL     1     -15.894   9.312  33.397  0.00  0.00    +0.039 C 
ENDROOT
BRANCH   8  12
ATOM     12  C   UNL     1     -14.391   3.796  32.055  0.00  0.00    -0.013 C 
ATOM     17  C   UNL     1     -12.910   3.471  31.888  0.00  0.00    +0.007 C 
ATOM     18  C   UNL     1     -14.939   3.181  33.338  0.00  0.00    +0.007 C 
ENDBRANCH   8  12
BRANCH   9  15
ATOM     15  C   UNL     1     -16.666   5.445  30.562  0.00  0.00    +0.112 C 
BRANCH  15   5
ATOM      2  O   UNL     1     -16.183   3.965  28.151  0.00  0.00    -0.276 OA
ATOM      5  N   UNL     1     -16.938   4.059  30.345  0.00  0.00    -0.315 N 
ATOM     21  C   UNL     1     -16.671   3.416  29.136  0.00  0.00    +0.213 C 
ATOM     32  H   UNL     1     -17.232   3.490  31.133  0.00  0.00    +0.149 HD
BRANCH  21  24
ATOM     24  C   UNL     1     -17.079   1.953  29.161  0.00  0.00    +0.096 C 
BRANCH  24  25
ATOM     25  C   UNL     1     -15.979   1.001  28.693  0.00  0.00    +0.020 C 
BRANCH  25  30
ATOM     30  C   UNL     1     -14.747   1.046  29.598  0.00  0.00    +0.121 C 
BRANCH  30  31
ATOM      4  O   UNL     1     -14.956  -0.027  31.773  0.00  0.00    -0.251 OA
ATOM     31  C   UNL     1     -14.723  -0.108  30.575  0.00  0.00    +0.305 C 
BRANCH  31   3
ATOM      3  O   UNL     1     -14.408  -1.275  29.957  0.00  0.00    -0.481 OA
ATOM     34  H   UNL     1     -14.844  -1.355  29.082  0.00  0.00    +0.295 HD
ENDBRANCH  31   3
ENDBRANCH  30  31
ENDBRANCH  25  30
ENDBRANCH  24  25
ENDBRANCH  21  24
ENDBRANCH  15   5
ENDBRANCH   9  15
BRANCH  11  16
ATOM     16  C   UNL     1     -13.083   8.123  32.397  0.00  0.00    +0.082 C 
BRANCH  16  20
ATOM      1 CL   UNL     1      -6.880  11.934  34.643  0.00  0.00    -0.083 Cl
ATOM      6  N   UNL     1     -10.914   9.358  32.551  0.00  0.00    -0.342 N 
ATOM      7  N   UNL     1     -11.994   9.053  34.469  0.00  0.00    -0.232 NA
ATOM     20  C   UNL     1     -12.015   8.840  33.172  0.00  0.00    +0.109 A 
ATOM     22  C   UNL     1     -10.129   9.945  33.511  0.00  0.00    +0.068 A 
ATOM     23  C   UNL     1     -10.825   9.740  34.699  0.00  0.00    +0.089 A 
ATOM     26  C   UNL     1      -8.908  10.616  33.443  0.00  0.00    +0.047 A 
ATOM     27  C   UNL     1     -10.286  10.228  35.902  0.00  0.00    +0.031 A 
ATOM     28  C   UNL     1      -8.386  11.095  34.650  0.00  0.00    +0.043 A 
ATOM     29  C   UNL     1      -9.060  10.905  35.858  0.00  0.00    +0.022 A 
ATOM     33  H   UNL     1     -10.711   9.318  31.561  0.00  0.00    +0.167 HD
ENDBRANCH  16  20
ENDBRANCH  11  16
TORSDOF 10
ENDMDL
MODEL 8
REMARK VINA RESULT:      -5.4     16.294     18.605
REMARK  Name = 75536177
REMARK  13 active torsions:
REMARK  status: ('A' for Active; 'I' for Inactive)
REMARK    1  A    between atoms: O_3  and  C_31
REMARK    2  A    between atoms: N_5  and  C_15
REMARK    3  A    between atoms: C_8  and  C_12
REMARK    4  A    between atoms: C_9  and  C_15
REMARK    5  A    between atoms: C_11  and  C_16
REMARK    6  A    between atoms: C_12  and  C_17
REMARK    7  A    between atoms: C_12  and  C_18
REMARK    8  A    between atoms: C_13  and  C_19
REMARK    9  A    between atoms: C_16  and  C_20
REMARK   10  A    between atoms: C_21  and  C_24
REMARK   11  A    between atoms: C_24  and  C_25
REMARK   12  A    between atoms: C_25  and  C_30
REMARK   13  A    between atoms: C_30  and  C_31
REMARK                            x       y       z     vdW  Elec       q    Type
REMARK                         _______ _______ _______ _____ _____    ______ ____
ROOT
ATOM      8  C   UNL     1      10.716   9.403   4.513  0.00  0.00    +0.000 C 
ATOM      9  C   UNL     1       9.620  10.492   4.626  0.00  0.00    +0.032 C 
ATOM     10  C   UNL     1      10.947   9.026   3.041  0.00  0.00    +0.012 C 
ATOM     11  C   UNL     1       9.665   8.500   2.367  0.00  0.00    +0.022 C 
ATOM     13  C   UNL     1       8.471   9.386   2.659  0.00  0.00    -0.073 C 
ATOM     14  C   UNL     1       8.475  10.280   3.664  0.00  0.00    -0.022 C 
ATOM     19  C   UNL     1       7.289   9.255   1.739  0.00  0.00    +0.039 C 
ENDROOT
BRANCH   8  12
ATOM     12  C   UNL     1      12.036   9.856   5.145  0.00  0.00    -0.013 C 
ATOM     17  C   UNL     1      12.655   8.722   5.956  0.00  0.00    +0.007 C 
ATOM     18  C   UNL     1      13.001  10.342   4.069  0.00  0.00    +0.007 C 
ENDBRANCH   8  12
BRANCH   9  15
ATOM     15  C   UNL     1       9.076  10.583   6.056  0.00  0.00    +0.112 C 
BRANCH  15   5
ATOM      2  O   UNL     1      10.195   9.488   8.462  0.00  0.00    -0.276 OA
ATOM      5  N   UNL     1       8.836   9.280   6.591  0.00  0.00    -0.315 N 
ATOM     21  C   UNL     1       9.424   8.826   7.772  0.00  0.00    +0.213 C 
ATOM     32  H   UNL     1       8.123   8.699   6.159  0.00  0.00    +0.149 HD
BRANCH  21  24
ATOM     24  C   UNL     1       9.024   7.398   8.101  0.00  0.00    +0.096 C 
BRANCH  24  25
ATOM     25  C   UNL     1      10.179   6.401   8.011  0.00  0.00    +0.020 C 
BRANCH  25  30
ATOM     30  C   UNL     1       9.746   5.062   7.410  0.00  0.00    +0.121 C 
BRANCH  30  31
ATOM      4  O   UNL     1       9.346   4.457   5.086  0.00  0.00    -0.251 OA
ATOM     31  C   UNL     1      10.056   4.981   5.933  0.00  0.00    +0.305 C 
BRANCH  31   3
ATOM      3  O   UNL     1      11.243   5.575   5.642  0.00  0.00    -0.481 OA
ATOM     34  H   UNL     1      11.147   6.263   4.950  0.00  0.00    +0.295 HD
ENDBRANCH  31   3
ENDBRANCH  30  31
ENDBRANCH  25  30
ENDBRANCH  24  25
ENDBRANCH  21  24
ENDBRANCH  15   5
ENDBRANCH   9  15
BRANCH  11  16
ATOM     16  C   UNL     1       9.383   7.049   2.771  0.00  0.00    +0.082 C 
BRANCH  16  20
ATOM      1 CL   UNL     1      12.463   2.546  -2.548  0.00  0.00    -0.083 Cl
ATOM      6  N   UNL     1       9.943   5.777   0.692  0.00  0.00    -0.342 N 
ATOM      7  N   UNL     1      11.300   5.452   2.422  0.00  0.00    -0.232 NA
ATOM     20  C   UNL     1      10.232   6.087   1.991  0.00  0.00    +0.109 A 
ATOM     22  C   UNL     1      10.887   4.883   0.254  0.00  0.00    +0.068 A 
ATOM     23  C   UNL     1      11.721   4.696   1.352  0.00  0.00    +0.089 A 
ATOM     26  C   UNL     1      11.075   4.242  -0.970  0.00  0.00    +0.047 A 
ATOM     27  C   UNL     1      12.815   3.821   1.241  0.00  0.00    +0.031 A 
ATOM     28  C   UNL     1      12.168   3.374  -1.064  0.00  0.00    +0.043 A 
ATOM     29  C   UNL     1      13.024   3.165   0.020  0.00  0.00    +0.022 A 
ATOM     33  H   UNL     1       9.172   6.142   0.148  0.00  0.00    +0.167 HD
ENDBRANCH  16  20
ENDBRANCH  11  16
TORSDOF 10
ENDMDL
MODEL 9
REMARK VINA RESULT:      -5.4     27.727     30.868
REMARK  Name = 75536177
REMARK  13 active torsions:
REMARK  status: ('A' for Active; 'I' for Inactive)
REMARK    1  A    between atoms: O_3  and  C_31
REMARK    2  A    between atoms: N_5  and  C_15
REMARK    3  A    between atoms: C_8  and  C_12
REMARK    4  A    between atoms: C_9  and  C_15
REMARK    5  A    between atoms: C_11  and  C_16
REMARK    6  A    between atoms: C_12  and  C_17
REMARK    7  A    between atoms: C_12  and  C_18
REMARK    8  A    between atoms: C_13  and  C_19
REMARK    9  A    between atoms: C_16  and  C_20
REMARK   10  A    between atoms: C_21  and  C_24
REMARK   11  A    between atoms: C_24  and  C_25
REMARK   12  A    between atoms: C_25  and  C_30
REMARK   13  A    between atoms: C_30  and  C_31
REMARK                            x       y       z     vdW  Elec       q    Type
REMARK                         _______ _______ _______ _____ _____    ______ ____
ROOT
ATOM      8  C   UNL     1      -4.910 -11.695  10.572  0.00  0.00    +0.000 C 
ATOM      9  C   UNL     1      -3.601 -12.223  11.211  0.00  0.00    +0.032 C 
ATOM     10  C   UNL     1      -4.594 -10.709   9.437  0.00  0.00    +0.012 C 
ATOM     11  C   UNL     1      -3.769  -9.504   9.928  0.00  0.00    +0.022 C 
ATOM     13  C   UNL     1      -2.604  -9.934  10.795  0.00  0.00    -0.073 C 
ATOM     14  C   UNL     1      -2.540 -11.157  11.349  0.00  0.00    -0.022 C 
ATOM     19  C   UNL     1      -1.490  -8.940  10.974  0.00  0.00    +0.039 C 
ENDROOT
BRANCH   8  12
ATOM     12  C   UNL     1      -5.783 -12.836  10.039  0.00  0.00    -0.013 C 
ATOM     17  C   UNL     1      -7.048 -12.281   9.392  0.00  0.00    +0.007 C 
ATOM     18  C   UNL     1      -4.998 -13.689   9.048  0.00  0.00    +0.007 C 
ENDBRANCH   8  12
BRANCH   9  15
ATOM     15  C   UNL     1      -3.870 -12.857  12.581  0.00  0.00    +0.112 C 
BRANCH  15   5
ATOM      2  O   UNL     1      -1.686 -12.748  14.440  0.00  0.00    -0.276 OA
ATOM      5  N   UNL     1      -3.689 -11.900  13.627  0.00  0.00    -0.315 N 
ATOM     21  C   UNL     1      -2.592 -11.921  14.489  0.00  0.00    +0.213 C 
ATOM     32  H   UNL     1      -4.321 -11.106  13.676  0.00  0.00    +0.149 HD
BRANCH  21  24
ATOM     24  C   UNL     1      -2.656 -10.812  15.525  0.00  0.00    +0.096 C 
BRANCH  24  25
ATOM     25  C   UNL     1      -3.617 -11.102  16.677  0.00  0.00    +0.020 C 
BRANCH  25  30
ATOM     30  C   UNL     1      -4.655  -9.994  16.862  0.00  0.00    +0.121 C 
BRANCH  30  31
ATOM      4  O   UNL     1      -6.109 -11.234  15.355  0.00  0.00    -0.251 OA
ATOM     31  C   UNL     1      -5.898 -10.242  16.037  0.00  0.00    +0.305 C 
BRANCH  31   3
ATOM      3  O   UNL     1      -6.778  -9.214  16.144  0.00  0.00    -0.481 OA
ATOM     34  H   UNL     1      -6.517  -8.581  16.846  0.00  0.00    +0.295 HD
ENDBRANCH  31   3
ENDBRANCH  30  31
ENDBRANCH  25  30
ENDBRANCH  24  25
ENDBRANCH  21  24
ENDBRANCH  15   5
ENDBRANCH   9  15
BRANCH  11  16
ATOM     16  C   UNL     1      -4.655  -8.490  10.661  0.00  0.00    +0.082 C 
BRANCH  16  20
ATOM      1 CL   UNL     1     -10.482  -6.873   6.027  0.00  0.00    -0.083 Cl
ATOM      6  N   UNL     1      -6.142  -7.691   8.816  0.00  0.00    -0.342 N 
ATOM      7  N   UNL     1      -7.141  -8.828  10.443  0.00  0.00    -0.232 NA
ATOM     20  C   UNL     1      -5.997  -8.356  10.001  0.00  0.00    +0.109 A 
ATOM     22  C   UNL     1      -7.469  -7.737   8.470  0.00  0.00    +0.068 A 
ATOM     23  C   UNL     1      -8.071  -8.451   9.502  0.00  0.00    +0.089 A 
ATOM     26  C   UNL     1      -8.171  -7.230   7.377  0.00  0.00    +0.047 A 
ATOM     27  C   UNL     1      -9.456  -8.684   9.457  0.00  0.00    +0.031 A 
ATOM     28  C   UNL     1      -9.549  -7.470   7.348  0.00  0.00    +0.043 A 
ATOM     29  C   UNL     1     -10.183  -8.184   8.368  0.00  0.00    +0.022 A 
ATOM     33  H   UNL     1      -5.405  -7.244   8.286  0.00  0.00    +0.167 HD
ENDBRANCH  16  20
ENDBRANCH  11  16
TORSDOF 10
ENDMDL
MODEL 10
REMARK VINA RESULT:      -5.3     28.613     32.013
REMARK  Name = 75536177
REMARK  13 active torsions:
REMARK  status: ('A' for Active; 'I' for Inactive)
REMARK    1  A    between atoms: O_3  and  C_31
REMARK    2  A    between atoms: N_5  and  C_15
REMARK    3  A    between atoms: C_8  and  C_12
REMARK    4  A    between atoms: C_9  and  C_15
REMARK    5  A    between atoms: C_11  and  C_16
REMARK    6  A    between atoms: C_12  and  C_17
REMARK    7  A    between atoms: C_12  and  C_18
REMARK    8  A    between atoms: C_13  and  C_19
REMARK    9  A    between atoms: C_16  and  C_20
REMARK   10  A    between atoms: C_21  and  C_24
REMARK   11  A    between atoms: C_24  and  C_25
REMARK   12  A    between atoms: C_25  and  C_30
REMARK   13  A    between atoms: C_30  and  C_31
REMARK                            x       y       z     vdW  Elec       q    Type
REMARK                         _______ _______ _______ _____ _____    ______ ____
ROOT
ATOM      8  C   UNL     1     -12.479  -9.560  17.424  0.00  0.00    +0.000 C 
ATOM      9  C   UNL     1     -13.347  -8.360  16.968  0.00  0.00    +0.032 C 
ATOM     10  C   UNL     1     -11.126  -9.069  17.961  0.00  0.00    +0.012 C 
ATOM     11  C   UNL     1     -10.337  -8.268  16.908  0.00  0.00    +0.022 C 
ATOM     13  C   UNL     1     -11.206  -7.236  16.218  0.00  0.00    -0.073 C 
ATOM     14  C   UNL     1     -12.549  -7.286  16.267  0.00  0.00    -0.022 C 
ATOM     19  C   UNL     1     -10.495  -6.117  15.508  0.00  0.00    +0.039 C 
ENDROOT
BRANCH   8  12
ATOM     12  C   UNL     1     -13.186 -10.401  18.491  0.00  0.00    -0.013 C 
ATOM     17  C   UNL     1     -12.720 -11.852  18.422  0.00  0.00    +0.007 C 
ATOM     18  C   UNL     1     -12.938  -9.818  19.878  0.00  0.00    +0.007 C 
ENDBRANCH   8  12
BRANCH   9  15
ATOM     15  C   UNL     1     -14.493  -8.821  16.059  0.00  0.00    +0.112 C 
BRANCH  15   5
ATOM      2  O   UNL     1     -16.490  -6.887  15.343  0.00  0.00    -0.276 OA
ATOM      5  N   UNL     1     -14.534  -8.042  14.861  0.00  0.00    -0.315 N 
ATOM     21  C   UNL     1     -15.546  -7.120  14.593  0.00  0.00    +0.213 C 
ATOM     32  H   UNL     1     -13.738  -8.075  14.230  0.00  0.00    +0.149 HD
BRANCH  21  24
ATOM     24  C   UNL     1     -15.368  -6.449  13.242  0.00  0.00    +0.096 C 
BRANCH  24  25
ATOM     25  C   UNL     1     -15.034  -4.960  13.335  0.00  0.00    +0.020 C 
BRANCH  25  30
ATOM     30  C   UNL     1     -13.526  -4.705  13.379  0.00  0.00    +0.121 C 
BRANCH  30  31
ATOM      4  O   UNL     1     -13.798  -3.116  11.555  0.00  0.00    -0.251 OA
ATOM     31  C   UNL     1     -13.120  -3.571  12.465  0.00  0.00    +0.305 C 
BRANCH  31   3
ATOM      3  O   UNL     1     -11.885  -3.099  12.777  0.00  0.00    -0.481 OA
ATOM     34  H   UNL     1     -11.226  -3.822  12.852  0.00  0.00    +0.295 HD
ENDBRANCH  31   3
ENDBRANCH  30  31
ENDBRANCH  25  30
ENDBRANCH  24  25
ENDBRANCH  21  24
ENDBRANCH  15   5
ENDBRANCH   9  15
BRANCH  11  16
ATOM     16  C   UNL     1      -9.676  -9.200  15.886  0.00  0.00    +0.082 C 
BRANCH  16  20
ATOM      1 CL   UNL     1      -2.254 -10.820  16.469  0.00  0.00    -0.083 Cl
ATOM      6  N   UNL     1      -7.223  -9.522  15.518  0.00  0.00    -0.342 N 
ATOM      7  N   UNL     1      -7.993 -10.135  17.510  0.00  0.00    -0.232 NA
ATOM     20  C   UNL     1      -8.310  -9.629  16.339  0.00  0.00    +0.109 A 
ATOM     22  C   UNL     1      -6.131  -9.989  16.205  0.00  0.00    +0.068 A 
ATOM     23  C   UNL     1      -6.638 -10.366  17.444  0.00  0.00    +0.089 A 
ATOM     26  C   UNL     1      -4.786 -10.110  15.857  0.00  0.00    +0.047 A 
ATOM     27  C   UNL     1      -5.766 -10.898  18.409  0.00  0.00    +0.031 A 
ATOM     28  C   UNL     1      -3.931 -10.641  16.829  0.00  0.00    +0.043 A 
ATOM     29  C   UNL     1      -4.409 -11.029  18.083  0.00  0.00    +0.022 A 
ATOM     33  H   UNL     1      -7.221  -9.161  14.573  0.00  0.00    +0.167 HD
ENDBRANCH  16  20
ENDBRANCH  11  16
TORSDOF 10
ENDMDL
