MODEL 1
REMARK VINA RESULT:      -7.7      0.000      0.000
REMARK  Name = 26742907
REMARK  5 active torsions:
REMARK  status: ('A' for Active; 'I' for Inactive)
REMARK    1  A    between atoms: C_9  and  C_15
REMARK    2  A    between atoms: C_10  and  C_14
REMARK    3  A    between atoms: C_14  and  C_16
REMARK    4  A    between atoms: C_15  and  C_17
REMARK    5  A    between atoms: C_19  and  C_20
REMARK                            x       y       z     vdW  Elec       q    Type
REMARK                         _______ _______ _______ _____ _____    ______ ____
ROOT
ATOM      5  N   UNL     1      11.677   5.904  20.533  0.00  0.00    -0.316 NA
ATOM      9  C   UNL     1      11.755   8.852  20.635  0.00  0.00    +0.004 C 
ATOM     10  C   UNL     1      12.485   8.032  19.543  0.00  0.00    +0.012 C 
ATOM     11  C   UNL     1      10.585   8.021  21.187  0.00  0.00    +0.019 C 
ATOM     12  C   UNL     1      12.851   6.624  20.040  0.00  0.00    +0.085 C 
ATOM     13  C   UNL     1      11.017   6.621  21.622  0.00  0.00    +0.081 C 
ATOM     29  H   UNL     1      11.961   4.980  20.861  0.00  0.00    +0.122 HD
ENDROOT
BRANCH  10  14
ATOM     14  C   UNL     1      13.719   8.744  18.985  0.00  0.00    +0.064 C 
BRANCH  14  16
ATOM      3  O   UNL     1      16.427   6.371  18.938  0.00  0.00    -0.354 OA
ATOM      6  N   UNL     1      15.220   6.869  18.462  0.00  0.00    -0.083 NA
ATOM     16  C   UNL     1      14.965   7.941  19.220  0.00  0.00    +0.085 A 
ATOM     18  C   UNL     1      15.966   8.164  20.181  0.00  0.00    +0.076 A 
ATOM     19  C   UNL     1      16.861   7.150  19.961  0.00  0.00    +0.167 A 
BRANCH  19  20
ATOM      2  F   UNL     1      21.681   5.617  22.276  0.00  0.00    -0.205 F 
ATOM     20  C   UNL     1      18.104   6.756  20.557  0.00  0.00    +0.020 A 
ATOM     22  C   UNL     1      18.846   5.715  19.999  0.00  0.00    +0.014 A 
ATOM     23  C   UNL     1      18.571   7.412  21.696  0.00  0.00    +0.014 A 
ATOM     24  C   UNL     1      20.054   5.330  20.580  0.00  0.00    +0.039 A 
ATOM     25  C   UNL     1      19.779   7.028  22.276  0.00  0.00    +0.039 A 
ATOM     28  C   UNL     1      20.521   5.987  21.718  0.00  0.00    +0.123 A 
ENDBRANCH  19  20
ENDBRANCH  14  16
ENDBRANCH  10  14
BRANCH   9  15
ATOM     15  C   UNL     1      12.667   9.330  21.769  0.00  0.00    +0.100 C 
BRANCH  15  17
ATOM      1  S   UNL     1      13.876  12.097  25.719  0.00  0.00    -0.061 S 
ATOM      4  O   UNL     1      11.249  11.271  21.929  0.00  0.00    -0.275 OA
ATOM      7  N   UNL     1      12.927  10.917  23.534  0.00  0.00    -0.265 N 
ATOM      8  N   UNL     1      11.915  13.013  24.305  0.00  0.00    -0.233 NA
ATOM     17  C   UNL     1      12.178  10.622  22.399  0.00  0.00    +0.219 C 
ATOM     21  C   UNL     1      12.783  12.030  24.398  0.00  0.00    +0.164 A 
ATOM     26  C   UNL     1      13.139  13.561  26.222  0.00  0.00    +0.068 A 
ATOM     27  C   UNL     1      12.121  13.890  25.352  0.00  0.00    +0.120 A 
ATOM     30  H   UNL     1      13.673  10.281  23.806  0.00  0.00    +0.157 HD
ENDBRANCH  15  17
ENDBRANCH   9  15
TORSDOF 5
ENDMDL
MODEL 2
REMARK VINA RESULT:      -7.6      1.773      2.143
REMARK  Name = 26742907
REMARK  5 active torsions:
REMARK  status: ('A' for Active; 'I' for Inactive)
REMARK    1  A    between atoms: C_9  and  C_15
REMARK    2  A    between atoms: C_10  and  C_14
REMARK    3  A    between atoms: C_14  and  C_16
REMARK    4  A    between atoms: C_15  and  C_17
REMARK    5  A    between atoms: C_19  and  C_20
REMARK                            x       y       z     vdW  Elec       q    Type
REMARK                         _______ _______ _______ _____ _____    ______ ____
ROOT
ATOM      5  N   UNL     1      12.095   7.033  17.806  0.00  0.00    -0.316 NA
ATOM      9  C   UNL     1      12.879   9.373  19.424  0.00  0.00    +0.004 C 
ATOM     10  C   UNL     1      13.444   7.954  19.676  0.00  0.00    +0.012 C 
ATOM     11  C   UNL     1      12.420   9.477  17.960  0.00  0.00    +0.019 C 
ATOM     12  C   UNL     1      12.465   6.863  19.211  0.00  0.00    +0.085 C 
ATOM     13  C   UNL     1      11.484   8.338  17.559  0.00  0.00    +0.081 C 
ATOM     29  H   UNL     1      11.440   6.298  17.538  0.00  0.00    +0.122 HD
ENDROOT
BRANCH  10  14
ATOM     14  C   UNL     1      13.855   7.723  21.131  0.00  0.00    +0.064 C 
BRANCH  14  16
ATOM      3  O   UNL     1      17.363   8.304  21.699  0.00  0.00    -0.354 OA
ATOM      6  N   UNL     1      16.036   8.716  21.680  0.00  0.00    -0.083 NA
ATOM     16  C   UNL     1      15.347   7.645  21.271  0.00  0.00    +0.085 A 
ATOM     18  C   UNL     1      16.179   6.540  21.020  0.00  0.00    +0.076 A 
ATOM     19  C   UNL     1      17.436   7.008  21.304  0.00  0.00    +0.167 A 
BRANCH  19  20
ATOM      2  F   UNL     1      22.543   4.806  21.188  0.00  0.00    -0.205 F 
ATOM     20  C   UNL     1      18.752   6.441  21.274  0.00  0.00    +0.020 A 
ATOM     22  C   UNL     1      19.101   5.539  20.268  0.00  0.00    +0.014 A 
ATOM     23  C   UNL     1      19.685   6.791  22.250  0.00  0.00    +0.014 A 
ATOM     24  C   UNL     1      20.381   4.987  20.240  0.00  0.00    +0.039 A 
ATOM     25  C   UNL     1      20.965   6.239  22.221  0.00  0.00    +0.039 A 
ATOM     28  C   UNL     1      21.314   5.337  21.215  0.00  0.00    +0.123 A 
ENDBRANCH  19  20
ENDBRANCH  14  16
ENDBRANCH  10  14
BRANCH   9  15
ATOM     15  C   UNL     1      11.750   9.774  20.379  0.00  0.00    +0.100 C 
BRANCH  15  17
ATOM      1  S   UNL     1      11.184  11.625  24.958  0.00  0.00    -0.061 S 
ATOM      4  O   UNL     1      12.503  12.059  20.483  0.00  0.00    -0.275 OA
ATOM      7  N   UNL     1      11.646  11.024  22.410  0.00  0.00    -0.265 N 
ATOM      8  N   UNL     1      12.196  13.266  23.235  0.00  0.00    -0.233 NA
ATOM     17  C   UNL     1      12.021  11.097  21.072  0.00  0.00    +0.219 C 
ATOM     21  C   UNL     1      11.738  12.043  23.389  0.00  0.00    +0.164 A 
ATOM     26  C   UNL     1      11.584  13.205  25.493  0.00  0.00    +0.068 A 
ATOM     27  C   UNL     1      12.107  13.931  24.443  0.00  0.00    +0.120 A 
ATOM     30  H   UNL     1      11.257  10.152  22.761  0.00  0.00    +0.157 HD
ENDBRANCH  15  17
ENDBRANCH   9  15
TORSDOF 5
ENDMDL
MODEL 3
REMARK VINA RESULT:      -7.6      3.797      5.512
REMARK  Name = 26742907
REMARK  5 active torsions:
REMARK  status: ('A' for Active; 'I' for Inactive)
REMARK    1  A    between atoms: C_9  and  C_15
REMARK    2  A    between atoms: C_10  and  C_14
REMARK    3  A    between atoms: C_14  and  C_16
REMARK    4  A    between atoms: C_15  and  C_17
REMARK    5  A    between atoms: C_19  and  C_20
REMARK                            x       y       z     vdW  Elec       q    Type
REMARK                         _______ _______ _______ _____ _____    ______ ____
ROOT
ATOM      5  N   UNL     1      12.812   7.001  21.847  0.00  0.00    -0.316 NA
ATOM      9  C   UNL     1      13.746   7.344  19.068  0.00  0.00    +0.004 C 
ATOM     10  C   UNL     1      14.714   7.279  20.274  0.00  0.00    +0.012 C 
ATOM     11  C   UNL     1      12.440   6.620  19.435  0.00  0.00    +0.019 C 
ATOM     12  C   UNL     1      14.037   7.754  21.571  0.00  0.00    +0.085 C 
ATOM     13  C   UNL     1      11.849   7.114  20.754  0.00  0.00    +0.081 C 
ATOM     29  H   UNL     1      12.390   7.349  22.707  0.00  0.00    +0.122 HD
ENDROOT
BRANCH  10  14
ATOM     14  C   UNL     1      16.017   8.045  20.037  0.00  0.00    +0.064 C 
BRANCH  14  16
ATOM      3  O   UNL     1      18.540   5.496  19.716  0.00  0.00    -0.354 OA
ATOM      6  N   UNL     1      17.352   6.106  19.330  0.00  0.00    -0.083 NA
ATOM     16  C   UNL     1      17.210   7.143  20.162  0.00  0.00    +0.085 A 
ATOM     18  C   UNL     1      18.268   7.236  21.084  0.00  0.00    +0.076 A 
ATOM     19  C   UNL     1      19.076   6.178  20.760  0.00  0.00    +0.167 A 
BRANCH  19  20
ATOM      2  F   UNL     1      23.871   4.169  22.739  0.00  0.00    -0.205 F 
ATOM     20  C   UNL     1      20.312   5.661  21.270  0.00  0.00    +0.020 A 
ATOM     22  C   UNL     1      21.043   4.736  20.523  0.00  0.00    +0.014 A 
ATOM     23  C   UNL     1      20.784   6.081  22.513  0.00  0.00    +0.014 A 
ATOM     24  C   UNL     1      22.245   4.233  21.019  0.00  0.00    +0.039 A 
ATOM     25  C   UNL     1      21.986   5.578  23.009  0.00  0.00    +0.039 A 
ATOM     28  C   UNL     1      22.717   4.653  22.262  0.00  0.00    +0.123 A 
ENDBRANCH  19  20
ENDBRANCH  14  16
ENDBRANCH  10  14
BRANCH   9  15
ATOM     15  C   UNL     1      13.461   8.766  18.573  0.00  0.00    +0.100 C 
BRANCH  15  17
ATOM      1  S   UNL     1      15.463  12.502  15.974  0.00  0.00    -0.061 S 
ATOM      4  O   UNL     1      13.863   8.109  16.291  0.00  0.00    -0.275 OA
ATOM      7  N   UNL     1      14.417  10.281  16.995  0.00  0.00    -0.265 N 
ATOM      8  N   UNL     1      15.081  10.323  14.635  0.00  0.00    -0.233 NA
ATOM     17  C   UNL     1      13.929   8.986  17.146  0.00  0.00    +0.219 C 
ATOM     21  C   UNL     1      14.944  10.873  15.822  0.00  0.00    +0.164 A 
ATOM     26  C   UNL     1      15.913  12.487  14.320  0.00  0.00    +0.068 A 
ATOM     27  C   UNL     1      15.637  11.250  13.776  0.00  0.00    +0.120 A 
ATOM     30  H   UNL     1      14.410  10.902  17.800  0.00  0.00    +0.157 HD
ENDBRANCH  15  17
ENDBRANCH   9  15
TORSDOF 5
ENDMDL
MODEL 4
REMARK VINA RESULT:      -7.4      2.149      3.123
REMARK  Name = 26742907
REMARK  5 active torsions:
REMARK  status: ('A' for Active; 'I' for Inactive)
REMARK    1  A    between atoms: C_9  and  C_15
REMARK    2  A    between atoms: C_10  and  C_14
REMARK    3  A    between atoms: C_14  and  C_16
REMARK    4  A    between atoms: C_15  and  C_17
REMARK    5  A    between atoms: C_19  and  C_20
REMARK                            x       y       z     vdW  Elec       q    Type
REMARK                         _______ _______ _______ _____ _____    ______ ____
ROOT
ATOM      5  N   UNL     1      13.334   8.796  15.630  0.00  0.00    -0.316 NA
ATOM      9  C   UNL     1      14.305   9.595  18.300  0.00  0.00    +0.004 C 
ATOM     10  C   UNL     1      14.151   8.115  17.874  0.00  0.00    +0.012 C 
ATOM     11  C   UNL     1      14.487  10.462  17.043  0.00  0.00    +0.019 C 
ATOM     12  C   UNL     1      13.072   7.945  16.791  0.00  0.00    +0.085 C 
ATOM     13  C   UNL     1      13.403  10.209  15.997  0.00  0.00    +0.081 C 
ATOM     29  H   UNL     1      12.595   8.661  14.940  0.00  0.00    +0.122 HD
ENDROOT
BRANCH  10  14
ATOM     14  C   UNL     1      13.882   7.177  19.052  0.00  0.00    +0.064 C 
BRANCH  14  16
ATOM      3  O   UNL     1      16.399   6.598  21.562  0.00  0.00    -0.354 OA
ATOM      6  N   UNL     1      15.092   6.861  21.169  0.00  0.00    -0.083 NA
ATOM     16  C   UNL     1      15.136   6.909  19.833  0.00  0.00    +0.085 A 
ATOM     18  C   UNL     1      16.431   6.685  19.334  0.00  0.00    +0.076 A 
ATOM     19  C   UNL     1      17.186   6.495  20.461  0.00  0.00    +0.167 A 
BRANCH  19  20
ATOM      2  F   UNL     1      22.562   5.445  21.432  0.00  0.00    -0.205 F 
ATOM     20  C   UNL     1      18.571   6.224  20.712  0.00  0.00    +0.020 A 
ATOM     22  C   UNL     1      19.292   7.030  21.594  0.00  0.00    +0.014 A 
ATOM     23  C   UNL     1      19.199   5.154  20.074  0.00  0.00    +0.014 A 
ATOM     24  C   UNL     1      20.640   6.767  21.836  0.00  0.00    +0.039 A 
ATOM     25  C   UNL     1      20.547   4.891  20.318  0.00  0.00    +0.039 A 
ATOM     28  C   UNL     1      21.268   5.697  21.199  0.00  0.00    +0.123 A 
ENDBRANCH  19  20
ENDBRANCH  14  16
ENDBRANCH  10  14
BRANCH   9  15
ATOM     15  C   UNL     1      13.150  10.119  19.161  0.00  0.00    +0.100 C 
BRANCH  15  17
ATOM      1  S   UNL     1      10.990  11.248  23.494  0.00  0.00    -0.061 S 
ATOM      4  O   UNL     1      14.795  10.738  20.808  0.00  0.00    -0.275 OA
ATOM      7  N   UNL     1      12.517  10.733  21.379  0.00  0.00    -0.265 N 
ATOM      8  N   UNL     1      13.568  11.442  23.477  0.00  0.00    -0.233 NA
ATOM     17  C   UNL     1      13.611  10.566  20.536  0.00  0.00    +0.219 C 
ATOM     21  C   UNL     1      12.525  11.140  22.735  0.00  0.00    +0.164 A 
ATOM     26  C   UNL     1      11.768  11.741  24.941  0.00  0.00    +0.068 A 
ATOM     27  C   UNL     1      13.131  11.786  24.741  0.00  0.00    +0.120 A 
ATOM     30  H   UNL     1      11.585  10.551  21.012  0.00  0.00    +0.157 HD
ENDBRANCH  15  17
ENDBRANCH   9  15
TORSDOF 5
ENDMDL
MODEL 5
REMARK VINA RESULT:      -7.3     27.575     29.731
REMARK  Name = 26742907
REMARK  5 active torsions:
REMARK  status: ('A' for Active; 'I' for Inactive)
REMARK    1  A    between atoms: C_9  and  C_15
REMARK    2  A    between atoms: C_10  and  C_14
REMARK    3  A    between atoms: C_14  and  C_16
REMARK    4  A    between atoms: C_15  and  C_17
REMARK    5  A    between atoms: C_19  and  C_20
REMARK                            x       y       z     vdW  Elec       q    Type
REMARK                         _______ _______ _______ _____ _____    ______ ____
ROOT
ATOM      5  N   UNL     1      -4.424  -8.645   9.219  0.00  0.00    -0.316 NA
ATOM      9  C   UNL     1      -4.563 -11.210  10.671  0.00  0.00    +0.004 C 
ATOM     10  C   UNL     1      -3.670 -10.034  11.134  0.00  0.00    +0.012 C 
ATOM     11  C   UNL     1      -5.722 -10.657   9.826  0.00  0.00    +0.019 C 
ATOM     12  C   UNL     1      -3.258  -9.136   9.955  0.00  0.00    +0.085 C 
ATOM     13  C   UNL     1      -5.240  -9.741   8.702  0.00  0.00    +0.081 C 
ATOM     29  H   UNL     1      -4.111  -8.062   8.443  0.00  0.00    +0.122 HD
ENDROOT
BRANCH  10  14
ATOM     14  C   UNL     1      -2.437 -10.491  11.917  0.00  0.00    +0.064 C 
BRANCH  14  16
ATOM      3  O   UNL     1      -2.304 -10.549  15.515  0.00  0.00    -0.354 OA
ATOM      6  N   UNL     1      -1.705 -10.474  14.264  0.00  0.00    -0.083 NA
ATOM     16  C   UNL     1      -2.716 -10.543  13.391  0.00  0.00    +0.085 A 
ATOM     18  C   UNL     1      -3.963 -10.660  14.029  0.00  0.00    +0.076 A 
ATOM     19  C   UNL     1      -3.648 -10.659  15.363  0.00  0.00    +0.167 A 
BRANCH  19  20
ATOM      2  F   UNL     1      -6.585 -10.994  20.076  0.00  0.00    -0.205 F 
ATOM     20  C   UNL     1      -4.406 -10.747  16.577  0.00  0.00    +0.020 A 
ATOM     22  C   UNL     1      -5.671 -10.165  16.653  0.00  0.00    +0.014 A 
ATOM     23  C   UNL     1      -3.876 -11.412  17.683  0.00  0.00    +0.014 A 
ATOM     24  C   UNL     1      -6.407 -10.249  17.835  0.00  0.00    +0.039 A 
ATOM     25  C   UNL     1      -4.612 -11.496  18.864  0.00  0.00    +0.039 A 
ATOM     28  C   UNL     1      -5.878 -10.914  18.941  0.00  0.00    +0.123 A 
ENDBRANCH  19  20
ENDBRANCH  14  16
ENDBRANCH  10  14
BRANCH   9  15
ATOM     15  C   UNL     1      -3.807 -12.305   9.909  0.00  0.00    +0.100 C 
BRANCH  15  17
ATOM      1  S   UNL     1      -2.174 -14.556  14.030  0.00  0.00    -0.061 S 
ATOM      4  O   UNL     1      -4.640 -14.561  10.047  0.00  0.00    -0.275 OA
ATOM      7  N   UNL     1      -3.250 -13.725  11.745  0.00  0.00    -0.265 N 
ATOM      8  N   UNL     1      -3.696 -16.006  12.525  0.00  0.00    -0.233 NA
ATOM     17  C   UNL     1      -3.965 -13.671  10.553  0.00  0.00    +0.219 C 
ATOM     21  C   UNL     1      -3.142 -14.819  12.638  0.00  0.00    +0.164 A 
ATOM     26  C   UNL     1      -2.513 -16.158  14.538  0.00  0.00    +0.068 A 
ATOM     27  C   UNL     1      -3.333 -16.773  13.616  0.00  0.00    +0.120 A 
ATOM     30  H   UNL     1      -2.732 -12.902  12.042  0.00  0.00    +0.157 HD
ENDBRANCH  15  17
ENDBRANCH   9  15
TORSDOF 5
ENDMDL
MODEL 6
REMARK VINA RESULT:      -7.2     16.205     19.046
REMARK  Name = 26742907
REMARK  5 active torsions:
REMARK  status: ('A' for Active; 'I' for Inactive)
REMARK    1  A    between atoms: C_9  and  C_15
REMARK    2  A    between atoms: C_10  and  C_14
REMARK    3  A    between atoms: C_14  and  C_16
REMARK    4  A    between atoms: C_15  and  C_17
REMARK    5  A    between atoms: C_19  and  C_20
REMARK                            x       y       z     vdW  Elec       q    Type
REMARK                         _______ _______ _______ _____ _____    ______ ____
ROOT
ATOM      5  N   UNL     1      13.938   3.989  -0.963  0.00  0.00    -0.316 NA
ATOM      9  C   UNL     1      14.396   5.153   1.710  0.00  0.00    +0.004 C 
ATOM     10  C   UNL     1      12.981   4.938   1.122  0.00  0.00    +0.012 C 
ATOM     11  C   UNL     1      15.371   4.170   1.040  0.00  0.00    +0.019 C 
ATOM     12  C   UNL     1      12.994   4.964  -0.415  0.00  0.00    +0.085 C 
ATOM     13  C   UNL     1      15.299   4.223  -0.485  0.00  0.00    +0.081 C 
ATOM     29  H   UNL     1      13.924   4.042  -1.981  0.00  0.00    +0.122 HD
ENDROOT
BRANCH  10  14
ATOM     14  C   UNL     1      11.950   5.928   1.668  0.00  0.00    +0.064 C 
BRANCH  14  16
ATOM      3  O   UNL     1      10.447   4.049   4.347  0.00  0.00    -0.354 OA
ATOM      6  N   UNL     1      10.946   4.164   3.055  0.00  0.00    -0.083 NA
ATOM     16  C   UNL     1      11.346   5.436   2.951  0.00  0.00    +0.085 A 
ATOM     18  C   UNL     1      11.125   6.163   4.134  0.00  0.00    +0.076 A 
ATOM     19  C   UNL     1      10.558   5.245   4.979  0.00  0.00    +0.167 A 
BRANCH  19  20
ATOM      2  F   UNL     1       8.705   5.381  10.222  0.00  0.00    -0.205 F 
ATOM     20  C   UNL     1      10.080   5.280   6.329  0.00  0.00    +0.020 A 
ATOM     22  C   UNL     1       9.683   6.490   6.898  0.00  0.00    +0.014 A 
ATOM     23  C   UNL     1      10.012   4.104   7.076  0.00  0.00    +0.014 A 
ATOM     24  C   UNL     1       9.219   6.524   8.213  0.00  0.00    +0.039 A 
ATOM     25  C   UNL     1       9.547   4.138   8.391  0.00  0.00    +0.039 A 
ATOM     28  C   UNL     1       9.150   5.348   8.959  0.00  0.00    +0.123 A 
ENDBRANCH  19  20
ENDBRANCH  14  16
ENDBRANCH  10  14
BRANCH   9  15
ATOM     15  C   UNL     1      14.908   6.593   1.592  0.00  0.00    +0.100 C 
BRANCH  15  17
ATOM      1  S   UNL     1      18.999   8.223   3.900  0.00  0.00    -0.061 S 
ATOM      4  O   UNL     1      14.387   7.406   3.799  0.00  0.00    -0.275 OA
ATOM      7  N   UNL     1      16.605   7.465   3.028  0.00  0.00    -0.265 N 
ATOM      8  N   UNL     1      16.820   8.418   5.276  0.00  0.00    -0.233 NA
ATOM     17  C   UNL     1      15.241   7.200   2.943  0.00  0.00    +0.219 C 
ATOM     21  C   UNL     1      17.309   8.028   4.120  0.00  0.00    +0.164 A 
ATOM     26  C   UNL     1      19.103   8.884   5.478  0.00  0.00    +0.068 A 
ATOM     27  C   UNL     1      17.850   8.908   6.054  0.00  0.00    +0.120 A 
ATOM     30  H   UNL     1      17.196   7.240   2.231  0.00  0.00    +0.157 HD
ENDBRANCH  15  17
ENDBRANCH   9  15
TORSDOF 5
ENDMDL
MODEL 7
REMARK VINA RESULT:      -7.1     26.791     29.632
REMARK  Name = 26742907
REMARK  5 active torsions:
REMARK  status: ('A' for Active; 'I' for Inactive)
REMARK    1  A    between atoms: C_9  and  C_15
REMARK    2  A    between atoms: C_10  and  C_14
REMARK    3  A    between atoms: C_14  and  C_16
REMARK    4  A    between atoms: C_15  and  C_17
REMARK    5  A    between atoms: C_19  and  C_20
REMARK                            x       y       z     vdW  Elec       q    Type
REMARK                         _______ _______ _______ _____ _____    ______ ____
ROOT
ATOM      5  N   UNL     1      -9.350 -14.332  19.876  0.00  0.00    -0.316 NA
ATOM      9  C   UNL     1      -8.892 -11.949  18.196  0.00  0.00    +0.004 C 
ATOM     10  C   UNL     1      -7.813 -12.524  19.145  0.00  0.00    +0.012 C 
ATOM     11  C   UNL     1      -9.876 -13.070  17.819  0.00  0.00    +0.019 C 
ATOM     12  C   UNL     1      -8.442 -13.278  20.329  0.00  0.00    +0.085 C 
ATOM     13  C   UNL     1     -10.426 -13.800  19.042  0.00  0.00    +0.081 C 
ATOM     29  H   UNL     1      -9.752 -14.802  20.687  0.00  0.00    +0.122 HD
ENDROOT
BRANCH  10  14
ATOM     14  C   UNL     1      -6.830 -11.463  19.644  0.00  0.00    +0.064 C 
BRANCH  14  16
ATOM      3  O   UNL     1      -3.554 -11.519  18.151  0.00  0.00    -0.354 OA
ATOM      6  N   UNL     1      -4.423 -11.722  19.216  0.00  0.00    -0.083 NA
ATOM     16  C   UNL     1      -5.627 -11.371  18.752  0.00  0.00    +0.085 A 
ATOM     18  C   UNL     1      -5.577 -10.943  17.414  0.00  0.00    +0.076 A 
ATOM     19  C   UNL     1      -4.252 -11.055  17.084  0.00  0.00    +0.167 A 
BRANCH  19  20
ATOM      2  F   UNL     1      -1.263 -10.058  12.500  0.00  0.00    -0.205 F 
ATOM     20  C   UNL     1      -3.482 -10.797  15.903  0.00  0.00    +0.020 A 
ATOM     22  C   UNL     1      -4.091 -10.842  14.649  0.00  0.00    +0.014 A 
ATOM     23  C   UNL     1      -2.123 -10.502  16.007  0.00  0.00    +0.014 A 
ATOM     24  C   UNL     1      -3.341 -10.593  13.500  0.00  0.00    +0.039 A 
ATOM     25  C   UNL     1      -1.373 -10.251  14.858  0.00  0.00    +0.039 A 
ATOM     28  C   UNL     1      -1.983 -10.297  13.604  0.00  0.00    +0.123 A 
ENDBRANCH  19  20
ENDBRANCH  14  16
ENDBRANCH  10  14
BRANCH   9  15
ATOM     15  C   UNL     1      -9.639 -10.736  18.762  0.00  0.00    +0.100 C 
BRANCH  15  17
ATOM      1  S   UNL     1     -12.671  -7.630  16.339  0.00  0.00    -0.061 S 
ATOM      4  O   UNL     1      -8.386  -9.024  17.622  0.00  0.00    -0.275 OA
ATOM      7  N   UNL     1     -10.731  -9.044  17.480  0.00  0.00    -0.265 N 
ATOM      8  N   UNL     1     -10.153  -7.088  16.120  0.00  0.00    -0.233 NA
ATOM     17  C   UNL     1      -9.483  -9.503  17.891  0.00  0.00    +0.219 C 
ATOM     21  C   UNL     1     -11.012  -7.924  16.660  0.00  0.00    +0.164 A 
ATOM     26  C   UNL     1     -12.222  -6.269  15.397  0.00  0.00    +0.068 A 
ATOM     27  C   UNL     1     -10.849  -6.139  15.396  0.00  0.00    +0.120 A 
ATOM     30  H   UNL     1     -11.561  -9.547  17.785  0.00  0.00    +0.157 HD
ENDBRANCH  15  17
ENDBRANCH   9  15
TORSDOF 5
ENDMDL
MODEL 8
REMARK VINA RESULT:      -7.1      2.125      2.633
REMARK  Name = 26742907
REMARK  5 active torsions:
REMARK  status: ('A' for Active; 'I' for Inactive)
REMARK    1  A    between atoms: C_9  and  C_15
REMARK    2  A    between atoms: C_10  and  C_14
REMARK    3  A    between atoms: C_14  and  C_16
REMARK    4  A    between atoms: C_15  and  C_17
REMARK    5  A    between atoms: C_19  and  C_20
REMARK                            x       y       z     vdW  Elec       q    Type
REMARK                         _______ _______ _______ _____ _____    ______ ____
ROOT
ATOM      5  N   UNL     1      13.265   8.241  16.332  0.00  0.00    -0.316 NA
ATOM      9  C   UNL     1      14.095   9.709  18.754  0.00  0.00    +0.004 C 
ATOM     10  C   UNL     1      14.475   8.230  18.500  0.00  0.00    +0.012 C 
ATOM     11  C   UNL     1      13.824  10.395  17.404  0.00  0.00    +0.019 C 
ATOM     12  C   UNL     1      13.448   7.527  17.596  0.00  0.00    +0.085 C 
ATOM     13  C   UNL     1      12.827   9.619  16.545  0.00  0.00    +0.081 C 
ATOM     29  H   UNL     1      12.574   7.751  15.765  0.00  0.00    +0.122 HD
ENDROOT
BRANCH  10  14
ATOM     14  C   UNL     1      14.686   7.437  19.791  0.00  0.00    +0.064 C 
BRANCH  14  16
ATOM      3  O   UNL     1      17.738   5.619  19.201  0.00  0.00    -0.354 OA
ATOM      6  N   UNL     1      16.449   6.004  18.851  0.00  0.00    -0.083 NA
ATOM     16  C   UNL     1      16.053   6.819  19.835  0.00  0.00    +0.085 A 
ATOM     18  C   UNL     1      17.042   6.983  20.821  0.00  0.00    +0.076 A 
ATOM     19  C   UNL     1      18.080   6.208  20.375  0.00  0.00    +0.167 A 
BRANCH  19  20
ATOM      2  F   UNL     1      23.169   5.014  22.277  0.00  0.00    -0.205 F 
ATOM     20  C   UNL     1      19.391   5.901  20.864  0.00  0.00    +0.020 A 
ATOM     22  C   UNL     1      20.147   4.899  20.255  0.00  0.00    +0.014 A 
ATOM     23  C   UNL     1      19.912   6.603  21.951  0.00  0.00    +0.014 A 
ATOM     24  C   UNL     1      21.423   4.599  20.732  0.00  0.00    +0.039 A 
ATOM     25  C   UNL     1      21.188   6.304  22.428  0.00  0.00    +0.039 A 
ATOM     28  C   UNL     1      21.944   5.302  21.818  0.00  0.00    +0.123 A 
ENDBRANCH  19  20
ENDBRANCH  14  16
ENDBRANCH  10  14
BRANCH   9  15
ATOM     15  C   UNL     1      12.909   9.894  19.707  0.00  0.00    +0.100 C 
BRANCH  15  17
ATOM      1  S   UNL     1      14.750  11.428  24.063  0.00  0.00    -0.061 S 
ATOM      4  O   UNL     1      12.506  12.246  20.032  0.00  0.00    -0.275 OA
ATOM      7  N   UNL     1      13.641  11.018  21.682  0.00  0.00    -0.265 N 
ATOM      8  N   UNL     1      13.594  13.266  22.659  0.00  0.00    -0.233 NA
ATOM     17  C   UNL     1      12.981  11.204  20.471  0.00  0.00    +0.219 C 
ATOM     21  C   UNL     1      13.910  11.990  22.676  0.00  0.00    +0.164 A 
ATOM     26  C   UNL     1      14.694  13.016  24.709  0.00  0.00    +0.068 A 
ATOM     27  C   UNL     1      14.044  13.852  23.826  0.00  0.00    +0.120 A 
ATOM     30  H   UNL     1      13.983  10.089  21.914  0.00  0.00    +0.157 HD
ENDBRANCH  15  17
ENDBRANCH   9  15
TORSDOF 5
ENDMDL
MODEL 9
REMARK VINA RESULT:      -7.1     28.563     29.910
REMARK  Name = 26742907
REMARK  5 active torsions:
REMARK  status: ('A' for Active; 'I' for Inactive)
REMARK    1  A    between atoms: C_9  and  C_15
REMARK    2  A    between atoms: C_10  and  C_14
REMARK    3  A    between atoms: C_14  and  C_16
REMARK    4  A    between atoms: C_15  and  C_17
REMARK    5  A    between atoms: C_19  and  C_20
REMARK                            x       y       z     vdW  Elec       q    Type
REMARK                         _______ _______ _______ _____ _____    ______ ____
ROOT
ATOM      5  N   UNL     1      -7.184 -10.300  19.789  0.00  0.00    -0.316 NA
ATOM      9  C   UNL     1      -5.805 -11.678  17.573  0.00  0.00    +0.004 C 
ATOM     10  C   UNL     1      -7.127 -10.896  17.379  0.00  0.00    +0.012 C 
ATOM     11  C   UNL     1      -5.073 -11.125  18.807  0.00  0.00    +0.019 C 
ATOM     12  C   UNL     1      -7.956 -10.852  18.674  0.00  0.00    +0.085 C 
ATOM     13  C   UNL     1      -5.970 -11.072  20.043  0.00  0.00    +0.081 C 
ATOM     29  H   UNL     1      -7.763 -10.294  20.628  0.00  0.00    +0.122 HD
ENDROOT
BRANCH  10  14
ATOM     14  C   UNL     1      -7.972 -11.427  16.219  0.00  0.00    +0.064 C 
BRANCH  14  16
ATOM      3  O   UNL     1      -6.300 -12.020  13.085  0.00  0.00    -0.354 OA
ATOM      6  N   UNL     1      -6.996 -12.451  14.209  0.00  0.00    -0.083 NA
ATOM     16  C   UNL     1      -7.228 -11.342  14.918  0.00  0.00    +0.085 A 
ATOM     18  C   UNL     1      -6.707 -10.193  14.297  0.00  0.00    +0.076 A 
ATOM     19  C   UNL     1      -6.134 -10.675  13.149  0.00  0.00    +0.167 A 
BRANCH  19  20
ATOM      2  F   UNL     1      -3.398  -8.383   8.882  0.00  0.00    -0.205 F 
ATOM     20  C   UNL     1      -5.429 -10.083  12.051  0.00  0.00    +0.020 A 
ATOM     22  C   UNL     1      -5.961  -8.972  11.396  0.00  0.00    +0.014 A 
ATOM     23  C   UNL     1      -4.211 -10.620  11.634  0.00  0.00    +0.014 A 
ATOM     24  C   UNL     1      -5.275  -8.398  10.326  0.00  0.00    +0.039 A 
ATOM     25  C   UNL     1      -3.524 -10.046  10.565  0.00  0.00    +0.039 A 
ATOM     28  C   UNL     1      -4.056  -8.934   9.910  0.00  0.00    +0.123 A 
ENDBRANCH  19  20
ENDBRANCH  14  16
ENDBRANCH  10  14
BRANCH   9  15
ATOM     15  C   UNL     1      -5.989 -13.195  17.682  0.00  0.00    +0.100 C 
BRANCH  15  17
ATOM      1  S   UNL     1      -2.367 -12.086  14.462  0.00  0.00    -0.061 S 
ATOM      4  O   UNL     1      -5.259 -15.161  16.495  0.00  0.00    -0.275 OA
ATOM      7  N   UNL     1      -4.258 -13.085  16.041  0.00  0.00    -0.265 N 
ATOM      8  N   UNL     1      -3.055 -14.578  14.513  0.00  0.00    -0.233 NA
ATOM     17  C   UNL     1      -5.140 -13.954  16.677  0.00  0.00    +0.219 C 
ATOM     21  C   UNL     1      -3.305 -13.400  15.043  0.00  0.00    +0.164 A 
ATOM     26  C   UNL     1      -1.551 -13.166  13.409  0.00  0.00    +0.068 A 
ATOM     27  C   UNL     1      -2.049 -14.441  13.576  0.00  0.00    +0.120 A 
ATOM     30  H   UNL     1      -4.273 -12.100  16.297  0.00  0.00    +0.157 HD
ENDBRANCH  15  17
ENDBRANCH   9  15
TORSDOF 5
ENDMDL
MODEL 10
REMARK VINA RESULT:      -6.9     33.144     35.277
REMARK  Name = 26742907
REMARK  5 active torsions:
REMARK  status: ('A' for Active; 'I' for Inactive)
REMARK    1  A    between atoms: C_9  and  C_15
REMARK    2  A    between atoms: C_10  and  C_14
REMARK    3  A    between atoms: C_14  and  C_16
REMARK    4  A    between atoms: C_15  and  C_17
REMARK    5  A    between atoms: C_19  and  C_20
REMARK                            x       y       z     vdW  Elec       q    Type
REMARK                         _______ _______ _______ _____ _____    ______ ____
ROOT
ATOM      5  N   UNL     1       4.709 -15.727   0.825  0.00  0.00    -0.316 NA
ATOM      9  C   UNL     1       2.971 -14.038  -0.860  0.00  0.00    +0.004 C 
ATOM     10  C   UNL     1       2.416 -14.976   0.239  0.00  0.00    +0.012 C 
ATOM     11  C   UNL     1       4.426 -13.674  -0.519  0.00  0.00    +0.019 C 
ATOM     12  C   UNL     1       3.353 -16.168   0.496  0.00  0.00    +0.085 C 
ATOM     13  C   UNL     1       5.285 -14.905  -0.237  0.00  0.00    +0.081 C 
ATOM     29  H   UNL     1       5.300 -16.543   0.980  0.00  0.00    +0.122 HD
ENDROOT
BRANCH  10  14
ATOM     14  C   UNL     1       0.995 -15.462  -0.051  0.00  0.00    +0.064 C 
BRANCH  14  16
ATOM      3  O   UNL     1      -1.583 -13.266   1.174  0.00  0.00    -0.354 OA
ATOM      6  N   UNL     1      -0.769 -13.763   0.163  0.00  0.00    -0.083 NA
ATOM     16  C   UNL     1      -0.018 -14.700   0.752  0.00  0.00    +0.085 A 
ATOM     18  C   UNL     1      -0.312 -14.836   2.120  0.00  0.00    +0.076 A 
ATOM     19  C   UNL     1      -1.302 -13.912   2.334  0.00  0.00    +0.167 A 
BRANCH  19  20
ATOM      2  F   UNL     1      -4.274 -12.319   6.759  0.00  0.00    -0.205 F 
ATOM     20  C   UNL     1      -2.069 -13.503   3.474  0.00  0.00    +0.020 A 
ATOM     22  C   UNL     1      -3.051 -12.522   3.339  0.00  0.00    +0.014 A 
ATOM     23  C   UNL     1      -1.831 -14.084   4.720  0.00  0.00    +0.014 A 
ATOM     24  C   UNL     1      -3.796 -12.122   4.448  0.00  0.00    +0.039 A 
ATOM     25  C   UNL     1      -2.576 -13.685   5.829  0.00  0.00    +0.039 A 
ATOM     28  C   UNL     1      -3.559 -12.703   5.693  0.00  0.00    +0.123 A 
ENDBRANCH  19  20
ENDBRANCH  14  16
ENDBRANCH  10  14
BRANCH   9  15
ATOM     15  C   UNL     1       2.871 -14.612  -2.278  0.00  0.00    +0.100 C 
BRANCH  15  17
ATOM      1  S   UNL     1       2.993 -13.574  -7.138  0.00  0.00    -0.061 S 
ATOM      4  O   UNL     1       1.236 -12.935  -2.842  0.00  0.00    -0.275 OA
ATOM      7  N   UNL     1       2.611 -13.835  -4.520  0.00  0.00    -0.265 N 
ATOM      8  N   UNL     1       1.241 -12.242  -5.782  0.00  0.00    -0.233 NA
ATOM     17  C   UNL     1       2.128 -13.686  -3.224  0.00  0.00    +0.219 C 
ATOM     21  C   UNL     1       2.183 -13.154  -5.685  0.00  0.00    +0.164 A 
ATOM     26  C   UNL     1       2.012 -12.448  -7.982  0.00  0.00    +0.068 A 
ATOM     27  C   UNL     1       1.144 -11.838  -7.100  0.00  0.00    +0.120 A 
ATOM     30  H   UNL     1       3.360 -14.503  -4.688  0.00  0.00    +0.157 HD
ENDBRANCH  15  17
ENDBRANCH   9  15
TORSDOF 5
ENDMDL
