MODEL 1
REMARK VINA RESULT:      -6.8      0.000      0.000
REMARK  Name = 75537102
REMARK  3 active torsions:
REMARK  status: ('A' for Active; 'I' for Inactive)
REMARK    1  A    between atoms: N_3  and  C_12
REMARK    2  A    between atoms: N_4  and  C_14
REMARK    3  A    between atoms: C_12  and  C_13
REMARK                            x       y       z     vdW  Elec       q    Type
REMARK                         _______ _______ _______ _____ _____    ______ ____
ROOT
ATOM      1  O   UNL     1      15.316  12.587  17.068  0.00  0.00    -0.252 OA
ATOM      2  N   UNL     1      14.044  10.628  17.319  0.00  0.00    -0.278 N 
ATOM      3  N   UNL     1      12.972   8.333  18.540  0.00  0.00    -0.295 NA
ATOM      4  N   UNL     1      15.184  10.919  15.405  0.00  0.00    -0.287 N 
ATOM      6  C   UNL     1      13.651   9.508  16.488  0.00  0.00    +0.109 C 
ATOM      7  C   UNL     1      13.731   8.205  17.280  0.00  0.00    +0.109 C 
ATOM      8  C   UNL     1      14.599   9.594  15.294  0.00  0.00    +0.132 C 
ATOM      9  C   UNL     1      13.468  10.766  18.640  0.00  0.00    +0.125 C 
ATOM     10  C   UNL     1      13.515   9.424  19.374  0.00  0.00    +0.104 C 
ATOM     11  C   UNL     1      14.897  11.516  16.649  0.00  0.00    +0.305 C 
ATOM     14  C   UNL     1      16.071  11.453  14.396  0.00  0.00    +0.133 C 
ENDROOT
BRANCH   3  12
ATOM     12  C   UNL     1      12.992   7.070  19.278  0.00  0.00    +0.121 C 
BRANCH  12  13
ATOM      5  N   UNL     1      15.187   7.205  22.228  0.00  0.00    -0.360 N 
ATOM     13  C   UNL     1      14.094   7.036  20.303  0.00  0.00    -0.008 A 
ATOM     15  C   UNL     1      15.450   6.666  20.078  0.00  0.00    +0.004 A 
ATOM     16  C   UNL     1      13.964   7.363  21.633  0.00  0.00    +0.088 A 
ATOM     17  C   UNL     1      16.114   6.781  21.301  0.00  0.00    +0.047 A 
ATOM     18  C   UNL     1      16.176   6.243  18.948  0.00  0.00    +0.010 A 
ATOM     19  C   UNL     1      17.475   6.492  21.451  0.00  0.00    +0.026 A 
ATOM     20  C   UNL     1      17.540   5.951  19.084  0.00  0.00    +0.001 A 
ATOM     21  C   UNL     1      18.176   6.075  20.316  0.00  0.00    +0.002 A 
ATOM     22  H   UNL     1      15.384   7.377  23.204  0.00  0.00    +0.165 HD
ENDBRANCH  12  13
ENDBRANCH   3  12
TORSDOF 2
ENDMDL
MODEL 2
REMARK VINA RESULT:      -6.4     31.763     32.712
REMARK  Name = 75537102
REMARK  3 active torsions:
REMARK  status: ('A' for Active; 'I' for Inactive)
REMARK    1  A    between atoms: N_3  and  C_12
REMARK    2  A    between atoms: N_4  and  C_14
REMARK    3  A    between atoms: C_12  and  C_13
REMARK                            x       y       z     vdW  Elec       q    Type
REMARK                         _______ _______ _______ _____ _____    ______ ____
ROOT
ATOM      1  O   UNL     1     -17.851   1.911  22.667  0.00  0.00    -0.252 OA
ATOM      2  N   UNL     1     -16.754   2.095  24.737  0.00  0.00    -0.278 N 
ATOM      3  N   UNL     1     -16.311   1.852  27.503  0.00  0.00    -0.295 NA
ATOM      4  N   UNL     1     -16.739   3.872  23.362  0.00  0.00    -0.287 N 
ATOM      6  C   UNL     1     -15.900   3.059  25.399  0.00  0.00    +0.109 C 
ATOM      7  C   UNL     1     -16.284   3.186  26.872  0.00  0.00    +0.109 C 
ATOM      8  C   UNL     1     -16.083   4.332  24.575  0.00  0.00    +0.132 C 
ATOM      9  C   UNL     1     -16.969   0.801  25.349  0.00  0.00    +0.125 C 
ATOM     10  C   UNL     1     -17.292   0.973  26.835  0.00  0.00    +0.104 C 
ATOM     11  C   UNL     1     -17.194   2.544  23.484  0.00  0.00    +0.305 C 
ATOM     14  C   UNL     1     -17.002   4.757  22.250  0.00  0.00    +0.133 C 
ENDROOT
BRANCH   3  12
ATOM     12  C   UNL     1     -16.618   1.968  28.928  0.00  0.00    +0.121 C 
BRANCH  12  13
ATOM      5  N   UNL     1     -13.422   1.550  30.704  0.00  0.00    -0.360 N 
ATOM     13  C   UNL     1     -15.370   2.055  29.766  0.00  0.00    -0.008 A 
ATOM     15  C   UNL     1     -14.998   3.127  30.625  0.00  0.00    +0.004 A 
ATOM     16  C   UNL     1     -14.382   1.100  29.837  0.00  0.00    +0.088 A 
ATOM     17  C   UNL     1     -13.773   2.786  31.201  0.00  0.00    +0.047 A 
ATOM     18  C   UNL     1     -15.589   4.360  30.967  0.00  0.00    +0.010 A 
ATOM     19  C   UNL     1     -13.105   3.618  32.106  0.00  0.00    +0.026 A 
ATOM     20  C   UNL     1     -14.932   5.203  31.873  0.00  0.00    +0.001 A 
ATOM     21  C   UNL     1     -13.711   4.836  32.431  0.00  0.00    +0.002 A 
ATOM     22  H   UNL     1     -12.580   1.048  30.946  0.00  0.00    +0.165 HD
ENDBRANCH  12  13
ENDBRANCH   3  12
TORSDOF 2
ENDMDL
MODEL 3
REMARK VINA RESULT:      -6.4      4.243      6.811
REMARK  Name = 75537102
REMARK  3 active torsions:
REMARK  status: ('A' for Active; 'I' for Inactive)
REMARK    1  A    between atoms: N_3  and  C_12
REMARK    2  A    between atoms: N_4  and  C_14
REMARK    3  A    between atoms: C_12  and  C_13
REMARK                            x       y       z     vdW  Elec       q    Type
REMARK                         _______ _______ _______ _____ _____    ______ ____
ROOT
ATOM      1  O   UNL     1      10.369  12.180  25.079  0.00  0.00    -0.252 OA
ATOM      2  N   UNL     1      11.031  11.425  22.955  0.00  0.00    -0.278 N 
ATOM      3  N   UNL     1      12.319   9.852  21.013  0.00  0.00    -0.295 NA
ATOM      4  N   UNL     1      11.050  13.636  23.353  0.00  0.00    -0.287 N 
ATOM      6  C   UNL     1      11.369  12.021  21.679  0.00  0.00    +0.109 C 
ATOM      7  C   UNL     1      12.568  11.307  21.059  0.00  0.00    +0.109 C 
ATOM      8  C   UNL     1      11.601  13.492  22.016  0.00  0.00    +0.132 C 
ATOM      9  C   UNL     1      10.909   9.986  23.055  0.00  0.00    +0.125 C 
ATOM     10  C   UNL     1      12.099   9.312  22.369  0.00  0.00    +0.104 C 
ATOM     11  C   UNL     1      10.762  12.387  23.939  0.00  0.00    +0.305 C 
ATOM     14  C   UNL     1      10.969  14.919  24.015  0.00  0.00    +0.133 C 
ENDROOT
BRANCH   3  12
ATOM     12  C   UNL     1      13.436   9.164  20.365  0.00  0.00    +0.121 C 
BRANCH  12  13
ATOM      5  N   UNL     1      14.343  10.320  16.991  0.00  0.00    -0.360 N 
ATOM     13  C   UNL     1      13.551   9.530  18.909  0.00  0.00    -0.008 A 
ATOM     15  C   UNL     1      12.586   9.281  17.893  0.00  0.00    +0.004 A 
ATOM     16  C   UNL     1      14.620  10.170  18.324  0.00  0.00    +0.088 A 
ATOM     17  C   UNL     1      13.106   9.787  16.700  0.00  0.00    +0.047 A 
ATOM     18  C   UNL     1      11.316   8.673  17.875  0.00  0.00    +0.010 A 
ATOM     19  C   UNL     1      12.417   9.714  15.484  0.00  0.00    +0.026 A 
ATOM     20  C   UNL     1      10.614   8.593  16.665  0.00  0.00    +0.001 A 
ATOM     21  C   UNL     1      11.158   9.106  15.491  0.00  0.00    +0.002 A 
ATOM     22  H   UNL     1      14.955  10.760  16.318  0.00  0.00    +0.165 HD
ENDBRANCH  12  13
ENDBRANCH   3  12
TORSDOF 2
ENDMDL
MODEL 4
REMARK VINA RESULT:      -6.3      2.978      4.775
REMARK  Name = 75537102
REMARK  3 active torsions:
REMARK  status: ('A' for Active; 'I' for Inactive)
REMARK    1  A    between atoms: N_3  and  C_12
REMARK    2  A    between atoms: N_4  and  C_14
REMARK    3  A    between atoms: C_12  and  C_13
REMARK                            x       y       z     vdW  Elec       q    Type
REMARK                         _______ _______ _______ _____ _____    ______ ____
ROOT
ATOM      1  O   UNL     1      10.812   8.076  20.460  0.00  0.00    -0.252 OA
ATOM      2  N   UNL     1      13.109   7.621  20.272  0.00  0.00    -0.278 N 
ATOM      3  N   UNL     1      15.852   7.662  20.890  0.00  0.00    -0.295 NA
ATOM      4  N   UNL     1      11.978   8.178  18.413  0.00  0.00    -0.287 N 
ATOM      6  C   UNL     1      14.073   7.469  19.202  0.00  0.00    +0.109 C 
ATOM      7  C   UNL     1      15.391   8.145  19.573  0.00  0.00    +0.109 C 
ATOM      8  C   UNL     1      13.363   8.066  17.988  0.00  0.00    +0.132 C 
ATOM      9  C   UNL     1      13.505   7.316  21.630  0.00  0.00    +0.125 C 
ATOM     10  C   UNL     1      14.857   7.963  21.939  0.00  0.00    +0.104 C 
ATOM     11  C   UNL     1      11.836   7.968  19.799  0.00  0.00    +0.305 C 
ATOM     14  C   UNL     1      10.932   8.606  17.511  0.00  0.00    +0.133 C 
ENDROOT
BRANCH   3  12
ATOM     12  C   UNL     1      17.144   8.258  21.227  0.00  0.00    +0.121 C 
BRANCH  12  13
ATOM      5  N   UNL     1      19.445   5.605  20.127  0.00  0.00    -0.360 N 
ATOM     13  C   UNL     1      18.291   7.347  20.877  0.00  0.00    -0.008 A 
ATOM     15  C   UNL     1      19.673   7.597  21.106  0.00  0.00    +0.004 A 
ATOM     16  C   UNL     1      18.183   6.114  20.275  0.00  0.00    +0.088 A 
ATOM     17  C   UNL     1      20.375   6.489  20.627  0.00  0.00    +0.047 A 
ATOM     18  C   UNL     1      20.395   8.663  21.677  0.00  0.00    +0.010 A 
ATOM     19  C   UNL     1      21.770   6.393  20.691  0.00  0.00    +0.026 A 
ATOM     20  C   UNL     1      21.792   8.581  21.748  0.00  0.00    +0.001 A 
ATOM     21  C   UNL     1      22.465   7.463  21.262  0.00  0.00    +0.002 A 
ATOM     22  H   UNL     1      19.664   4.710  19.714  0.00  0.00    +0.165 HD
ENDBRANCH  12  13
ENDBRANCH   3  12
TORSDOF 2
ENDMDL
MODEL 5
REMARK VINA RESULT:      -6.3     26.507     28.708
REMARK  Name = 75537102
REMARK  3 active torsions:
REMARK  status: ('A' for Active; 'I' for Inactive)
REMARK    1  A    between atoms: N_3  and  C_12
REMARK    2  A    between atoms: N_4  and  C_14
REMARK    3  A    between atoms: C_12  and  C_13
REMARK                            x       y       z     vdW  Elec       q    Type
REMARK                         _______ _______ _______ _____ _____    ______ ____
ROOT
ATOM      1  O   UNL     1      -9.841  -9.311  17.501  0.00  0.00    -0.252 OA
ATOM      2  N   UNL     1      -7.622 -10.041  17.744  0.00  0.00    -0.278 N 
ATOM      3  N   UNL     1      -5.093 -11.037  17.024  0.00  0.00    -0.295 NA
ATOM      4  N   UNL     1      -9.143 -10.742  19.241  0.00  0.00    -0.287 N 
ATOM      6  C   UNL     1      -6.853 -10.782  18.723  0.00  0.00    +0.109 C 
ATOM      7  C   UNL     1      -5.903 -11.755  18.028  0.00  0.00    +0.109 C 
ATOM      8  C   UNL     1      -7.919 -11.439  19.598  0.00  0.00    +0.132 C 
ATOM      9  C   UNL     1      -6.938  -9.420  16.630  0.00  0.00    +0.125 C 
ATOM     10  C   UNL     1      -5.955 -10.410  16.002  0.00  0.00    +0.104 C 
ATOM     11  C   UNL     1      -8.977  -9.947  18.089  0.00  0.00    +0.305 C 
ATOM     14  C   UNL     1     -10.393 -10.987  19.926  0.00  0.00    +0.133 C 
ENDROOT
BRANCH   3  12
ATOM     12  C   UNL     1      -4.137 -11.949  16.395  0.00  0.00    +0.121 C 
BRANCH  12  13
ATOM      5  N   UNL     1      -1.480  -9.957  14.810  0.00  0.00    -0.360 N 
ATOM     13  C   UNL     1      -3.171 -11.219  15.500  0.00  0.00    -0.008 A 
ATOM     15  C   UNL     1      -3.182 -11.199  14.077  0.00  0.00    +0.004 A 
ATOM     16  C   UNL     1      -2.113 -10.446  15.921  0.00  0.00    +0.088 A 
ATOM     17  C   UNL     1      -2.111 -10.401  13.669  0.00  0.00    +0.047 A 
ATOM     18  C   UNL     1      -4.003 -11.787  13.095  0.00  0.00    +0.010 A 
ATOM     19  C   UNL     1      -1.819 -10.159  12.322  0.00  0.00    +0.026 A 
ATOM     20  C   UNL     1      -3.723 -11.553  11.742  0.00  0.00    +0.001 A 
ATOM     21  C   UNL     1      -2.648 -10.752  11.365  0.00  0.00    +0.002 A 
ATOM     22  H   UNL     1      -0.667  -9.357  14.824  0.00  0.00    +0.165 HD
ENDBRANCH  12  13
ENDBRANCH   3  12
TORSDOF 2
ENDMDL
MODEL 6
REMARK VINA RESULT:      -6.3      3.829      5.337
REMARK  Name = 75537102
REMARK  3 active torsions:
REMARK  status: ('A' for Active; 'I' for Inactive)
REMARK    1  A    between atoms: N_3  and  C_12
REMARK    2  A    between atoms: N_4  and  C_14
REMARK    3  A    between atoms: C_12  and  C_13
REMARK                            x       y       z     vdW  Elec       q    Type
REMARK                         _______ _______ _______ _____ _____    ______ ____
ROOT
ATOM      1  O   UNL     1      10.068  12.563  23.993  0.00  0.00    -0.252 OA
ATOM      2  N   UNL     1      11.515  11.217  22.723  0.00  0.00    -0.278 N 
ATOM      3  N   UNL     1      12.861   8.907  21.851  0.00  0.00    -0.295 NA
ATOM      4  N   UNL     1      12.259  13.219  23.418  0.00  0.00    -0.287 N 
ATOM      6  C   UNL     1      12.818  11.354  22.106  0.00  0.00    +0.109 C 
ATOM      7  C   UNL     1      13.636  10.080  22.302  0.00  0.00    +0.109 C 
ATOM      8  C   UNL     1      13.401  12.602  22.765  0.00  0.00    +0.132 C 
ATOM      9  C   UNL     1      10.730  10.029  22.464  0.00  0.00    +0.125 C 
ATOM     10  C   UNL     1      11.604   8.781  22.615  0.00  0.00    +0.104 C 
ATOM     11  C   UNL     1      11.143  12.360  23.444  0.00  0.00    +0.305 C 
ATOM     14  C   UNL     1      12.355  14.501  24.080  0.00  0.00    +0.133 C 
ENDROOT
BRANCH   3  12
ATOM     12  C   UNL     1      13.660   7.689  21.979  0.00  0.00    +0.121 C 
BRANCH  12  13
ATOM      5  N   UNL     1      14.592   6.893  18.509  0.00  0.00    -0.360 N 
ATOM     13  C   UNL     1      14.296   7.295  20.673  0.00  0.00    -0.008 A 
ATOM     15  C   UNL     1      15.627   6.827  20.485  0.00  0.00    +0.004 A 
ATOM     16  C   UNL     1      13.685   7.324  19.440  0.00  0.00    +0.088 A 
ATOM     17  C   UNL     1      15.788   6.582  19.120  0.00  0.00    +0.047 A 
ATOM     18  C   UNL     1      16.714   6.588  21.349  0.00  0.00    +0.010 A 
ATOM     19  C   UNL     1      16.985   6.107  18.572  0.00  0.00    +0.026 A 
ATOM     20  C   UNL     1      17.918   6.112  20.815  0.00  0.00    +0.001 A 
ATOM     21  C   UNL     1      18.049   5.877  19.449  0.00  0.00    +0.002 A 
ATOM     22  H   UNL     1      14.412   6.813  17.519  0.00  0.00    +0.165 HD
ENDBRANCH  12  13
ENDBRANCH   3  12
TORSDOF 2
ENDMDL
MODEL 7
REMARK VINA RESULT:      -6.1      3.095      4.705
REMARK  Name = 75537102
REMARK  3 active torsions:
REMARK  status: ('A' for Active; 'I' for Inactive)
REMARK    1  A    between atoms: N_3  and  C_12
REMARK    2  A    between atoms: N_4  and  C_14
REMARK    3  A    between atoms: C_12  and  C_13
REMARK                            x       y       z     vdW  Elec       q    Type
REMARK                         _______ _______ _______ _____ _____    ______ ____
ROOT
ATOM      1  O   UNL     1      12.014   6.408  19.208  0.00  0.00    -0.252 OA
ATOM      2  N   UNL     1      14.146   7.360  19.469  0.00  0.00    -0.278 N 
ATOM      3  N   UNL     1      16.448   8.327  20.763  0.00  0.00    -0.295 NA
ATOM      4  N   UNL     1      12.724   8.316  18.016  0.00  0.00    -0.287 N 
ATOM      6  C   UNL     1      14.924   8.403  18.833  0.00  0.00    +0.109 C 
ATOM      7  C   UNL     1      15.672   9.223  19.882  0.00  0.00    +0.109 C 
ATOM      8  C   UNL     1      13.889   9.184  18.025  0.00  0.00    +0.132 C 
ATOM      9  C   UNL     1      14.773   6.515  20.464  0.00  0.00    +0.125 C 
ATOM     10  C   UNL     1      15.560   7.374  21.457  0.00  0.00    +0.104 C 
ATOM     11  C   UNL     1      12.857   7.251  18.930  0.00  0.00    +0.305 C 
ATOM     14  C   UNL     1      11.535   8.634  17.257  0.00  0.00    +0.133 C 
ENDROOT
BRANCH   3  12
ATOM     12  C   UNL     1      17.216   9.107  21.733  0.00  0.00    +0.121 C 
BRANCH  12  13
ATOM      5  N   UNL     1      20.790   9.713  21.099  0.00  0.00    -0.360 N 
ATOM     13  C   UNL     1      18.692   9.070  21.439  0.00  0.00    -0.008 A 
ATOM     15  C   UNL     1      19.472   7.914  21.156  0.00  0.00    +0.004 A 
ATOM     16  C   UNL     1      19.531  10.161  21.396  0.00  0.00    +0.088 A 
ATOM     17  C   UNL     1      20.784   8.344  20.947  0.00  0.00    +0.047 A 
ATOM     18  C   UNL     1      19.186   6.538  21.059  0.00  0.00    +0.010 A 
ATOM     19  C   UNL     1      21.829   7.464  20.642  0.00  0.00    +0.026 A 
ATOM     20  C   UNL     1      20.222   5.645  20.755  0.00  0.00    +0.001 A 
ATOM     21  C   UNL     1      21.521   6.104  20.551  0.00  0.00    +0.002 A 
ATOM     22  H   UNL     1      21.606  10.301  21.004  0.00  0.00    +0.165 HD
ENDBRANCH  12  13
ENDBRANCH   3  12
TORSDOF 2
ENDMDL
MODEL 8
REMARK VINA RESULT:      -6.1     27.562     29.816
REMARK  Name = 75537102
REMARK  3 active torsions:
REMARK  status: ('A' for Active; 'I' for Inactive)
REMARK    1  A    between atoms: N_3  and  C_12
REMARK    2  A    between atoms: N_4  and  C_14
REMARK    3  A    between atoms: C_12  and  C_13
REMARK                            x       y       z     vdW  Elec       q    Type
REMARK                         _______ _______ _______ _____ _____    ______ ____
ROOT
ATOM      1  O   UNL     1     -18.343   3.640  22.581  0.00  0.00    -0.252 OA
ATOM      2  N   UNL     1     -16.327   4.830  22.765  0.00  0.00    -0.278 N 
ATOM      3  N   UNL     1     -13.933   6.076  21.973  0.00  0.00    -0.295 NA
ATOM      4  N   UNL     1     -16.759   3.229  24.280  0.00  0.00    -0.287 N 
ATOM      6  C   UNL     1     -15.236   4.924  23.714  0.00  0.00    +0.109 C 
ATOM      7  C   UNL     1     -13.898   4.996  22.981  0.00  0.00    +0.109 C 
ATOM      8  C   UNL     1     -15.419   3.692  24.598  0.00  0.00    +0.132 C 
ATOM      9  C   UNL     1     -16.375   5.750  21.648  0.00  0.00    +0.125 C 
ATOM     10  C   UNL     1     -15.000   5.836  20.982  0.00  0.00    +0.104 C 
ATOM     11  C   UNL     1     -17.280   3.874  23.140  0.00  0.00    +0.305 C 
ATOM     14  C   UNL     1     -17.378   2.129  24.986  0.00  0.00    +0.133 C 
ENDROOT
BRANCH   3  12
ATOM     12  C   UNL     1     -12.635   6.192  21.308  0.00  0.00    +0.121 C 
BRANCH  12  13
ATOM      5  N   UNL     1     -12.284   9.818  20.789  0.00  0.00    -0.360 N 
ATOM     13  C   UNL     1     -12.365   7.600  20.849  0.00  0.00    -0.008 A 
ATOM     15  C   UNL     1     -11.729   7.990  19.637  0.00  0.00    +0.004 A 
ATOM     16  C   UNL     1     -12.696   8.747  21.535  0.00  0.00    +0.088 A 
ATOM     17  C   UNL     1     -11.691   9.386  19.623  0.00  0.00    +0.047 A 
ATOM     18  C   UNL     1     -11.180   7.286  18.547  0.00  0.00    +0.010 A 
ATOM     19  C   UNL     1     -11.129  10.116  18.570  0.00  0.00    +0.026 A 
ATOM     20  C   UNL     1     -10.614   8.004  17.486  0.00  0.00    +0.001 A 
ATOM     21  C   UNL     1     -10.591   9.396  17.499  0.00  0.00    +0.002 A 
ATOM     22  H   UNL     1     -12.400  10.787  21.052  0.00  0.00    +0.165 HD
ENDBRANCH  12  13
ENDBRANCH   3  12
TORSDOF 2
ENDMDL
MODEL 9
REMARK VINA RESULT:      -6.1      4.096      6.257
REMARK  Name = 75537102
REMARK  3 active torsions:
REMARK  status: ('A' for Active; 'I' for Inactive)
REMARK    1  A    between atoms: N_3  and  C_12
REMARK    2  A    between atoms: N_4  and  C_14
REMARK    3  A    between atoms: C_12  and  C_13
REMARK                            x       y       z     vdW  Elec       q    Type
REMARK                         _______ _______ _______ _____ _____    ______ ____
ROOT
ATOM      1  O   UNL     1      10.143  12.203  24.714  0.00  0.00    -0.252 OA
ATOM      2  N   UNL     1      11.578  11.076  23.234  0.00  0.00    -0.278 N 
ATOM      3  N   UNL     1      12.797   8.933  21.882  0.00  0.00    -0.295 NA
ATOM      4  N   UNL     1      12.424  12.752  24.468  0.00  0.00    -0.287 N 
ATOM      6  C   UNL     1      12.936  11.228  22.756  0.00  0.00    +0.109 C 
ATOM      7  C   UNL     1      13.625   9.868  22.669  0.00  0.00    +0.109 C 
ATOM      8  C   UNL     1      13.562  12.204  23.751  0.00  0.00    +0.132 C 
ATOM      9  C   UNL     1      10.721  10.078  22.628  0.00  0.00    +0.125 C 
ATOM     10  C   UNL     1      11.471   8.750  22.507  0.00  0.00    +0.104 C 
ATOM     11  C   UNL     1      11.241  12.034  24.200  0.00  0.00    +0.305 C 
ATOM     14  C   UNL     1      12.568  13.810  25.442  0.00  0.00    +0.133 C 
ENDROOT
BRANCH   3  12
ATOM     12  C   UNL     1      13.476   7.645  21.742  0.00  0.00    +0.121 C 
BRANCH  12  13
ATOM      5  N   UNL     1      15.327   6.766  18.685  0.00  0.00    -0.360 N 
ATOM     13  C   UNL     1      14.045   7.458  20.360  0.00  0.00    -0.008 A 
ATOM     15  C   UNL     1      13.572   8.059  19.160  0.00  0.00    +0.004 A 
ATOM     16  C   UNL     1      15.125   6.670  20.036  0.00  0.00    +0.088 A 
ATOM     17  C   UNL     1      14.392   7.609  18.124  0.00  0.00    +0.047 A 
ATOM     18  C   UNL     1      12.520   8.945  18.856  0.00  0.00    +0.010 A 
ATOM     19  C   UNL     1      14.214   8.003  16.793  0.00  0.00    +0.026 A 
ATOM     20  C   UNL     1      12.329   9.348  17.528  0.00  0.00    +0.001 A 
ATOM     21  C   UNL     1      13.164   8.883  16.515  0.00  0.00    +0.002 A 
ATOM     22  H   UNL     1      16.056   6.290  18.173  0.00  0.00    +0.165 HD
ENDBRANCH  12  13
ENDBRANCH   3  12
TORSDOF 2
ENDMDL
MODEL 10
REMARK VINA RESULT:      -5.9      5.429      8.743
REMARK  Name = 75537102
REMARK  3 active torsions:
REMARK  status: ('A' for Active; 'I' for Inactive)
REMARK    1  A    between atoms: N_3  and  C_12
REMARK    2  A    between atoms: N_4  and  C_14
REMARK    3  A    between atoms: C_12  and  C_13
REMARK                            x       y       z     vdW  Elec       q    Type
REMARK                         _______ _______ _______ _____ _____    ______ ____
ROOT
ATOM      1  O   UNL     1      25.636   5.704  21.219  0.00  0.00    -0.252 OA
ATOM      2  N   UNL     1      23.342   5.547  20.736  0.00  0.00    -0.278 N 
ATOM      3  N   UNL     1      20.611   6.217  20.724  0.00  0.00    -0.295 NA
ATOM      4  N   UNL     1      24.429   3.682  21.354  0.00  0.00    -0.287 N 
ATOM      6  C   UNL     1      22.360   4.492  20.597  0.00  0.00    +0.109 C 
ATOM      7  C   UNL     1      21.040   4.904  21.246  0.00  0.00    +0.109 C 
ATOM      8  C   UNL     1      23.038   3.281  21.233  0.00  0.00    +0.132 C 
ATOM      9  C   UNL     1      22.976   6.905  20.392  0.00  0.00    +0.125 C 
ATOM     10  C   UNL     1      21.621   7.255  21.013  0.00  0.00    +0.104 C 
ATOM     11  C   UNL     1      24.601   5.059  21.112  0.00  0.00    +0.305 C 
ATOM     14  C   UNL     1      25.453   2.772  21.818  0.00  0.00    +0.133 C 
ENDROOT
BRANCH   3  12
ATOM     12  C   UNL     1      19.317   6.593  21.294  0.00  0.00    +0.121 C 
BRANCH  12  13
ATOM      5  N   UNL     1      16.949   5.517  18.691  0.00  0.00    -0.360 N 
ATOM     13  C   UNL     1      18.190   6.375  20.320  0.00  0.00    -0.008 A 
ATOM     15  C   UNL     1      17.006   7.157  20.204  0.00  0.00    +0.004 A 
ATOM     16  C   UNL     1      18.126   5.375  19.376  0.00  0.00    +0.088 A 
ATOM     17  C   UNL     1      16.245   6.598  19.175  0.00  0.00    +0.047 A 
ATOM     18  C   UNL     1      16.509   8.290  20.878  0.00  0.00    +0.010 A 
ATOM     19  C   UNL     1      15.006   7.118  18.784  0.00  0.00    +0.026 A 
ATOM     20  C   UNL     1      15.270   8.820  20.497  0.00  0.00    +0.001 A 
ATOM     21  C   UNL     1      14.533   8.242  19.467  0.00  0.00    +0.002 A 
ATOM     22  H   UNL     1      16.641   4.918  17.938  0.00  0.00    +0.165 HD
ENDBRANCH  12  13
ENDBRANCH   3  12
TORSDOF 2
ENDMDL
