REMARK  Name = 40533523
REMARK  5 active torsions:
REMARK  status: ('A' for Active; 'I' for Inactive)
REMARK    1  A    between atoms: N_5  and  C_19
REMARK    2  A    between atoms: N_5  and  C_22
REMARK    3  A    between atoms: N_5  and  C_23
REMARK    4  A    between atoms: C_16  and  C_19
REMARK    5  A    between atoms: C_17  and  C_20
REMARK                            x       y       z     vdW  Elec       q    Type
REMARK                         _______ _______ _______ _____ _____    ______ ____
ROOT
ATOM      1  O   UNL     1      -1.323  -1.273   1.804  0.00  0.00    -0.267 OA
ATOM      2  O   UNL     1       3.042   1.819   1.883  0.00  0.00    -0.274 OA
ATOM      3  N   UNL     1       3.214   0.194   0.231  0.00  0.00    -0.299 N 
ATOM      4  N   UNL     1       0.442  -1.391   0.284  0.00  0.00    -0.311 N 
ATOM      7  C   UNL     1       2.791  -2.158   0.957  0.00  0.00    +0.027 C 
ATOM      8  C   UNL     1       2.340  -1.499  -1.369  0.00  0.00    +0.054 C 
ATOM      9  C   UNL     1       2.906  -2.615  -0.493  0.00  0.00    +0.018 C 
ATOM     10  C   UNL     1       3.586  -0.859   1.178  0.00  0.00    +0.113 C 
ATOM     11  C   UNL     1       1.307  -1.992   1.308  0.00  0.00    +0.130 C 
ATOM     12  C   UNL     1       3.177  -0.219  -1.180  0.00  0.00    +0.117 C 
ATOM     13  C   UNL     1       0.888  -1.219  -1.028  0.00  0.00    +0.027 A 
ATOM     14  C   UNL     1       0.043  -0.781  -1.975  0.00  0.00    +0.022 A 
ATOM     15  C   UNL     1      -0.883  -1.103   0.666  0.00  0.00    +0.259 A 
ATOM     16  C   UNL     1       3.006   1.493   0.693  0.00  0.00    +0.230 C 
ATOM     17  C   UNL     1      -1.796  -0.579  -0.409  0.00  0.00    +0.048 A 
ATOM     18  C   UNL     1      -1.317  -0.452  -1.655  0.00  0.00    +0.015 A 
ENDROOT
BRANCH  17  20
ATOM      6  N   UNL     1      -4.731   1.180   1.138  0.00  0.00    -0.263 NA
ATOM     20  C   UNL     1      -3.189  -0.201  -0.111  0.00  0.00    +0.005 A 
ATOM     21  C   UNL     1      -4.254  -0.825  -0.751  0.00  0.00    +0.011 A 
ATOM     24  C   UNL     1      -3.478   0.786   0.817  0.00  0.00    +0.119 A 
ATOM     25  C   UNL     1      -5.558  -0.448  -0.448  0.00  0.00    +0.020 A 
ATOM     26  C   UNL     1      -5.741   0.551   0.495  0.00  0.00    +0.111 A 
ENDBRANCH  17  20
BRANCH  16  19
ATOM     19  C   UNL     1       2.714   2.542  -0.349  0.00  0.00    +0.180 C 
BRANCH  19   5
ATOM      5  N   UNL     1       1.276   2.571  -0.504  0.00  0.00    -0.300 NA
ATOM     22  C   UNL     1       0.896   3.181  -1.784  0.00  0.00    +0.105 C 
ATOM     23  C   UNL     1       0.641   3.297   0.602  0.00  0.00    +0.105 C 
ENDBRANCH  19   5
ENDBRANCH  16  19
TORSDOF 3
