REMARK  Name = 11943354
REMARK  8 active torsions:
REMARK  status: ('A' for Active; 'I' for Inactive)
REMARK    1  A    between atoms: O_2  and  C_20
REMARK    2  A    between atoms: N_4  and  C_13
REMARK    3  A    between atoms: N_4  and  C_15
REMARK    4  A    between atoms: C_6  and  C_12
REMARK    5  A    between atoms: C_7  and  C_13
REMARK    6  A    between atoms: C_12  and  C_14
REMARK    7  A    between atoms: C_15  and  C_16
REMARK    8  A    between atoms: C_18  and  C_20
REMARK                            x       y       z     vdW  Elec       q    Type
REMARK                         _______ _______ _______ _____ _____    ______ ____
ROOT
ATOM      4  N   UNL     1      -0.674  -0.046   0.436  0.00  0.00    -0.308 NA
ATOM     21  H   UNL     1      -1.050  -0.991   0.347  0.00  0.00    +0.122 HD
ENDROOT
BRANCH   4  13
ATOM     13  C   UNL     1       0.585  -0.082   1.114  0.00  0.00    +0.100 C 
BRANCH  13   7
ATOM      3  N   UNL     1       2.864  -1.129   1.105  0.00  0.00    -0.298 NA
ATOM      5  C   UNL     1       3.349  -0.505  -1.374  0.00  0.00    -0.004 C 
ATOM      6  C   UNL     1       4.101   0.440  -0.410  0.00  0.00    +0.006 C 
ATOM      7  C   UNL     1       1.586  -0.962   0.362  0.00  0.00    +0.071 C 
ATOM      8  C   UNL     1       1.840  -0.446  -1.072  0.00  0.00    +0.024 C 
ATOM      9  C   UNL     1       3.665   0.117   1.037  0.00  0.00    +0.088 C 
ATOM     10  C   UNL     1       3.821  -1.937  -1.057  0.00  0.00    +0.019 C 
ATOM     11  C   UNL     1       3.636  -2.211   0.447  0.00  0.00    +0.085 C 
BRANCH   6  12
ATOM     12  C   UNL     1       3.906   1.918  -0.740  0.00  0.00    +0.002 C 
ATOM     14  C   UNL     1       4.743   2.802   0.164  0.00  0.00    +0.004 C 
ENDBRANCH   6  12
ENDBRANCH  13   7
ENDBRANCH   4  13
BRANCH   4  15
ATOM     15  C   UNL     1      -1.647   0.800   1.133  0.00  0.00    +0.156 C 
BRANCH  15  16
ATOM      1  O   UNL     1      -3.841  -0.086   0.714  0.00  0.00    -0.461 OA
ATOM     16  C   UNL     1      -2.948   0.862   0.380  0.00  0.00    +0.119 A 
ATOM     17  C   UNL     1      -3.401   1.698  -0.581  0.00  0.00    +0.046 A 
ATOM     18  C   UNL     1      -4.924   0.150  -0.071  0.00  0.00    +0.131 A 
ATOM     19  C   UNL     1      -4.704   1.237  -0.886  0.00  0.00    +0.047 A 
BRANCH  18  20
ATOM     20  C   UNL     1      -6.063  -0.763   0.100  0.00  0.00    +0.230 C 
BRANCH  20   2
ATOM      2  O   UNL     1      -5.894  -1.858  -0.802  0.00  0.00    -0.387 OA
ATOM     22  H   UNL     1      -5.975  -1.509  -1.707  0.00  0.00    +0.210 HD
ENDBRANCH  20   2
ENDBRANCH  18  20
ENDBRANCH  15  16
ENDBRANCH   4  15
TORSDOF 7
