MODEL 1
REMARK VINA RESULT:      -7.0      0.000      0.000
REMARK  Name = 71693411
REMARK  8 active torsions:
REMARK  status: ('A' for Active; 'I' for Inactive)
REMARK    1  A    between atoms: O_2  and  C_12
REMARK    2  A    between atoms: N_6  and  C_14
REMARK    3  A    between atoms: N_7  and  C_22
REMARK    4  A    between atoms: C_10  and  C_12
REMARK    5  A    between atoms: C_11  and  C_13
REMARK    6  A    between atoms: C_14  and  C_17
REMARK    7  A    between atoms: C_27  and  C_28
REMARK    8  A    between atoms: C_30  and  C_31
REMARK                            x       y       z     vdW  Elec       q    Type
REMARK                         _______ _______ _______ _____ _____    ______ ____
ROOT
ATOM      1  O   UNL     1      12.505   6.716  20.987  0.00  0.00    -0.361 OA
ATOM      3  O   UNL     1      10.930   9.567  22.038  0.00  0.00    -0.273 OA
ATOM      6  N   UNL     1      12.371   9.310  20.219  0.00  0.00    -0.287 N 
ATOM     10  C   UNL     1      12.846   8.401  19.171  0.00  0.00    +0.135 C 
ATOM     11  C   UNL     1      13.125   6.978  19.723  0.00  0.00    +0.171 C 
ATOM     15  C   UNL     1      11.494   8.861  21.203  0.00  0.00    +0.242 C 
ATOM     16  C   UNL     1      11.263   7.369  21.157  0.00  0.00    +0.256 C 
ENDROOT
BRANCH  11  13
ATOM     13  C   UNL     1      14.613   6.739  19.899  0.00  0.00    -0.017 A 
ATOM     18  C   UNL     1      15.165   6.689  21.179  0.00  0.00    +0.008 A 
ATOM     19  C   UNL     1      15.429   6.570  18.781  0.00  0.00    +0.008 A 
ATOM     20  C   UNL     1      16.533   6.469  21.340  0.00  0.00    +0.023 A 
ATOM     21  C   UNL     1      16.797   6.350  18.941  0.00  0.00    +0.023 A 
ATOM     22  C   UNL     1      17.350   6.299  20.222  0.00  0.00    +0.034 A 
BRANCH  22   7
ATOM      4  O   UNL     1      19.511   8.153  21.156  0.00  0.00    -0.268 OA
ATOM      7  N   UNL     1      18.717   6.079  20.383  0.00  0.00    -0.280 N 
ATOM     27  C   UNL     1      19.690   6.985  20.826  0.00  0.00    +0.270 C 
ATOM     33  H   UNL     1      19.038   5.141  20.152  0.00  0.00    +0.155 HD
BRANCH  27  28
ATOM      5  O   UNL     1      23.182   6.391  21.386  0.00  0.00    -0.359 OA
ATOM      9  N   UNL     1      22.044   7.187  21.452  0.00  0.00    -0.073 NA
ATOM     28  C   UNL     1      21.071   6.442  20.921  0.00  0.00    +0.168 A 
ATOM     29  C   UNL     1      21.530   5.180  20.506  0.00  0.00    +0.080 A 
ATOM     30  C   UNL     1      22.862   5.199  20.821  0.00  0.00    +0.135 A 
ATOM     31  C   UNL     1      23.954   4.228  20.673  0.00  0.00    +0.089 C 
ENDBRANCH  27  28
ENDBRANCH  22   7
ENDBRANCH  11  13
BRANCH  10  12
ATOM     12  C   UNL     1      11.854   8.356  18.001  0.00  0.00    +0.181 C 
BRANCH  12   2
ATOM      2  O   UNL     1      11.849   7.044  17.477  0.00  0.00    -0.393 OA
ATOM     32  H   UNL     1      11.140   7.002  16.814  0.00  0.00    +0.209 HD
ENDBRANCH  12   2
ENDBRANCH  10  12
BRANCH   6  14
ATOM     14  C   UNL     1      12.732  10.715  20.122  0.00  0.00    +0.145 C 
BRANCH  14  17
ATOM      8  N   UNL     1      16.188  11.923  19.170  0.00  0.00    -0.263 NA
ATOM     17  C   UNL     1      14.220  10.917  20.152  0.00  0.00    -0.012 A 
ATOM     23  C   UNL     1      15.004  10.325  21.135  0.00  0.00    +0.008 A 
ATOM     24  C   UNL     1      14.854  11.701  19.201  0.00  0.00    +0.115 A 
ATOM     25  C   UNL     1      16.380  10.530  21.136  0.00  0.00    +0.020 A 
ATOM     26  C   UNL     1      16.917  11.330  20.142  0.00  0.00    +0.111 A 
ENDBRANCH  14  17
ENDBRANCH   6  14
TORSDOF 7
ENDMDL
MODEL 2
REMARK VINA RESULT:      -7.0      2.342      4.284
REMARK  Name = 71693411
REMARK  8 active torsions:
REMARK  status: ('A' for Active; 'I' for Inactive)
REMARK    1  A    between atoms: O_2  and  C_12
REMARK    2  A    between atoms: N_6  and  C_14
REMARK    3  A    between atoms: N_7  and  C_22
REMARK    4  A    between atoms: C_10  and  C_12
REMARK    5  A    between atoms: C_11  and  C_13
REMARK    6  A    between atoms: C_14  and  C_17
REMARK    7  A    between atoms: C_27  and  C_28
REMARK    8  A    between atoms: C_30  and  C_31
REMARK                            x       y       z     vdW  Elec       q    Type
REMARK                         _______ _______ _______ _____ _____    ______ ____
ROOT
ATOM      1  O   UNL     1      16.313   9.072  21.047  0.00  0.00    -0.361 OA
ATOM      3  O   UNL     1      14.613  10.581  18.488  0.00  0.00    -0.273 OA
ATOM      6  N   UNL     1      14.925   8.297  18.855  0.00  0.00    -0.287 N 
ATOM     10  C   UNL     1      15.086   7.243  19.863  0.00  0.00    +0.135 C 
ATOM     11  C   UNL     1      16.076   7.662  20.982  0.00  0.00    +0.171 C 
ATOM     15  C   UNL     1      14.882   9.637  19.230  0.00  0.00    +0.242 C 
ATOM     16  C   UNL     1      15.190   9.854  20.692  0.00  0.00    +0.256 C 
ENDROOT
BRANCH  11  13
ATOM     13  C   UNL     1      17.425   6.992  20.800  0.00  0.00    -0.017 A 
ATOM     18  C   UNL     1      18.522   7.416  21.550  0.00  0.00    +0.008 A 
ATOM     19  C   UNL     1      17.569   5.952  19.881  0.00  0.00    +0.008 A 
ATOM     20  C   UNL     1      19.762   6.799  21.383  0.00  0.00    +0.023 A 
ATOM     21  C   UNL     1      18.809   5.335  19.713  0.00  0.00    +0.023 A 
ATOM     22  C   UNL     1      19.906   5.758  20.465  0.00  0.00    +0.034 A 
BRANCH  22   7
ATOM      4  O   UNL     1      21.518   4.103  22.373  0.00  0.00    -0.268 OA
ATOM      7  N   UNL     1      21.146   5.142  20.297  0.00  0.00    -0.280 N 
ATOM     27  C   UNL     1      21.860   4.374  21.227  0.00  0.00    +0.270 C 
ATOM     33  H   UNL     1      21.575   5.267  19.383  0.00  0.00    +0.155 HD
BRANCH  27  28
ATOM      5  O   UNL     1      24.693   2.354  20.361  0.00  0.00    -0.359 OA
ATOM      9  N   UNL     1      23.435   2.530  20.925  0.00  0.00    -0.073 NA
ATOM     28  C   UNL     1      23.151   3.822  20.740  0.00  0.00    +0.168 A 
ATOM     29  C   UNL     1      24.182   4.505  20.071  0.00  0.00    +0.080 A 
ATOM     30  C   UNL     1      25.127   3.538  19.855  0.00  0.00    +0.135 A 
ATOM     31  C   UNL     1      26.448   3.534  19.216  0.00  0.00    +0.089 C 
ENDBRANCH  27  28
ENDBRANCH  22   7
ENDBRANCH  11  13
BRANCH  10  12
ATOM     12  C   UNL     1      13.726   6.842  20.449  0.00  0.00    +0.181 C 
BRANCH  12   2
ATOM      2  O   UNL     1      13.784   7.008  21.851  0.00  0.00    -0.393 OA
ATOM     32  H   UNL     1      12.896   7.275  22.145  0.00  0.00    +0.209 HD
ENDBRANCH  12   2
ENDBRANCH  10  12
BRANCH   6  14
ATOM     14  C   UNL     1      14.677   7.896  17.479  0.00  0.00    +0.145 C 
BRANCH  14  17
ATOM      8  N   UNL     1      10.903   8.052  17.290  0.00  0.00    -0.263 NA
ATOM     17  C   UNL     1      13.296   8.271  17.023  0.00  0.00    -0.012 A 
ATOM     23  C   UNL     1      13.106   9.147  15.961  0.00  0.00    +0.008 A 
ATOM     24  C   UNL     1      12.172   7.756  17.650  0.00  0.00    +0.115 A 
ATOM     25  C   UNL     1      11.814   9.476  15.562  0.00  0.00    +0.020 A 
ATOM     26  C   UNL     1      10.757   8.907  16.252  0.00  0.00    +0.111 A 
ENDBRANCH  14  17
ENDBRANCH   6  14
TORSDOF 7
ENDMDL
MODEL 3
REMARK VINA RESULT:      -6.8     17.330     20.416
REMARK  Name = 71693411
REMARK  8 active torsions:
REMARK  status: ('A' for Active; 'I' for Inactive)
REMARK    1  A    between atoms: O_2  and  C_12
REMARK    2  A    between atoms: N_6  and  C_14
REMARK    3  A    between atoms: N_7  and  C_22
REMARK    4  A    between atoms: C_10  and  C_12
REMARK    5  A    between atoms: C_11  and  C_13
REMARK    6  A    between atoms: C_14  and  C_17
REMARK    7  A    between atoms: C_27  and  C_28
REMARK    8  A    between atoms: C_30  and  C_31
REMARK                            x       y       z     vdW  Elec       q    Type
REMARK                         _______ _______ _______ _____ _____    ______ ____
ROOT
ATOM      1  O   UNL     1      10.886   7.208  -1.356  0.00  0.00    -0.361 OA
ATOM      3  O   UNL     1      13.589   6.374  -3.282  0.00  0.00    -0.273 OA
ATOM      6  N   UNL     1      12.108   4.939  -2.189  0.00  0.00    -0.287 N 
ATOM     10  C   UNL     1      10.727   4.741  -1.735  0.00  0.00    +0.135 C 
ATOM     11  C   UNL     1      10.154   6.014  -1.057  0.00  0.00    +0.171 C 
ATOM     15  C   UNL     1      12.505   6.152  -2.747  0.00  0.00    +0.242 C 
ATOM     16  C   UNL     1      11.443   7.222  -2.655  0.00  0.00    +0.256 C 
ENDROOT
BRANCH  11  13
ATOM     13  C   UNL     1      10.136   5.870   0.453  0.00  0.00    -0.017 A 
ATOM     18  C   UNL     1       9.853   6.975   1.256  0.00  0.00    +0.008 A 
ATOM     19  C   UNL     1      10.404   4.633   1.039  0.00  0.00    +0.008 A 
ATOM     20  C   UNL     1       9.836   6.841   2.645  0.00  0.00    +0.023 A 
ATOM     21  C   UNL     1      10.386   4.499   2.427  0.00  0.00    +0.023 A 
ATOM     22  C   UNL     1      10.102   5.604   3.231  0.00  0.00    +0.034 A 
BRANCH  22   7
ATOM      4  O   UNL     1      12.005   6.646   5.299  0.00  0.00    -0.268 OA
ATOM      7  N   UNL     1      10.085   5.470   4.619  0.00  0.00    -0.280 N 
ATOM     27  C   UNL     1      11.004   5.980   5.546  0.00  0.00    +0.270 C 
ATOM     33  H   UNL     1       9.303   4.939   4.996  0.00  0.00    +0.155 HD
BRANCH  27  28
ATOM      5  O   UNL     1      11.012   5.562   9.107  0.00  0.00    -0.359 OA
ATOM      9  N   UNL     1      11.615   5.937   7.912  0.00  0.00    -0.073 NA
ATOM     28  C   UNL     1      10.698   5.693   6.972  0.00  0.00    +0.168 A 
ATOM     29  C   UNL     1       9.510   5.168   7.508  0.00  0.00    +0.080 A 
ATOM     30  C   UNL     1       9.759   5.106   8.853  0.00  0.00    +0.135 A 
ATOM     31  C   UNL     1       8.973   4.664  10.011  0.00  0.00    +0.089 C 
ENDBRANCH  27  28
ENDBRANCH  22   7
ENDBRANCH  11  13
BRANCH  10  12
ATOM     12  C   UNL     1       9.835   4.284  -2.897  0.00  0.00    +0.181 C 
BRANCH  12   2
ATOM      2  O   UNL     1       9.715   2.877  -2.833  0.00  0.00    -0.393 OA
ATOM     32  H   UNL     1       9.653   2.552  -3.748  0.00  0.00    +0.209 HD
ENDBRANCH  12   2
ENDBRANCH  10  12
BRANCH   6  14
ATOM     14  C   UNL     1      13.007   3.796  -2.165  0.00  0.00    +0.145 C 
BRANCH  14  17
ATOM      8  N   UNL     1      13.899   3.147   1.453  0.00  0.00    -0.263 NA
ATOM     17  C   UNL     1      13.801   3.732  -0.891  0.00  0.00    -0.012 A 
ATOM     23  C   UNL     1      15.119   4.171  -0.845  0.00  0.00    +0.008 A 
ATOM     24  C   UNL     1      13.242   3.232   0.275  0.00  0.00    +0.115 A 
ATOM     25  C   UNL     1      15.828   4.099   0.350  0.00  0.00    +0.020 A 
ATOM     26  C   UNL     1      15.179   3.583   1.459  0.00  0.00    +0.111 A 
ENDBRANCH  14  17
ENDBRANCH   6  14
TORSDOF 7
ENDMDL
MODEL 4
REMARK VINA RESULT:      -6.5     15.297     17.619
REMARK  Name = 71693411
REMARK  8 active torsions:
REMARK  status: ('A' for Active; 'I' for Inactive)
REMARK    1  A    between atoms: O_2  and  C_12
REMARK    2  A    between atoms: N_6  and  C_14
REMARK    3  A    between atoms: N_7  and  C_22
REMARK    4  A    between atoms: C_10  and  C_12
REMARK    5  A    between atoms: C_11  and  C_13
REMARK    6  A    between atoms: C_14  and  C_17
REMARK    7  A    between atoms: C_27  and  C_28
REMARK    8  A    between atoms: C_30  and  C_31
REMARK                            x       y       z     vdW  Elec       q    Type
REMARK                         _______ _______ _______ _____ _____    ______ ____
ROOT
ATOM      1  O   UNL     1      10.036   4.187   6.192  0.00  0.00    -0.361 OA
ATOM      3  O   UNL     1      10.803   5.458   9.275  0.00  0.00    -0.273 OA
ATOM      6  N   UNL     1      10.486   6.626   7.279  0.00  0.00    -0.287 N 
ATOM     10  C   UNL     1       9.767   6.666   6.001  0.00  0.00    +0.135 C 
ATOM     11  C   UNL     1       9.739   5.276   5.311  0.00  0.00    +0.171 C 
ATOM     15  C   UNL     1      10.360   5.531   8.130  0.00  0.00    +0.242 C 
ATOM     16  C   UNL     1       9.586   4.389   7.516  0.00  0.00    +0.256 C 
ENDROOT
BRANCH  11  13
ATOM     13  C   UNL     1      10.736   5.210   4.170  0.00  0.00    -0.017 A 
ATOM     18  C   UNL     1      10.809   4.069   3.371  0.00  0.00    +0.008 A 
ATOM     19  C   UNL     1      11.583   6.290   3.920  0.00  0.00    +0.008 A 
ATOM     20  C   UNL     1      11.726   4.009   2.321  0.00  0.00    +0.023 A 
ATOM     21  C   UNL     1      12.500   6.231   2.870  0.00  0.00    +0.023 A 
ATOM     22  C   UNL     1      12.571   5.090   2.070  0.00  0.00    +0.034 A 
BRANCH  22   7
ATOM      4  O   UNL     1      14.867   3.219   1.611  0.00  0.00    -0.268 OA
ATOM      7  N   UNL     1      13.488   5.030   1.021  0.00  0.00    -0.280 N 
ATOM     27  C   UNL     1      14.550   4.130   0.854  0.00  0.00    +0.270 C 
ATOM     33  H   UNL     1      13.361   5.727   0.291  0.00  0.00    +0.155 HD
BRANCH  27  28
ATOM      5  O   UNL     1      17.048   4.217  -1.716  0.00  0.00    -0.359 OA
ATOM      9  N   UNL     1      16.620   3.919  -0.428  0.00  0.00    -0.073 NA
ATOM     28  C   UNL     1      15.341   4.302  -0.393  0.00  0.00    +0.168 A 
ATOM     29  C   UNL     1      14.911   4.844  -1.616  0.00  0.00    +0.080 A 
ATOM     30  C   UNL     1      16.022   4.768  -2.414  0.00  0.00    +0.135 A 
ATOM     31  C   UNL     1      16.301   5.146  -3.805  0.00  0.00    +0.089 C 
ENDBRANCH  27  28
ENDBRANCH  22   7
ENDBRANCH  11  13
BRANCH  10  12
ATOM     12  C   UNL     1       8.348   7.217   6.194  0.00  0.00    +0.181 C 
BRANCH  12   2
ATOM      2  O   UNL     1       7.672   7.136   4.956  0.00  0.00    -0.393 OA
ATOM     32  H   UNL     1       8.102   7.766   4.352  0.00  0.00    +0.209 HD
ENDBRANCH  12   2
ENDBRANCH  10  12
BRANCH   6  14
ATOM     14  C   UNL     1      11.219   7.813   7.689  0.00  0.00    +0.145 C 
BRANCH  14  17
ATOM      8  N   UNL     1      13.742   9.330   5.314  0.00  0.00    -0.263 NA
ATOM     17  C   UNL     1      12.476   8.002   6.889  0.00  0.00    -0.012 A 
ATOM     23  C   UNL     1      13.515   7.080   6.959  0.00  0.00    +0.008 A 
ATOM     24  C   UNL     1      12.637   9.101   6.060  0.00  0.00    +0.115 A 
ATOM     25  C   UNL     1      14.667   7.283   6.206  0.00  0.00    +0.020 A 
ATOM     26  C   UNL     1      14.730   8.412   5.407  0.00  0.00    +0.111 A 
ENDBRANCH  14  17
ENDBRANCH   6  14
TORSDOF 7
ENDMDL
MODEL 5
REMARK VINA RESULT:      -6.4      2.197      4.464
REMARK  Name = 71693411
REMARK  8 active torsions:
REMARK  status: ('A' for Active; 'I' for Inactive)
REMARK    1  A    between atoms: O_2  and  C_12
REMARK    2  A    between atoms: N_6  and  C_14
REMARK    3  A    between atoms: N_7  and  C_22
REMARK    4  A    between atoms: C_10  and  C_12
REMARK    5  A    between atoms: C_11  and  C_13
REMARK    6  A    between atoms: C_14  and  C_17
REMARK    7  A    between atoms: C_27  and  C_28
REMARK    8  A    between atoms: C_30  and  C_31
REMARK                            x       y       z     vdW  Elec       q    Type
REMARK                         _______ _______ _______ _____ _____    ______ ____
ROOT
ATOM      1  O   UNL     1      17.144  10.247  20.404  0.00  0.00    -0.361 OA
ATOM      3  O   UNL     1      14.500  10.422  18.238  0.00  0.00    -0.273 OA
ATOM      6  N   UNL     1      14.877   8.846  19.919  0.00  0.00    -0.287 N 
ATOM     10  C   UNL     1      15.454   8.607  21.246  0.00  0.00    +0.135 C 
ATOM     11  C   UNL     1      16.862   9.245  21.388  0.00  0.00    +0.171 C 
ATOM     15  C   UNL     1      15.052  10.071  19.279  0.00  0.00    +0.242 C 
ATOM     16  C   UNL     1      16.008  10.988  20.005  0.00  0.00    +0.256 C 
ENDROOT
BRANCH  11  13
ATOM     13  C   UNL     1      17.953   8.197  21.281  0.00  0.00    -0.017 A 
ATOM     18  C   UNL     1      19.145   8.354  21.989  0.00  0.00    +0.008 A 
ATOM     19  C   UNL     1      17.766   7.075  20.473  0.00  0.00    +0.008 A 
ATOM     20  C   UNL     1      20.147   7.390  21.890  0.00  0.00    +0.023 A 
ATOM     21  C   UNL     1      18.768   6.110  20.374  0.00  0.00    +0.023 A 
ATOM     22  C   UNL     1      19.959   6.267  21.083  0.00  0.00    +0.034 A 
BRANCH  22   7
ATOM      4  O   UNL     1      22.846   6.547  20.328  0.00  0.00    -0.268 OA
ATOM      7  N   UNL     1      20.962   5.303  20.985  0.00  0.00    -0.280 N 
ATOM     27  C   UNL     1      22.304   5.487  20.625  0.00  0.00    +0.270 C 
ATOM     33  H   UNL     1      20.675   4.352  21.207  0.00  0.00    +0.155 HD
BRANCH  27  28
ATOM      5  O   UNL     1      24.798   2.953  20.165  0.00  0.00    -0.359 OA
ATOM      9  N   UNL     1      24.275   4.220  19.933  0.00  0.00    -0.073 NA
ATOM     28  C   UNL     1      23.142   4.260  20.638  0.00  0.00    +0.168 A 
ATOM     29  C   UNL     1      22.899   3.060  21.328  0.00  0.00    +0.080 A 
ATOM     30  C   UNL     1      23.969   2.272  20.997  0.00  0.00    +0.135 A 
ATOM     31  C   UNL     1      24.372   0.905  21.351  0.00  0.00    +0.089 C 
ENDBRANCH  27  28
ENDBRANCH  22   7
ENDBRANCH  11  13
BRANCH  10  12
ATOM     12  C   UNL     1      14.508   9.105  22.346  0.00  0.00    +0.181 C 
BRANCH  12   2
ATOM      2  O   UNL     1      15.192  10.078  23.109  0.00  0.00    -0.393 OA
ATOM     32  H   UNL     1      14.948   9.937  24.040  0.00  0.00    +0.209 HD
ENDBRANCH  12   2
ENDBRANCH  10  12
BRANCH   6  14
ATOM     14  C   UNL     1      14.010   7.824  19.355  0.00  0.00    +0.145 C 
BRANCH  14  17
ATOM      8  N   UNL     1      10.662   8.534  20.967  0.00  0.00    -0.263 NA
ATOM     17  C   UNL     1      12.760   7.636  20.167  0.00  0.00    -0.012 A 
ATOM     23  C   UNL     1      12.524   6.452  20.855  0.00  0.00    +0.008 A 
ATOM     24  C   UNL     1      11.806   8.638  20.254  0.00  0.00    +0.115 A 
ATOM     25  C   UNL     1      11.358   6.307  21.599  0.00  0.00    +0.020 A 
ATOM     26  C   UNL     1      10.467   7.368  21.622  0.00  0.00    +0.111 A 
ENDBRANCH  14  17
ENDBRANCH   6  14
TORSDOF 7
ENDMDL
MODEL 6
REMARK VINA RESULT:      -6.3     14.145     15.825
REMARK  Name = 71693411
REMARK  8 active torsions:
REMARK  status: ('A' for Active; 'I' for Inactive)
REMARK    1  A    between atoms: O_2  and  C_12
REMARK    2  A    between atoms: N_6  and  C_14
REMARK    3  A    between atoms: N_7  and  C_22
REMARK    4  A    between atoms: C_10  and  C_12
REMARK    5  A    between atoms: C_11  and  C_13
REMARK    6  A    between atoms: C_14  and  C_17
REMARK    7  A    between atoms: C_27  and  C_28
REMARK    8  A    between atoms: C_30  and  C_31
REMARK                            x       y       z     vdW  Elec       q    Type
REMARK                         _______ _______ _______ _____ _____    ______ ____
ROOT
ATOM      1  O   UNL     1      10.104   8.460   6.829  0.00  0.00    -0.361 OA
ATOM      3  O   UNL     1       7.874   6.942   4.723  0.00  0.00    -0.273 OA
ATOM      6  N   UNL     1       9.693   5.979   5.824  0.00  0.00    -0.287 N 
ATOM     10  C   UNL     1      10.531   6.004   7.028  0.00  0.00    +0.135 C 
ATOM     11  C   UNL     1      10.926   7.451   7.426  0.00  0.00    +0.171 C 
ATOM     15  C   UNL     1       8.716   6.950   5.619  0.00  0.00    +0.242 C 
ATOM     16  C   UNL     1       8.761   8.062   6.641  0.00  0.00    +0.256 C 
ENDROOT
BRANCH  11  13
ATOM     13  C   UNL     1      12.360   7.756   7.035  0.00  0.00    -0.017 A 
ATOM     18  C   UNL     1      13.317   6.742   7.043  0.00  0.00    +0.008 A 
ATOM     19  C   UNL     1      12.722   9.053   6.668  0.00  0.00    +0.008 A 
ATOM     20  C   UNL     1      14.635   7.023   6.683  0.00  0.00    +0.023 A 
ATOM     21  C   UNL     1      14.039   9.335   6.307  0.00  0.00    +0.023 A 
ATOM     22  C   UNL     1      14.996   8.319   6.314  0.00  0.00    +0.034 A 
BRANCH  22   7
ATOM      4  O   UNL     1      16.440   7.847   3.730  0.00  0.00    -0.268 OA
ATOM      7  N   UNL     1      16.314   8.601   5.954  0.00  0.00    -0.280 N 
ATOM     27  C   UNL     1      16.943   8.358   4.725  0.00  0.00    +0.270 C 
ATOM     33  H   UNL     1      16.880   9.039   6.678  0.00  0.00    +0.155 HD
BRANCH  27  28
ATOM      5  O   UNL     1      20.057   9.995   4.033  0.00  0.00    -0.359 OA
ATOM      9  N   UNL     1      18.680   9.865   3.897  0.00  0.00    -0.073 NA
ATOM     28  C   UNL     1      18.360   8.800   4.636  0.00  0.00    +0.168 A 
ATOM     29  C   UNL     1      19.481   8.222   5.255  0.00  0.00    +0.080 A 
ATOM     30  C   UNL     1      20.523   9.011   4.844  0.00  0.00    +0.135 A 
ATOM     31  C   UNL     1      21.968   8.998   5.098  0.00  0.00    +0.089 C 
ENDBRANCH  27  28
ENDBRANCH  22   7
ENDBRANCH  11  13
BRANCH  10  12
ATOM     12  C   UNL     1       9.835   5.281   8.188  0.00  0.00    +0.181 C 
BRANCH  12   2
ATOM      2  O   UNL     1      10.433   4.010   8.338  0.00  0.00    -0.393 OA
ATOM     32  H   UNL     1      11.106   4.089   9.036  0.00  0.00    +0.209 HD
ENDBRANCH  12   2
ENDBRANCH  10  12
BRANCH   6  14
ATOM     14  C   UNL     1       9.819   4.842   4.926  0.00  0.00    +0.145 C 
BRANCH  14  17
ATOM      8  N   UNL     1      12.093   4.230   1.967  0.00  0.00    -0.263 NA
ATOM     17  C   UNL     1      10.876   5.063   3.883  0.00  0.00    -0.012 A 
ATOM     23  C   UNL     1      11.606   6.246   3.842  0.00  0.00    +0.008 A 
ATOM     24  C   UNL     1      11.155   4.095   2.931  0.00  0.00    +0.115 A 
ATOM     25  C   UNL     1      12.580   6.421   2.864  0.00  0.00    +0.020 A 
ATOM     26  C   UNL     1      12.782   5.393   1.959  0.00  0.00    +0.111 A 
ENDBRANCH  14  17
ENDBRANCH   6  14
TORSDOF 7
ENDMDL
MODEL 7
REMARK VINA RESULT:      -6.2     26.890     30.569
REMARK  Name = 71693411
REMARK  8 active torsions:
REMARK  status: ('A' for Active; 'I' for Inactive)
REMARK    1  A    between atoms: O_2  and  C_12
REMARK    2  A    between atoms: N_6  and  C_14
REMARK    3  A    between atoms: N_7  and  C_22
REMARK    4  A    between atoms: C_10  and  C_12
REMARK    5  A    between atoms: C_11  and  C_13
REMARK    6  A    between atoms: C_14  and  C_17
REMARK    7  A    between atoms: C_27  and  C_28
REMARK    8  A    between atoms: C_30  and  C_31
REMARK                            x       y       z     vdW  Elec       q    Type
REMARK                         _______ _______ _______ _____ _____    ______ ____
ROOT
ATOM      1  O   UNL     1      -1.782 -10.167  13.124  0.00  0.00    -0.361 OA
ATOM      3  O   UNL     1      -2.989 -10.357  16.321  0.00  0.00    -0.273 OA
ATOM      6  N   UNL     1      -3.512 -11.728  14.505  0.00  0.00    -0.287 N 
ATOM     10  C   UNL     1      -3.016 -12.337  13.267  0.00  0.00    +0.135 C 
ATOM     11  C   UNL     1      -2.219 -11.324  12.402  0.00  0.00    +0.171 C 
ATOM     15  C   UNL     1      -2.729 -10.816  15.210  0.00  0.00    +0.242 C 
ATOM     16  C   UNL     1      -1.467 -10.427  14.478  0.00  0.00    +0.256 C 
ENDROOT
BRANCH  11  13
ATOM     13  C   UNL     1      -3.048 -10.830  11.231  0.00  0.00    -0.017 A 
ATOM     18  C   UNL     1      -3.946 -11.690  10.599  0.00  0.00    +0.008 A 
ATOM     19  C   UNL     1      -2.911  -9.515  10.786  0.00  0.00    +0.008 A 
ATOM     20  C   UNL     1      -4.707 -11.235   9.523  0.00  0.00    +0.023 A 
ATOM     21  C   UNL     1      -3.672  -9.060   9.710  0.00  0.00    +0.023 A 
ATOM     22  C   UNL     1      -4.571  -9.920   9.078  0.00  0.00    +0.034 A 
BRANCH  22   7
ATOM      4  O   UNL     1      -7.449  -9.091   8.956  0.00  0.00    -0.268 OA
ATOM      7  N   UNL     1      -5.333  -9.465   8.001  0.00  0.00    -0.280 N 
ATOM     27  C   UNL     1      -6.683  -9.088   7.998  0.00  0.00    +0.270 C 
ATOM     33  H   UNL     1      -4.838  -9.399   7.115  0.00  0.00    +0.155 HD
BRANCH  27  28
ATOM      5  O   UNL     1      -8.392  -7.453   5.303  0.00  0.00    -0.359 OA
ATOM      9  N   UNL     1      -8.127  -7.646   6.654  0.00  0.00    -0.073 NA
ATOM     28  C   UNL     1      -7.209  -8.615   6.691  0.00  0.00    +0.168 A 
ATOM     29  C   UNL     1      -6.860  -9.070   5.408  0.00  0.00    +0.080 A 
ATOM     30  C   UNL     1      -7.631  -8.307   4.571  0.00  0.00    +0.135 A 
ATOM     31  C   UNL     1      -7.785  -8.239   3.113  0.00  0.00    +0.089 C 
ENDBRANCH  27  28
ENDBRANCH  22   7
ENDBRANCH  11  13
BRANCH  10  12
ATOM     12  C   UNL     1      -2.175 -13.583  13.575  0.00  0.00    +0.181 C 
BRANCH  12   2
ATOM      2  O   UNL     1      -0.870 -13.367  13.078  0.00  0.00    -0.393 OA
ATOM     32  H   UNL     1      -0.577 -12.500  13.406  0.00  0.00    +0.209 HD
ENDBRANCH  12   2
ENDBRANCH  10  12
BRANCH   6  14
ATOM     14  C   UNL     1      -4.777 -12.201  15.043  0.00  0.00    +0.145 C 
BRANCH  14  17
ATOM      8  N   UNL     1      -8.204 -11.992  13.456  0.00  0.00    -0.263 NA
ATOM     17  C   UNL     1      -5.951 -11.669  14.272  0.00  0.00    -0.012 A 
ATOM     23  C   UNL     1      -5.906 -10.415  13.673  0.00  0.00    +0.008 A 
ATOM     24  C   UNL     1      -7.113 -12.412  14.136  0.00  0.00    +0.115 A 
ATOM     25  C   UNL     1      -7.009  -9.949  12.965  0.00  0.00    +0.020 A 
ATOM     26  C   UNL     1      -8.123 -10.768  12.887  0.00  0.00    +0.111 A 
ENDBRANCH  14  17
ENDBRANCH   6  14
TORSDOF 7
ENDMDL
MODEL 8
REMARK VINA RESULT:      -6.1     26.883     30.460
REMARK  Name = 71693411
REMARK  8 active torsions:
REMARK  status: ('A' for Active; 'I' for Inactive)
REMARK    1  A    between atoms: O_2  and  C_12
REMARK    2  A    between atoms: N_6  and  C_14
REMARK    3  A    between atoms: N_7  and  C_22
REMARK    4  A    between atoms: C_10  and  C_12
REMARK    5  A    between atoms: C_11  and  C_13
REMARK    6  A    between atoms: C_14  and  C_17
REMARK    7  A    between atoms: C_27  and  C_28
REMARK    8  A    between atoms: C_30  and  C_31
REMARK                            x       y       z     vdW  Elec       q    Type
REMARK                         _______ _______ _______ _____ _____    ______ ____
ROOT
ATOM      1  O   UNL     1      -4.034 -13.165  14.965  0.00  0.00    -0.361 OA
ATOM      3  O   UNL     1      -2.153 -13.580  12.136  0.00  0.00    -0.273 OA
ATOM      6  N   UNL     1      -2.415 -11.645  13.414  0.00  0.00    -0.287 N 
ATOM     10  C   UNL     1      -2.634 -11.104  14.760  0.00  0.00    +0.135 C 
ATOM     11  C   UNL     1      -3.741 -11.879  15.522  0.00  0.00    +0.171 C 
ATOM     15  C   UNL     1      -2.457 -13.018  13.187  0.00  0.00    +0.242 C 
ATOM     16  C   UNL     1      -2.911 -13.806  14.392  0.00  0.00    +0.256 C 
ENDROOT
BRANCH  11  13
ATOM     13  C   UNL     1      -5.041 -11.098  15.546  0.00  0.00    -0.017 A 
ATOM     18  C   UNL     1      -6.088 -11.458  14.698  0.00  0.00    +0.008 A 
ATOM     19  C   UNL     1      -5.190 -10.019  16.417  0.00  0.00    +0.008 A 
ATOM     20  C   UNL     1      -7.283 -10.740  14.721  0.00  0.00    +0.023 A 
ATOM     21  C   UNL     1      -6.385  -9.300  16.441  0.00  0.00    +0.023 A 
ATOM     22  C   UNL     1      -7.432  -9.661  15.593  0.00  0.00    +0.034 A 
BRANCH  22   7
ATOM      4  O   UNL     1      -9.441  -9.316  17.790  0.00  0.00    -0.268 OA
ATOM      7  N   UNL     1      -8.628  -8.942  15.616  0.00  0.00    -0.280 N 
ATOM     27  C   UNL     1      -9.536  -8.813  16.676  0.00  0.00    +0.270 C 
ATOM     33  H   UNL     1      -8.859  -8.452  14.754  0.00  0.00    +0.155 HD
BRANCH  27  28
ATOM      5  O   UNL     1     -11.825  -6.152  15.942  0.00  0.00    -0.359 OA
ATOM      9  N   UNL     1     -10.544  -6.650  16.146  0.00  0.00    -0.073 NA
ATOM     28  C   UNL     1     -10.715  -7.950  16.403  0.00  0.00    +0.168 A 
ATOM     29  C   UNL     1     -12.069  -8.326  16.376  0.00  0.00    +0.080 A 
ATOM     30  C   UNL     1     -12.724  -7.160  16.081  0.00  0.00    +0.135 A 
ATOM     31  C   UNL     1     -14.138  -6.809  15.897  0.00  0.00    +0.089 C 
ENDBRANCH  27  28
ENDBRANCH  22   7
ENDBRANCH  11  13
BRANCH  10  12
ATOM     12  C   UNL     1      -1.322 -11.086  15.556  0.00  0.00    +0.181 C 
BRANCH  12   2
ATOM      2  O   UNL     1      -1.641 -11.131  16.932  0.00  0.00    -0.393 OA
ATOM     32  H   UNL     1      -0.906 -10.714  17.412  0.00  0.00    +0.209 HD
ENDBRANCH  12   2
ENDBRANCH  10  12
BRANCH   6  14
ATOM     14  C   UNL     1      -2.023 -10.723  12.361  0.00  0.00    +0.145 C 
BRANCH  14  17
ATOM      8  N   UNL     1      -5.567 -10.409  11.079  0.00  0.00    -0.263 NA
ATOM     17  C   UNL     1      -3.191 -10.307  11.513  0.00  0.00    -0.012 A 
ATOM     23  C   UNL     1      -3.018  -9.470  10.417  0.00  0.00    +0.008 A 
ATOM     24  C   UNL     1      -4.474 -10.745  11.800  0.00  0.00    +0.115 A 
ATOM     25  C   UNL     1      -4.120  -9.102   9.650  0.00  0.00    +0.020 A 
ATOM     26  C   UNL     1      -5.361  -9.594  10.020  0.00  0.00    +0.111 A 
ENDBRANCH  14  17
ENDBRANCH   6  14
TORSDOF 7
ENDMDL
MODEL 9
REMARK VINA RESULT:      -6.1     16.424     19.521
REMARK  Name = 71693411
REMARK  8 active torsions:
REMARK  status: ('A' for Active; 'I' for Inactive)
REMARK    1  A    between atoms: O_2  and  C_12
REMARK    2  A    between atoms: N_6  and  C_14
REMARK    3  A    between atoms: N_7  and  C_22
REMARK    4  A    between atoms: C_10  and  C_12
REMARK    5  A    between atoms: C_11  and  C_13
REMARK    6  A    between atoms: C_14  and  C_17
REMARK    7  A    between atoms: C_27  and  C_28
REMARK    8  A    between atoms: C_30  and  C_31
REMARK                            x       y       z     vdW  Elec       q    Type
REMARK                         _______ _______ _______ _____ _____    ______ ____
ROOT
ATOM      1  O   UNL     1      12.114   7.413   5.826  0.00  0.00    -0.361 OA
ATOM      3  O   UNL     1      10.085   9.973   6.847  0.00  0.00    -0.273 OA
ATOM      6  N   UNL     1       9.471   7.795   6.272  0.00  0.00    -0.287 N 
ATOM     10  C   UNL     1       9.877   6.386   6.263  0.00  0.00    +0.135 C 
ATOM     11  C   UNL     1      11.340   6.210   5.777  0.00  0.00    +0.171 C 
ATOM     15  C   UNL     1      10.363   8.788   6.670  0.00  0.00    +0.242 C 
ATOM     16  C   UNL     1      11.764   8.271   6.894  0.00  0.00    +0.256 C 
ENDROOT
BRANCH  11  13
ATOM     13  C   UNL     1      11.388   5.709   4.346  0.00  0.00    -0.017 A 
ATOM     18  C   UNL     1      10.611   4.616   3.962  0.00  0.00    +0.008 A 
ATOM     19  C   UNL     1      12.209   6.342   3.412  0.00  0.00    +0.008 A 
ATOM     20  C   UNL     1      10.655   4.156   2.646  0.00  0.00    +0.023 A 
ATOM     21  C   UNL     1      12.252   5.884   2.096  0.00  0.00    +0.023 A 
ATOM     22  C   UNL     1      11.475   4.791   1.712  0.00  0.00    +0.034 A 
BRANCH  22   7
ATOM      4  O   UNL     1       9.481   5.081  -0.506  0.00  0.00    -0.268 OA
ATOM      7  N   UNL     1      11.519   4.331   0.396  0.00  0.00    -0.280 N 
ATOM     27  C   UNL     1      10.554   4.495  -0.607  0.00  0.00    +0.270 C 
ATOM     33  H   UNL     1      12.360   3.819   0.141  0.00  0.00    +0.155 HD
BRANCH  27  28
ATOM      5  O   UNL     1      10.611   2.915  -3.826  0.00  0.00    -0.359 OA
ATOM      9  N   UNL     1       9.953   3.349  -2.681  0.00  0.00    -0.073 NA
ATOM     28  C   UNL     1      10.903   3.912  -1.929  0.00  0.00    +0.168 A 
ATOM     29  C   UNL     1      12.167   3.861  -2.540  0.00  0.00    +0.080 A 
ATOM     30  C   UNL     1      11.929   3.226  -3.730  0.00  0.00    +0.135 A 
ATOM     31  C   UNL     1      12.779   2.837  -4.861  0.00  0.00    +0.089 C 
ENDBRANCH  27  28
ENDBRANCH  22   7
ENDBRANCH  11  13
BRANCH  10  12
ATOM     12  C   UNL     1       9.673   5.753   7.646  0.00  0.00    +0.181 C 
BRANCH  12   2
ATOM      2  O   UNL     1      10.900   5.182   8.054  0.00  0.00    -0.393 OA
ATOM     32  H   UNL     1      11.609   5.767   7.736  0.00  0.00    +0.209 HD
ENDBRANCH  12   2
ENDBRANCH  10  12
BRANCH   6  14
ATOM     14  C   UNL     1       8.080   8.108   5.988  0.00  0.00    +0.145 C 
BRANCH  14  17
ATOM      8  N   UNL     1       6.875  10.192   3.071  0.00  0.00    -0.263 NA
ATOM     17  C   UNL     1       7.890   8.601   4.582  0.00  0.00    -0.012 A 
ATOM     23  C   UNL     1       8.514   7.971   3.512  0.00  0.00    +0.008 A 
ATOM     24  C   UNL     1       7.088   9.699   4.311  0.00  0.00    +0.115 A 
ATOM     25  C   UNL     1       8.318   8.450   2.220  0.00  0.00    +0.020 A 
ATOM     26  C   UNL     1       7.498   9.553   2.055  0.00  0.00    +0.111 A 
ENDBRANCH  14  17
ENDBRANCH   6  14
TORSDOF 7
ENDMDL
MODEL 10
REMARK VINA RESULT:      -6.0     26.616     30.778
REMARK  Name = 71693411
REMARK  8 active torsions:
REMARK  status: ('A' for Active; 'I' for Inactive)
REMARK    1  A    between atoms: O_2  and  C_12
REMARK    2  A    between atoms: N_6  and  C_14
REMARK    3  A    between atoms: N_7  and  C_22
REMARK    4  A    between atoms: C_10  and  C_12
REMARK    5  A    between atoms: C_11  and  C_13
REMARK    6  A    between atoms: C_14  and  C_17
REMARK    7  A    between atoms: C_27  and  C_28
REMARK    8  A    between atoms: C_30  and  C_31
REMARK                            x       y       z     vdW  Elec       q    Type
REMARK                         _______ _______ _______ _____ _____    ______ ____
ROOT
ATOM      1  O   UNL     1      -3.037 -13.162  15.039  0.00  0.00    -0.361 OA
ATOM      3  O   UNL     1      -2.628 -12.879  11.653  0.00  0.00    -0.273 OA
ATOM      6  N   UNL     1      -3.055 -11.179  13.194  0.00  0.00    -0.287 N 
ATOM     10  C   UNL     1      -2.850 -10.713  14.570  0.00  0.00    +0.135 C 
ATOM     11  C   UNL     1      -3.078 -11.847  15.604  0.00  0.00    +0.171 C 
ATOM     15  C   UNL     1      -2.631 -12.446  12.804  0.00  0.00    +0.242 C 
ATOM     16  C   UNL     1      -2.136 -13.287  13.957  0.00  0.00    +0.256 C 
ENDROOT
BRANCH  11  13
ATOM     13  C   UNL     1      -4.422 -11.701  16.292  0.00  0.00    -0.017 A 
ATOM     18  C   UNL     1      -4.770 -10.492  16.896  0.00  0.00    +0.008 A 
ATOM     19  C   UNL     1      -5.311 -12.776  16.322  0.00  0.00    +0.008 A 
ATOM     20  C   UNL     1      -6.006 -10.359  17.528  0.00  0.00    +0.023 A 
ATOM     21  C   UNL     1      -6.547 -12.643  16.953  0.00  0.00    +0.023 A 
ATOM     22  C   UNL     1      -6.895 -11.434  17.557  0.00  0.00    +0.034 A 
BRANCH  22   7
ATOM      4  O   UNL     1      -7.829 -12.451  20.217  0.00  0.00    -0.268 OA
ATOM      7  N   UNL     1      -8.132 -11.300  18.189  0.00  0.00    -0.280 N 
ATOM     27  C   UNL     1      -8.519 -11.798  19.440  0.00  0.00    +0.270 C 
ATOM     33  H   UNL     1      -8.831 -10.772  17.672  0.00  0.00    +0.155 HD
BRANCH  27  28
ATOM      5  O   UNL     1     -11.865 -11.748  20.726  0.00  0.00    -0.359 OA
ATOM      9  N   UNL     1     -10.650 -12.379  20.485  0.00  0.00    -0.073 NA
ATOM     28  C   UNL     1      -9.905 -11.465  19.858  0.00  0.00    +0.168 A 
ATOM     29  C   UNL     1     -10.590 -10.251  19.677  0.00  0.00    +0.080 A 
ATOM     30  C   UNL     1     -11.817 -10.481  20.240  0.00  0.00    +0.135 A 
ATOM     31  C   UNL     1     -13.025  -9.666  20.411  0.00  0.00    +0.089 C 
ENDBRANCH  27  28
ENDBRANCH  22   7
ENDBRANCH  11  13
BRANCH  10  12
ATOM     12  C   UNL     1      -1.457 -10.090  14.729  0.00  0.00    +0.181 C 
BRANCH  12   2
ATOM      2  O   UNL     1      -0.847 -10.659  15.870  0.00  0.00    -0.393 OA
ATOM     32  H   UNL     1      -0.270  -9.979  16.257  0.00  0.00    +0.209 HD
ENDBRANCH  12   2
ENDBRANCH  10  12
BRANCH   6  14
ATOM     14  C   UNL     1      -3.587 -10.235  12.224  0.00  0.00    +0.145 C 
BRANCH  14  17
ATOM      8  N   UNL     1      -7.105  -8.951  11.692  0.00  0.00    -0.263 NA
ATOM     17  C   UNL     1      -5.083 -10.127  12.305  0.00  0.00    -0.012 A 
ATOM     23  C   UNL     1      -5.829 -11.049  13.031  0.00  0.00    +0.008 A 
ATOM     24  C   UNL     1      -5.762  -9.106  11.659  0.00  0.00    +0.115 A 
ATOM     25  C   UNL     1      -7.214 -10.922  13.088  0.00  0.00    +0.020 A 
ATOM     26  C   UNL     1      -7.797  -9.866  12.407  0.00  0.00    +0.111 A 
ENDBRANCH  14  17
ENDBRANCH   6  14
TORSDOF 7
ENDMDL
