MODEL 1
REMARK VINA RESULT:      -6.5      0.000      0.000
REMARK  Name = 25389563
REMARK  9 active torsions:
REMARK  status: ('A' for Active; 'I' for Inactive)
REMARK    1  A    between atoms: O_2  and  C_17
REMARK    2  A    between atoms: O_2  and  C_22
REMARK    3  A    between atoms: N_6  and  C_20
REMARK    4  A    between atoms: N_8  and  C_26
REMARK    5  A    between atoms: C_10  and  C_16
REMARK    6  A    between atoms: C_11  and  C_17
REMARK    7  A    between atoms: C_19  and  C_21
REMARK    8  A    between atoms: C_31  and  C_32
REMARK    9  A    between atoms: C_32  and  C_33
REMARK                            x       y       z     vdW  Elec       q    Type
REMARK                         _______ _______ _______ _____ _____    ______ ____
ROOT
ATOM      5  N   UNL     1      -6.143 -10.501   9.443  0.00  0.00    -0.296 NA
ATOM      9  C   UNL     1      -4.233  -9.023  10.418  0.00  0.00    +0.002 C 
ATOM     10  C   UNL     1      -4.142 -10.469  10.981  0.00  0.00    +0.055 C 
ATOM     11  C   UNL     1      -6.703  -9.230   9.975  0.00  0.00    +0.095 C 
ATOM     12  C   UNL     1      -5.623  -8.436  10.739  0.00  0.00    +0.026 C 
ATOM     13  C   UNL     1      -4.131  -9.137   8.881  0.00  0.00    +0.019 C 
ATOM     14  C   UNL     1      -5.420 -11.226  10.517  0.00  0.00    +0.094 C 
ATOM     15  C   UNL     1      -5.167 -10.158   8.380  0.00  0.00    +0.085 C 
ENDROOT
BRANCH  10  16
ATOM      6  N   UNL     1      -2.641 -10.480  13.027  0.00  0.00    -0.270 N 
ATOM      7  N   UNL     1      -2.614 -10.682  14.355  0.00  0.00    -0.171 NA
ATOM     16  C   UNL     1      -3.874 -10.645  12.469  0.00  0.00    +0.044 A 
ATOM     18  C   UNL     1      -4.713 -10.978  13.504  0.00  0.00    +0.053 A 
ATOM     19  C   UNL     1      -3.883 -10.986  14.641  0.00  0.00    +0.100 A 
ATOM     20  C   UNL     1      -1.419 -10.122  12.344  0.00  0.00    +0.172 C 
BRANCH  19  21
ATOM      1  S   UNL     1      -4.665 -12.870  16.573  0.00  0.00    -0.095 S 
ATOM     21  C   UNL     1      -4.317 -11.289  16.016  0.00  0.00    +0.039 A 
ATOM     23  C   UNL     1      -4.492 -10.343  17.003  0.00  0.00    +0.018 A 
ATOM     24  C   UNL     1      -4.917 -10.926  18.232  0.00  0.00    +0.008 A 
ATOM     25  C   UNL     1      -5.050 -12.293  18.138  0.00  0.00    +0.046 A 
ENDBRANCH  19  21
ENDBRANCH  10  16
BRANCH  11  17
ATOM     17  C   UNL     1      -7.954  -9.457  10.826  0.00  0.00    +0.252 C 
BRANCH  17   2
ATOM      2  O   UNL     1      -7.673  -9.046  12.150  0.00  0.00    -0.449 OA
BRANCH   2  22
ATOM      3  O   UNL     1      -9.302 -10.425  12.971  0.00  0.00    -0.226 OA
ATOM      8  N   UNL     1      -7.649  -9.510  14.353  0.00  0.00    -0.251 N 
ATOM     22  C   UNL     1      -8.308  -9.734  13.160  0.00  0.00    +0.405 C 
ATOM     34  H   UNL     1      -6.835  -8.902  14.310  0.00  0.00    +0.158 HD
BRANCH   8  26
ATOM     26  C   UNL     1      -7.965 -10.023  15.632  0.00  0.00    +0.036 A 
ATOM     27  C   UNL     1      -8.100  -9.157  16.718  0.00  0.00    +0.024 A 
ATOM     28  C   UNL     1      -8.142 -11.396  15.808  0.00  0.00    +0.024 A 
ATOM     29  C   UNL     1      -8.410  -9.664  17.978  0.00  0.00    +0.013 A 
ATOM     30  C   UNL     1      -8.452 -11.902  17.070  0.00  0.00    +0.013 A 
ATOM     31  C   UNL     1      -8.587 -11.036  18.155  0.00  0.00    +0.017 A 
BRANCH  31  32
ATOM      4  O   UNL     1      -9.617 -10.922  20.274  0.00  0.00    -0.292 OA
ATOM     32  C   UNL     1      -8.911 -11.563  19.472  0.00  0.00    +0.160 C 
ATOM     33  C   UNL     1      -8.388 -12.931  19.902  0.00  0.00    +0.091 C 
ENDBRANCH  31  32
ENDBRANCH   8  26
ENDBRANCH   2  22
ENDBRANCH  17   2
ENDBRANCH  11  17
TORSDOF 7
ENDMDL
MODEL 2
REMARK VINA RESULT:      -6.1      3.477      6.633
REMARK  Name = 25389563
REMARK  9 active torsions:
REMARK  status: ('A' for Active; 'I' for Inactive)
REMARK    1  A    between atoms: O_2  and  C_17
REMARK    2  A    between atoms: O_2  and  C_22
REMARK    3  A    between atoms: N_6  and  C_20
REMARK    4  A    between atoms: N_8  and  C_26
REMARK    5  A    between atoms: C_10  and  C_16
REMARK    6  A    between atoms: C_11  and  C_17
REMARK    7  A    between atoms: C_19  and  C_21
REMARK    8  A    between atoms: C_31  and  C_32
REMARK    9  A    between atoms: C_32  and  C_33
REMARK                            x       y       z     vdW  Elec       q    Type
REMARK                         _______ _______ _______ _____ _____    ______ ____
ROOT
ATOM      5  N   UNL     1      -6.490 -10.503  17.814  0.00  0.00    -0.296 NA
ATOM      9  C   UNL     1      -4.449 -12.037  17.302  0.00  0.00    +0.002 C 
ATOM     10  C   UNL     1      -4.276 -10.655  16.613  0.00  0.00    +0.055 C 
ATOM     11  C   UNL     1      -6.959 -11.830  17.338  0.00  0.00    +0.095 C 
ATOM     12  C   UNL     1      -5.772 -12.679  16.835  0.00  0.00    +0.026 C 
ATOM     13  C   UNL     1      -4.587 -11.765  18.816  0.00  0.00    +0.019 C 
ATOM     14  C   UNL     1      -5.612  -9.877  16.794  0.00  0.00    +0.094 C 
ATOM     15  C   UNL     1      -5.690 -10.717  19.044  0.00  0.00    +0.085 C 
ENDROOT
BRANCH  10  16
ATOM      6  N   UNL     1      -2.461 -10.561  14.842  0.00  0.00    -0.270 N 
ATOM      7  N   UNL     1      -2.234 -10.545  13.518  0.00  0.00    -0.171 NA
ATOM     16  C   UNL     1      -3.782 -10.627  15.173  0.00  0.00    +0.044 A 
ATOM     18  C   UNL     1      -4.467 -10.656  13.983  0.00  0.00    +0.053 A 
ATOM     19  C   UNL     1      -3.463 -10.604  12.998  0.00  0.00    +0.100 A 
ATOM     20  C   UNL     1      -1.339 -10.511  15.751  0.00  0.00    +0.172 C 
BRANCH  19  21
ATOM      1  S   UNL     1      -3.829 -12.041  10.612  0.00  0.00    -0.095 S 
ATOM     21  C   UNL     1      -3.690 -10.610  11.542  0.00  0.00    +0.039 A 
ATOM     23  C   UNL     1      -3.815  -9.476  10.769  0.00  0.00    +0.018 A 
ATOM     24  C   UNL     1      -4.028  -9.787   9.394  0.00  0.00    +0.008 A 
ATOM     25  C   UNL     1      -4.058 -11.146   9.170  0.00  0.00    +0.046 A 
ENDBRANCH  19  21
ENDBRANCH  10  16
BRANCH  11  17
ATOM     17  C   UNL     1      -8.064 -11.715  16.285  0.00  0.00    +0.252 C 
BRANCH  17   2
ATOM      2  O   UNL     1      -8.989 -10.736  16.716  0.00  0.00    -0.449 OA
BRANCH   2  22
ATOM      3  O   UNL     1      -8.616  -9.492  14.833  0.00  0.00    -0.226 OA
ATOM      8  N   UNL     1     -10.480  -9.129  16.201  0.00  0.00    -0.251 N 
ATOM     22  C   UNL     1      -9.306  -9.744  15.813  0.00  0.00    +0.405 C 
ATOM     34  H   UNL     1     -10.913  -9.481  17.052  0.00  0.00    +0.158 HD
BRANCH   8  26
ATOM     26  C   UNL     1     -11.159  -8.067  15.562  0.00  0.00    +0.036 A 
ATOM     27  C   UNL     1     -11.086  -6.776  16.085  0.00  0.00    +0.024 A 
ATOM     28  C   UNL     1     -11.903  -8.310  14.406  0.00  0.00    +0.024 A 
ATOM     29  C   UNL     1     -11.756  -5.729  15.454  0.00  0.00    +0.013 A 
ATOM     30  C   UNL     1     -12.574  -7.263  13.775  0.00  0.00    +0.013 A 
ATOM     31  C   UNL     1     -12.500  -5.972  14.299  0.00  0.00    +0.017 A 
BRANCH  31  32
ATOM      4  O   UNL     1     -12.597  -3.857  13.261  0.00  0.00    -0.292 OA
ATOM     32  C   UNL     1     -13.199  -4.879  13.642  0.00  0.00    +0.160 C 
ATOM     33  C   UNL     1     -14.704  -4.963  13.401  0.00  0.00    +0.091 C 
ENDBRANCH  31  32
ENDBRANCH   8  26
ENDBRANCH   2  22
ENDBRANCH  17   2
ENDBRANCH  11  17
TORSDOF 7
ENDMDL
MODEL 3
REMARK VINA RESULT:      -5.9      3.059      8.525
REMARK  Name = 25389563
REMARK  9 active torsions:
REMARK  status: ('A' for Active; 'I' for Inactive)
REMARK    1  A    between atoms: O_2  and  C_17
REMARK    2  A    between atoms: O_2  and  C_22
REMARK    3  A    between atoms: N_6  and  C_20
REMARK    4  A    between atoms: N_8  and  C_26
REMARK    5  A    between atoms: C_10  and  C_16
REMARK    6  A    between atoms: C_11  and  C_17
REMARK    7  A    between atoms: C_19  and  C_21
REMARK    8  A    between atoms: C_31  and  C_32
REMARK    9  A    between atoms: C_32  and  C_33
REMARK                            x       y       z     vdW  Elec       q    Type
REMARK                         _______ _______ _______ _____ _____    ______ ____
ROOT
ATOM      5  N   UNL     1      -5.004 -12.505  16.842  0.00  0.00    -0.296 NA
ATOM      9  C   UNL     1      -5.562 -10.713  18.648  0.00  0.00    +0.002 C 
ATOM     10  C   UNL     1      -6.857 -11.429  18.175  0.00  0.00    +0.055 C 
ATOM     11  C   UNL     1      -4.365 -11.210  16.488  0.00  0.00    +0.095 C 
ATOM     12  C   UNL     1      -4.850 -10.088  17.430  0.00  0.00    +0.026 C 
ATOM     13  C   UNL     1      -4.627 -11.808  19.207  0.00  0.00    +0.019 C 
ATOM     14  C   UNL     1      -6.473 -12.330  16.966  0.00  0.00    +0.094 C 
ATOM     15  C   UNL     1      -4.476 -12.927  18.162  0.00  0.00    +0.085 C 
ENDROOT
BRANCH  10  16
ATOM      6  N   UNL     1      -9.228 -10.649  18.635  0.00  0.00    -0.270 N 
ATOM      7  N   UNL     1     -10.198  -9.816  18.223  0.00  0.00    -0.171 NA
ATOM     16  C   UNL     1      -8.087 -10.577  17.892  0.00  0.00    +0.044 A 
ATOM     18  C   UNL     1      -8.327  -9.631  16.926  0.00  0.00    +0.053 A 
ATOM     19  C   UNL     1      -9.641  -9.197  17.178  0.00  0.00    +0.100 A 
ATOM     20  C   UNL     1      -9.470 -11.504  19.774  0.00  0.00    +0.172 C 
BRANCH  19  21
ATOM      1  S   UNL     1     -10.914  -8.410  14.800  0.00  0.00    -0.095 S 
ATOM     21  C   UNL     1     -10.369  -8.174  16.405  0.00  0.00    +0.039 A 
ATOM     23  C   UNL     1     -10.690  -6.921  16.882  0.00  0.00    +0.018 A 
ATOM     24  C   UNL     1     -11.393  -6.146  15.915  0.00  0.00    +0.008 A 
ATOM     25  C   UNL     1     -11.583  -6.835  14.738  0.00  0.00    +0.046 A 
ENDBRANCH  19  21
ENDBRANCH  10  16
BRANCH  11  17
ATOM     17  C   UNL     1      -4.564 -10.845  15.016  0.00  0.00    +0.252 C 
BRANCH  17   2
ATOM      2  O   UNL     1      -3.294 -10.606  14.440  0.00  0.00    -0.449 OA
BRANCH   2  22
ATOM      3  O   UNL     1      -2.220 -11.381  12.575  0.00  0.00    -0.226 OA
ATOM      8  N   UNL     1      -4.290 -10.296  12.445  0.00  0.00    -0.251 N 
ATOM     22  C   UNL     1      -3.181 -10.815  13.083  0.00  0.00    +0.405 C 
ATOM     34  H   UNL     1      -4.989  -9.860  13.041  0.00  0.00    +0.158 HD
BRANCH   8  26
ATOM     26  C   UNL     1      -4.577 -10.296  11.061  0.00  0.00    +0.036 A 
ATOM     27  C   UNL     1      -4.079  -9.280  10.244  0.00  0.00    +0.024 A 
ATOM     28  C   UNL     1      -5.359 -11.312  10.511  0.00  0.00    +0.024 A 
ATOM     29  C   UNL     1      -4.363  -9.281   8.880  0.00  0.00    +0.013 A 
ATOM     30  C   UNL     1      -5.644 -11.312   9.145  0.00  0.00    +0.013 A 
ATOM     31  C   UNL     1      -5.146 -10.296   8.329  0.00  0.00    +0.017 A 
BRANCH  31  32
ATOM      4  O   UNL     1      -6.215  -9.458   6.402  0.00  0.00    -0.292 OA
ATOM     32  C   UNL     1      -5.441 -10.295   6.905  0.00  0.00    +0.160 C 
ATOM     33  C   UNL     1      -4.801 -11.332   5.987  0.00  0.00    +0.091 C 
ENDBRANCH  31  32
ENDBRANCH   8  26
ENDBRANCH   2  22
ENDBRANCH  17   2
ENDBRANCH  11  17
TORSDOF 7
ENDMDL
MODEL 4
REMARK VINA RESULT:      -5.9     28.018     30.712
REMARK  Name = 25389563
REMARK  9 active torsions:
REMARK  status: ('A' for Active; 'I' for Inactive)
REMARK    1  A    between atoms: O_2  and  C_17
REMARK    2  A    between atoms: O_2  and  C_22
REMARK    3  A    between atoms: N_6  and  C_20
REMARK    4  A    between atoms: N_8  and  C_26
REMARK    5  A    between atoms: C_10  and  C_16
REMARK    6  A    between atoms: C_11  and  C_17
REMARK    7  A    between atoms: C_19  and  C_21
REMARK    8  A    between atoms: C_31  and  C_32
REMARK    9  A    between atoms: C_32  and  C_33
REMARK                            x       y       z     vdW  Elec       q    Type
REMARK                         _______ _______ _______ _____ _____    ______ ____
ROOT
ATOM      5  N   UNL     1      12.368  12.221  24.924  0.00  0.00    -0.296 NA
ATOM      9  C   UNL     1      10.906  12.696  22.821  0.00  0.00    +0.002 C 
ATOM     10  C   UNL     1      11.220  11.178  22.933  0.00  0.00    +0.055 C 
ATOM     11  C   UNL     1      12.961  13.331  24.133  0.00  0.00    +0.095 C 
ATOM     12  C   UNL     1      12.229  13.489  22.783  0.00  0.00    +0.026 C 
ATOM     13  C   UNL     1      10.174  13.096  24.121  0.00  0.00    +0.019 C 
ATOM     14  C   UNL     1      12.253  11.003  24.084  0.00  0.00    +0.094 C 
ATOM     15  C   UNL     1      11.002  12.632  25.332  0.00  0.00    +0.085 C 
ENDROOT
BRANCH  10  16
ATOM      6  N   UNL     1      11.316   9.127  21.441  0.00  0.00    -0.270 N 
ATOM      7  N   UNL     1      11.772   8.656  20.269  0.00  0.00    -0.171 NA
ATOM     16  C   UNL     1      11.631  10.434  21.670  0.00  0.00    +0.044 A 
ATOM     18  C   UNL     1      12.343  10.847  20.571  0.00  0.00    +0.053 A 
ATOM     19  C   UNL     1      12.398   9.711  19.741  0.00  0.00    +0.100 A 
ATOM     20  C   UNL     1      10.568   8.249  22.312  0.00  0.00    +0.172 C 
BRANCH  19  21
ATOM      1  S   UNL     1      13.035   8.254  17.425  0.00  0.00    -0.095 S 
ATOM     21  C   UNL     1      13.061   9.642  18.427  0.00  0.00    +0.039 A 
ATOM     23  C   UNL     1      13.772  10.677  17.858  0.00  0.00    +0.018 A 
ATOM     24  C   UNL     1      14.302  10.325  16.583  0.00  0.00    +0.008 A 
ATOM     25  C   UNL     1      13.976   9.035  16.226  0.00  0.00    +0.046 A 
ENDBRANCH  19  21
ENDBRANCH  10  16
BRANCH  11  17
ATOM     17  C   UNL     1      14.471  13.173  23.948  0.00  0.00    +0.252 C 
BRANCH  17   2
ATOM      2  O   UNL     1      14.782  13.415  22.590  0.00  0.00    -0.449 OA
BRANCH   2  22
ATOM      3  O   UNL     1      16.701  13.034  21.405  0.00  0.00    -0.226 OA
ATOM      8  N   UNL     1      15.406  11.278  22.252  0.00  0.00    -0.251 N 
ATOM     22  C   UNL     1      15.733  12.599  22.017  0.00  0.00    +0.405 C 
ATOM     34  H   UNL     1      14.556  11.113  22.785  0.00  0.00    +0.158 HD
BRANCH   8  26
ATOM     26  C   UNL     1      16.108  10.121  21.844  0.00  0.00    +0.036 A 
ATOM     27  C   UNL     1      17.491  10.171  21.663  0.00  0.00    +0.024 A 
ATOM     28  C   UNL     1      15.418   8.929  21.621  0.00  0.00    +0.024 A 
ATOM     29  C   UNL     1      18.183   9.031  21.260  0.00  0.00    +0.013 A 
ATOM     30  C   UNL     1      16.111   7.788  21.217  0.00  0.00    +0.013 A 
ATOM     31  C   UNL     1      17.493   7.838  21.037  0.00  0.00    +0.017 A 
BRANCH  31  32
ATOM      4  O   UNL     1      19.207   6.232  21.247  0.00  0.00    -0.292 OA
ATOM     32  C   UNL     1      18.216   6.649  20.616  0.00  0.00    +0.160 C 
ATOM     33  C   UNL     1      17.771   5.876  19.378  0.00  0.00    +0.091 C 
ENDBRANCH  31  32
ENDBRANCH   8  26
ENDBRANCH   2  22
ENDBRANCH  17   2
ENDBRANCH  11  17
TORSDOF 7
ENDMDL
MODEL 5
REMARK VINA RESULT:      -5.8     27.541     30.450
REMARK  Name = 25389563
REMARK  9 active torsions:
REMARK  status: ('A' for Active; 'I' for Inactive)
REMARK    1  A    between atoms: O_2  and  C_17
REMARK    2  A    between atoms: O_2  and  C_22
REMARK    3  A    between atoms: N_6  and  C_20
REMARK    4  A    between atoms: N_8  and  C_26
REMARK    5  A    between atoms: C_10  and  C_16
REMARK    6  A    between atoms: C_11  and  C_17
REMARK    7  A    between atoms: C_19  and  C_21
REMARK    8  A    between atoms: C_31  and  C_32
REMARK    9  A    between atoms: C_32  and  C_33
REMARK                            x       y       z     vdW  Elec       q    Type
REMARK                         _______ _______ _______ _____ _____    ______ ____
ROOT
ATOM      5  N   UNL     1      11.367   7.388  20.464  0.00  0.00    -0.296 NA
ATOM      9  C   UNL     1      12.316   9.246  22.023  0.00  0.00    +0.002 C 
ATOM     10  C   UNL     1      11.706   9.874  20.740  0.00  0.00    +0.055 C 
ATOM     11  C   UNL     1      12.754   7.048  20.875  0.00  0.00    +0.095 C 
ATOM     12  C   UNL     1      13.405   8.228  21.626  0.00  0.00    +0.026 C 
ATOM     13  C   UNL     1      11.184   8.453  22.713  0.00  0.00    +0.019 C 
ATOM     14  C   UNL     1      11.348   8.704  19.778  0.00  0.00    +0.094 C 
ATOM     15  C   UNL     1      10.543   7.496  21.693  0.00  0.00    +0.085 C 
ENDROOT
BRANCH  10  16
ATOM      6  N   UNL     1      12.411  12.289  20.412  0.00  0.00    -0.270 N 
ATOM      7  N   UNL     1      13.173  13.108  19.667  0.00  0.00    -0.171 NA
ATOM     16  C   UNL     1      12.484  10.979  20.040  0.00  0.00    +0.044 A 
ATOM     18  C   UNL     1      13.354  10.938  18.979  0.00  0.00    +0.053 A 
ATOM     19  C   UNL     1      13.748  12.276  18.794  0.00  0.00    +0.100 A 
ATOM     20  C   UNL     1      11.622  12.845  21.487  0.00  0.00    +0.172 C 
BRANCH  19  21
ATOM      1  S   UNL     1      15.737  14.091  17.993  0.00  0.00    -0.095 S 
ATOM     21  C   UNL     1      14.686  12.759  17.765  0.00  0.00    +0.039 A 
ATOM     23  C   UNL     1      14.824  12.200  16.513  0.00  0.00    +0.018 A 
ATOM     24  C   UNL     1      15.806  12.874  15.731  0.00  0.00    +0.008 A 
ATOM     25  C   UNL     1      16.381  13.922  16.415  0.00  0.00    +0.046 A 
ENDBRANCH  19  21
ENDBRANCH  10  16
BRANCH  11  17
ATOM     17  C   UNL     1      13.612   6.578  19.697  0.00  0.00    +0.252 C 
BRANCH  17   2
ATOM      2  O   UNL     1      14.812   7.326  19.693  0.00  0.00    -0.449 OA
BRANCH   2  22
ATOM      3  O   UNL     1      16.163   5.844  18.594  0.00  0.00    -0.226 OA
ATOM      8  N   UNL     1      16.858   6.932  20.547  0.00  0.00    -0.251 N 
ATOM     22  C   UNL     1      15.982   6.618  19.526  0.00  0.00    +0.405 C 
ATOM     34  H   UNL     1      16.526   7.603  21.234  0.00  0.00    +0.158 HD
BRANCH   8  26
ATOM     26  C   UNL     1      18.164   6.434  20.756  0.00  0.00    +0.036 A 
ATOM     27  C   UNL     1      18.936   6.921  21.812  0.00  0.00    +0.024 A 
ATOM     28  C   UNL     1      18.683   5.456  19.906  0.00  0.00    +0.024 A 
ATOM     29  C   UNL     1      20.224   6.430  22.017  0.00  0.00    +0.013 A 
ATOM     30  C   UNL     1      19.972   4.966  20.111  0.00  0.00    +0.013 A 
ATOM     31  C   UNL     1      20.743   5.453  21.167  0.00  0.00    +0.017 A 
BRANCH  31  32
ATOM      4  O   UNL     1      22.914   4.870  20.452  0.00  0.00    -0.292 OA
ATOM     32  C   UNL     1      22.088   4.942  21.383  0.00  0.00    +0.160 C 
ATOM     33  C   UNL     1      22.521   4.479  22.770  0.00  0.00    +0.091 C 
ENDBRANCH  31  32
ENDBRANCH   8  26
ENDBRANCH   2  22
ENDBRANCH  17   2
ENDBRANCH  11  17
TORSDOF 7
ENDMDL
MODEL 6
REMARK VINA RESULT:      -5.6     22.401     25.495
REMARK  Name = 25389563
REMARK  9 active torsions:
REMARK  status: ('A' for Active; 'I' for Inactive)
REMARK    1  A    between atoms: O_2  and  C_17
REMARK    2  A    between atoms: O_2  and  C_22
REMARK    3  A    between atoms: N_6  and  C_20
REMARK    4  A    between atoms: N_8  and  C_26
REMARK    5  A    between atoms: C_10  and  C_16
REMARK    6  A    between atoms: C_11  and  C_17
REMARK    7  A    between atoms: C_19  and  C_21
REMARK    8  A    between atoms: C_31  and  C_32
REMARK    9  A    between atoms: C_32  and  C_33
REMARK                            x       y       z     vdW  Elec       q    Type
REMARK                         _______ _______ _______ _____ _____    ______ ____
ROOT
ATOM      5  N   UNL     1       4.629  11.808   1.310  0.00  0.00    -0.296 NA
ATOM      9  C   UNL     1       3.042  10.203   0.010  0.00  0.00    +0.002 C 
ATOM     10  C   UNL     1       2.218  11.227   0.840  0.00  0.00    +0.055 C 
ATOM     11  C   UNL     1       5.033  10.397   1.540  0.00  0.00    +0.095 C 
ATOM     12  C   UNL     1       3.987   9.427   0.950  0.00  0.00    +0.026 C 
ATOM     13  C   UNL     1       3.930  11.022  -0.952  0.00  0.00    +0.019 C 
ATOM     14  C   UNL     1       3.221  12.010   1.736  0.00  0.00    +0.094 C 
ATOM     15  C   UNL     1       4.712  12.074  -0.147  0.00  0.00    +0.085 C 
ENDROOT
BRANCH  10  16
ATOM      6  N   UNL     1      -0.114  10.244   1.030  0.00  0.00    -0.270 N 
ATOM      7  N   UNL     1      -1.056   9.842   1.899  0.00  0.00    -0.171 NA
ATOM     16  C   UNL     1       1.019  10.716   1.625  0.00  0.00    +0.044 A 
ATOM     18  C   UNL     1       0.801  10.616   2.978  0.00  0.00    +0.053 A 
ATOM     19  C   UNL     1      -0.492  10.071   3.087  0.00  0.00    +0.100 A 
ATOM     20  C   UNL     1      -0.372  10.144  -0.388  0.00  0.00    +0.172 C 
BRANCH  19  21
ATOM      1  S   UNL     1      -0.926  10.627   5.807  0.00  0.00    -0.095 S 
ATOM     21  C   UNL     1      -1.190   9.769   4.349  0.00  0.00    +0.039 A 
ATOM     23  C   UNL     1      -2.126   8.769   4.500  0.00  0.00    +0.018 A 
ATOM     24  C   UNL     1      -2.633   8.707   5.831  0.00  0.00    +0.008 A 
ATOM     25  C   UNL     1      -2.065   9.662   6.645  0.00  0.00    +0.046 A 
ENDBRANCH  19  21
ENDBRANCH  10  16
BRANCH  11  17
ATOM     17  C   UNL     1       5.314  10.104   3.015  0.00  0.00    +0.252 C 
BRANCH  17   2
ATOM      2  O   UNL     1       6.688  10.333   3.261  0.00  0.00    -0.449 OA
BRANCH   2  22
ATOM      3  O   UNL     1       7.929   8.457   2.846  0.00  0.00    -0.226 OA
ATOM      8  N   UNL     1       7.525   9.210   5.025  0.00  0.00    -0.251 N 
ATOM     22  C   UNL     1       7.438   9.243   3.647  0.00  0.00    +0.405 C 
ATOM     34  H   UNL     1       7.047   9.957   5.524  0.00  0.00    +0.158 HD
BRANCH   8  26
ATOM     26  C   UNL     1       8.198   8.266   5.832  0.00  0.00    +0.036 A 
ATOM     27  C   UNL     1       8.205   6.918   5.472  0.00  0.00    +0.024 A 
ATOM     28  C   UNL     1       8.857   8.682   6.990  0.00  0.00    +0.024 A 
ATOM     29  C   UNL     1       8.869   5.987   6.269  0.00  0.00    +0.013 A 
ATOM     30  C   UNL     1       9.521   7.750   7.788  0.00  0.00    +0.013 A 
ATOM     31  C   UNL     1       9.527   6.402   7.427  0.00  0.00    +0.017 A 
BRANCH  31  32
ATOM      4  O   UNL     1      11.430   5.552   8.531  0.00  0.00    -0.292 OA
ATOM     32  C   UNL     1      10.220   5.430   8.258  0.00  0.00    +0.160 C 
ATOM     33  C   UNL     1       9.470   4.226   8.819  0.00  0.00    +0.091 C 
ENDBRANCH  31  32
ENDBRANCH   8  26
ENDBRANCH   2  22
ENDBRANCH  17   2
ENDBRANCH  11  17
TORSDOF 7
ENDMDL
MODEL 7
REMARK VINA RESULT:      -5.6      2.600      4.895
REMARK  Name = 25389563
REMARK  9 active torsions:
REMARK  status: ('A' for Active; 'I' for Inactive)
REMARK    1  A    between atoms: O_2  and  C_17
REMARK    2  A    between atoms: O_2  and  C_22
REMARK    3  A    between atoms: N_6  and  C_20
REMARK    4  A    between atoms: N_8  and  C_26
REMARK    5  A    between atoms: C_10  and  C_16
REMARK    6  A    between atoms: C_11  and  C_17
REMARK    7  A    between atoms: C_19  and  C_21
REMARK    8  A    between atoms: C_31  and  C_32
REMARK    9  A    between atoms: C_32  and  C_33
REMARK                            x       y       z     vdW  Elec       q    Type
REMARK                         _______ _______ _______ _____ _____    ______ ____
ROOT
ATOM      5  N   UNL     1      -4.753  -9.289   9.199  0.00  0.00    -0.296 NA
ATOM      9  C   UNL     1      -6.387 -11.266   9.651  0.00  0.00    +0.002 C 
ATOM     10  C   UNL     1      -7.039  -9.917  10.063  0.00  0.00    +0.055 C 
ATOM     11  C   UNL     1      -4.057 -10.361   9.958  0.00  0.00    +0.095 C 
ATOM     12  C   UNL     1      -5.058 -11.444  10.413  0.00  0.00    +0.026 C 
ATOM     13  C   UNL     1      -6.039 -11.152   8.151  0.00  0.00    +0.019 C 
ATOM     14  C   UNL     1      -5.941  -8.820   9.955  0.00  0.00    +0.094 C 
ATOM     15  C   UNL     1      -5.221  -9.870   7.917  0.00  0.00    +0.085 C 
ENDROOT
BRANCH  10  16
ATOM      6  N   UNL     1      -9.132  -9.636  11.470  0.00  0.00    -0.270 N 
ATOM      7  N   UNL     1      -9.601  -9.617  12.729  0.00  0.00    -0.171 NA
ATOM     16  C   UNL     1      -7.789  -9.856  11.386  0.00  0.00    +0.044 A 
ATOM     18  C   UNL     1      -7.349  -9.989  12.680  0.00  0.00    +0.053 A 
ATOM     19  C   UNL     1      -8.507  -9.834  13.464  0.00  0.00    +0.100 A 
ATOM     20  C   UNL     1     -10.050  -9.433  10.373  0.00  0.00    +0.172 C 
BRANCH  19  21
ATOM      1  S   UNL     1      -9.935 -10.418  15.812  0.00  0.00    -0.095 S 
ATOM     21  C   UNL     1      -8.561  -9.895  14.935  0.00  0.00    +0.039 A 
ATOM     23  C   UNL     1      -7.521  -9.540  15.767  0.00  0.00    +0.018 A 
ATOM     24  C   UNL     1      -7.857  -9.701  17.142  0.00  0.00    +0.008 A 
ATOM     25  C   UNL     1      -9.141 -10.172  17.309  0.00  0.00    +0.046 A 
ENDBRANCH  19  21
ENDBRANCH  10  16
BRANCH  11  17
ATOM     17  C   UNL     1      -3.241  -9.810  11.129  0.00  0.00    +0.252 C 
BRANCH  17   2
ATOM      2  O   UNL     1      -2.203 -10.725  11.419  0.00  0.00    -0.449 OA
BRANCH   2  22
ATOM      3  O   UNL     1      -1.796 -12.500  12.803  0.00  0.00    -0.226 OA
ATOM      8  N   UNL     1      -2.970 -10.611  13.533  0.00  0.00    -0.251 N 
ATOM     22  C   UNL     1      -2.282 -11.390  12.623  0.00  0.00    +0.405 C 
ATOM     34  H   UNL     1      -3.299  -9.710  13.196  0.00  0.00    +0.158 HD
BRANCH   8  26
ATOM     26  C   UNL     1      -3.275 -10.911  14.880  0.00  0.00    +0.036 A 
ATOM     27  C   UNL     1      -4.500 -11.495  15.205  0.00  0.00    +0.024 A 
ATOM     28  C   UNL     1      -2.351 -10.622  15.885  0.00  0.00    +0.024 A 
ATOM     29  C   UNL     1      -4.800 -11.790  16.534  0.00  0.00    +0.013 A 
ATOM     30  C   UNL     1      -2.652 -10.917  17.215  0.00  0.00    +0.013 A 
ATOM     31  C   UNL     1      -3.877 -11.501  17.539  0.00  0.00    +0.017 A 
BRANCH  31  32
ATOM      4  O   UNL     1      -3.304 -12.139  19.736  0.00  0.00    -0.292 OA
ATOM     32  C   UNL     1      -4.191 -11.809  18.925  0.00  0.00    +0.160 C 
ATOM     33  C   UNL     1      -5.632 -11.734  19.421  0.00  0.00    +0.091 C 
ENDBRANCH  31  32
ENDBRANCH   8  26
ENDBRANCH   2  22
ENDBRANCH  17   2
ENDBRANCH  11  17
TORSDOF 7
ENDMDL
MODEL 8
REMARK VINA RESULT:      -5.6      3.243      7.744
REMARK  Name = 25389563
REMARK  9 active torsions:
REMARK  status: ('A' for Active; 'I' for Inactive)
REMARK    1  A    between atoms: O_2  and  C_17
REMARK    2  A    between atoms: O_2  and  C_22
REMARK    3  A    between atoms: N_6  and  C_20
REMARK    4  A    between atoms: N_8  and  C_26
REMARK    5  A    between atoms: C_10  and  C_16
REMARK    6  A    between atoms: C_11  and  C_17
REMARK    7  A    between atoms: C_19  and  C_21
REMARK    8  A    between atoms: C_31  and  C_32
REMARK    9  A    between atoms: C_32  and  C_33
REMARK                            x       y       z     vdW  Elec       q    Type
REMARK                         _______ _______ _______ _____ _____    ______ ____
ROOT
ATOM      5  N   UNL     1     -11.599 -11.710  18.410  0.00  0.00    -0.296 NA
ATOM      9  C   UNL     1     -11.384  -9.315  17.410  0.00  0.00    +0.002 C 
ATOM     10  C   UNL     1     -11.392 -10.378  16.277  0.00  0.00    +0.055 C 
ATOM     11  C   UNL     1     -10.517 -10.964  19.104  0.00  0.00    +0.095 C 
ATOM     12  C   UNL     1     -10.236  -9.624  18.392  0.00  0.00    +0.026 C 
ATOM     13  C   UNL     1     -12.707  -9.486  18.189  0.00  0.00    +0.019 C 
ATOM     14  C   UNL     1     -11.318 -11.777  16.954  0.00  0.00    +0.094 C 
ATOM     15  C   UNL     1     -12.864 -10.960  18.602  0.00  0.00    +0.085 C 
ENDROOT
BRANCH  10  16
ATOM      6  N   UNL     1     -10.671  -9.602  13.970  0.00  0.00    -0.270 N 
ATOM      7  N   UNL     1      -9.647  -9.579  13.102  0.00  0.00    -0.171 NA
ATOM     16  C   UNL     1     -10.383 -10.230  15.146  0.00  0.00    +0.044 A 
ATOM     18  C   UNL     1      -9.079 -10.647  15.039  0.00  0.00    +0.053 A 
ATOM     19  C   UNL     1      -8.676 -10.218  13.760  0.00  0.00    +0.100 A 
ATOM     20  C   UNL     1     -11.926  -8.988  13.598  0.00  0.00    +0.172 C 
BRANCH  19  21
ATOM      1  S   UNL     1      -7.067 -11.375  11.769  0.00  0.00    -0.095 S 
ATOM     21  C   UNL     1      -7.344 -10.427  13.167  0.00  0.00    +0.039 A 
ATOM     23  C   UNL     1      -6.177  -9.888  13.666  0.00  0.00    +0.018 A 
ATOM     24  C   UNL     1      -5.042 -10.259  12.888  0.00  0.00    +0.008 A 
ATOM     25  C   UNL     1      -5.384 -11.066  11.826  0.00  0.00    +0.046 A 
ENDBRANCH  19  21
ENDBRANCH  10  16
BRANCH  11  17
ATOM     17  C   UNL     1      -9.246 -11.800  19.268  0.00  0.00    +0.252 C 
BRANCH  17   2
ATOM      2  O   UNL     1      -8.308 -11.045  20.009  0.00  0.00    -0.449 OA
BRANCH   2  22
ATOM      3  O   UNL     1      -6.062 -11.161  20.426  0.00  0.00    -0.226 OA
ATOM      8  N   UNL     1      -6.916 -11.228  18.248  0.00  0.00    -0.251 N 
ATOM     22  C   UNL     1      -6.988 -11.147  19.625  0.00  0.00    +0.405 C 
ATOM     34  H   UNL     1      -7.802 -11.201  17.749  0.00  0.00    +0.158 HD
BRANCH   8  26
ATOM     26  C   UNL     1      -5.761 -11.345  17.442  0.00  0.00    +0.036 A 
ATOM     27  C   UNL     1      -5.516 -12.525  16.740  0.00  0.00    +0.024 A 
ATOM     28  C   UNL     1      -4.866 -10.278  17.349  0.00  0.00    +0.024 A 
ATOM     29  C   UNL     1      -4.376 -12.640  15.946  0.00  0.00    +0.013 A 
ATOM     30  C   UNL     1      -3.725 -10.394  16.554  0.00  0.00    +0.013 A 
ATOM     31  C   UNL     1      -3.480 -11.575  15.853  0.00  0.00    +0.017 A 
BRANCH  31  32
ATOM      4  O   UNL     1      -2.154 -12.634  14.215  0.00  0.00    -0.292 OA
ATOM     32  C   UNL     1      -2.291 -11.696  15.024  0.00  0.00    +0.160 C 
ATOM     33  C   UNL     1      -1.173 -10.663  15.129  0.00  0.00    +0.091 C 
ENDBRANCH  31  32
ENDBRANCH   8  26
ENDBRANCH   2  22
ENDBRANCH  17   2
ENDBRANCH  11  17
TORSDOF 7
ENDMDL
MODEL 9
REMARK VINA RESULT:      -5.5     28.188     30.938
REMARK  Name = 25389563
REMARK  9 active torsions:
REMARK  status: ('A' for Active; 'I' for Inactive)
REMARK    1  A    between atoms: O_2  and  C_17
REMARK    2  A    between atoms: O_2  and  C_22
REMARK    3  A    between atoms: N_6  and  C_20
REMARK    4  A    between atoms: N_8  and  C_26
REMARK    5  A    between atoms: C_10  and  C_16
REMARK    6  A    between atoms: C_11  and  C_17
REMARK    7  A    between atoms: C_19  and  C_21
REMARK    8  A    between atoms: C_31  and  C_32
REMARK    9  A    between atoms: C_32  and  C_33
REMARK                            x       y       z     vdW  Elec       q    Type
REMARK                         _______ _______ _______ _____ _____    ______ ____
ROOT
ATOM      5  N   UNL     1      12.537   8.652  18.491  0.00  0.00    -0.296 NA
ATOM      9  C   UNL     1      12.267   8.456  21.074  0.00  0.00    +0.002 C 
ATOM     10  C   UNL     1      12.782   9.870  20.687  0.00  0.00    +0.055 C 
ATOM     11  C   UNL     1      13.208   7.419  18.981  0.00  0.00    +0.095 C 
ATOM     12  C   UNL     1      13.237   7.391  20.523  0.00  0.00    +0.026 C 
ATOM     13  C   UNL     1      10.918   8.260  20.348  0.00  0.00    +0.019 C 
ATOM     14  C   UNL     1      13.109   9.844  19.166  0.00  0.00    +0.094 C 
ATOM     15  C   UNL     1      11.101   8.562  18.850  0.00  0.00    +0.085 C 
ENDROOT
BRANCH  10  16
ATOM      6  N   UNL     1      13.701  11.177  22.659  0.00  0.00    -0.270 N 
ATOM      7  N   UNL     1      14.828  11.627  23.235  0.00  0.00    -0.171 NA
ATOM     16  C   UNL     1      13.911  10.473  21.510  0.00  0.00    +0.044 A 
ATOM     18  C   UNL     1      15.272  10.462  21.321  0.00  0.00    +0.053 A 
ATOM     19  C   UNL     1      15.785  11.187  22.413  0.00  0.00    +0.100 A 
ATOM     20  C   UNL     1      12.428  11.466  23.280  0.00  0.00    +0.172 C 
BRANCH  19  21
ATOM      1  S   UNL     1      18.487  10.637  21.874  0.00  0.00    -0.095 S 
ATOM     21  C   UNL     1      17.211  11.457  22.668  0.00  0.00    +0.039 A 
ATOM     23  C   UNL     1      17.677  12.393  23.565  0.00  0.00    +0.018 A 
ATOM     24  C   UNL     1      19.101  12.436  23.602  0.00  0.00    +0.008 A 
ATOM     25  C   UNL     1      19.668  11.532  22.730  0.00  0.00    +0.046 A 
ENDBRANCH  19  21
ENDBRANCH  10  16
BRANCH  11  17
ATOM     17  C   UNL     1      14.603   7.237  18.380  0.00  0.00    +0.252 C 
BRANCH  17   2
ATOM      2  O   UNL     1      15.560   7.497  19.388  0.00  0.00    -0.449 OA
BRANCH   2  22
ATOM      3  O   UNL     1      16.572   5.491  18.961  0.00  0.00    -0.226 OA
ATOM      8  N   UNL     1      17.527   7.072  20.398  0.00  0.00    -0.251 N 
ATOM     22  C   UNL     1      16.572   6.573  19.534  0.00  0.00    +0.405 C 
ATOM     34  H   UNL     1      17.350   7.999  20.777  0.00  0.00    +0.158 HD
BRANCH   8  26
ATOM     26  C   UNL     1      18.725   6.454  20.822  0.00  0.00    +0.036 A 
ATOM     27  C   UNL     1      19.307   5.452  20.045  0.00  0.00    +0.024 A 
ATOM     28  C   UNL     1      19.327   6.847  22.019  0.00  0.00    +0.024 A 
ATOM     29  C   UNL     1      20.488   4.843  20.464  0.00  0.00    +0.013 A 
ATOM     30  C   UNL     1      20.509   6.236  22.438  0.00  0.00    +0.013 A 
ATOM     31  C   UNL     1      21.090   5.234  21.660  0.00  0.00    +0.017 A 
BRANCH  31  32
ATOM      4  O   UNL     1      23.204   5.234  22.705  0.00  0.00    -0.292 OA
ATOM     32  C   UNL     1      22.323   4.597  22.096  0.00  0.00    +0.160 C 
ATOM     33  C   UNL     1      22.565   3.117  21.814  0.00  0.00    +0.091 C 
ENDBRANCH  31  32
ENDBRANCH   8  26
ENDBRANCH   2  22
ENDBRANCH  17   2
ENDBRANCH  11  17
TORSDOF 7
ENDMDL
MODEL 10
REMARK VINA RESULT:      -5.5     24.875     28.193
REMARK  Name = 25389563
REMARK  9 active torsions:
REMARK  status: ('A' for Active; 'I' for Inactive)
REMARK    1  A    between atoms: O_2  and  C_17
REMARK    2  A    between atoms: O_2  and  C_22
REMARK    3  A    between atoms: N_6  and  C_20
REMARK    4  A    between atoms: N_8  and  C_26
REMARK    5  A    between atoms: C_10  and  C_16
REMARK    6  A    between atoms: C_11  and  C_17
REMARK    7  A    between atoms: C_19  and  C_21
REMARK    8  A    between atoms: C_31  and  C_32
REMARK    9  A    between atoms: C_32  and  C_33
REMARK                            x       y       z     vdW  Elec       q    Type
REMARK                         _______ _______ _______ _____ _____    ______ ____
ROOT
ATOM      5  N   UNL     1      15.256   4.225  -1.126  0.00  0.00    -0.296 NA
ATOM      9  C   UNL     1      15.351   6.828  -1.099  0.00  0.00    +0.002 C 
ATOM     10  C   UNL     1      16.025   6.246   0.175  0.00  0.00    +0.055 C 
ATOM     11  C   UNL     1      13.908   4.786  -1.402  0.00  0.00    +0.095 C 
ATOM     12  C   UNL     1      13.899   6.314  -1.188  0.00  0.00    +0.026 C 
ATOM     13  C   UNL     1      16.112   6.247  -2.310  0.00  0.00    +0.019 C 
ATOM     14  C   UNL     1      15.752   4.715   0.185  0.00  0.00    +0.094 C 
ATOM     15  C   UNL     1      16.178   4.715  -2.180  0.00  0.00    +0.085 C 
ENDROOT
BRANCH  10  16
ATOM      6  N   UNL     1      16.463   7.905   2.045  0.00  0.00    -0.270 N 
ATOM      7  N   UNL     1      16.021   8.342   3.236  0.00  0.00    -0.171 NA
ATOM     16  C   UNL     1      15.712   6.898   1.514  0.00  0.00    +0.044 A 
ATOM     18  C   UNL     1      14.709   6.660   2.422  0.00  0.00    +0.053 A 
ATOM     19  C   UNL     1      14.949   7.578   3.461  0.00  0.00    +0.100 A 
ATOM     20  C   UNL     1      17.637   8.512   1.462  0.00  0.00    +0.172 C 
BRANCH  19  21
ATOM      1  S   UNL     1      14.742   7.441   6.260  0.00  0.00    -0.095 S 
ATOM     21  C   UNL     1      14.137   7.720   4.683  0.00  0.00    +0.039 A 
ATOM     23  C   UNL     1      12.810   8.092   4.696  0.00  0.00    +0.018 A 
ATOM     24  C   UNL     1      12.284   8.147   6.019  0.00  0.00    +0.008 A 
ATOM     25  C   UNL     1      13.228   7.816   6.966  0.00  0.00    +0.046 A 
ENDBRANCH  19  21
ENDBRANCH  10  16
BRANCH  11  17
ATOM     17  C   UNL     1      12.810   4.089  -0.595  0.00  0.00    +0.252 C 
BRANCH  17   2
ATOM      2  O   UNL     1      11.565   4.657  -0.952  0.00  0.00    -0.449 OA
BRANCH   2  22
ATOM      3  O   UNL     1       9.449   4.560  -0.090  0.00  0.00    -0.226 OA
ATOM      8  N   UNL     1      11.274   5.255   1.199  0.00  0.00    -0.251 N 
ATOM     22  C   UNL     1      10.640   4.806   0.058  0.00  0.00    +0.405 C 
ATOM     34  H   UNL     1      12.278   5.402   1.128  0.00  0.00    +0.158 HD
BRANCH   8  26
ATOM     26  C   UNL     1      10.701   5.537   2.460  0.00  0.00    +0.036 A 
ATOM     27  C   UNL     1       9.904   6.670   2.627  0.00  0.00    +0.024 A 
ATOM     28  C   UNL     1      10.932   4.682   3.538  0.00  0.00    +0.024 A 
ATOM     29  C   UNL     1       9.340   6.947   3.871  0.00  0.00    +0.013 A 
ATOM     30  C   UNL     1      10.368   4.960   4.783  0.00  0.00    +0.013 A 
ATOM     31  C   UNL     1       9.571   6.093   4.949  0.00  0.00    +0.017 A 
BRANCH  31  32
ATOM      4  O   UNL     1       9.083   5.588   7.201  0.00  0.00    -0.292 OA
ATOM     32  C   UNL     1       8.981   6.384   6.247  0.00  0.00    +0.160 C 
ATOM     33  C   UNL     1       8.217   7.686   6.469  0.00  0.00    +0.091 C 
ENDBRANCH  31  32
ENDBRANCH   8  26
ENDBRANCH   2  22
ENDBRANCH  17   2
ENDBRANCH  11  17
TORSDOF 7
ENDMDL
