MODEL 1
REMARK VINA RESULT:      -7.0      0.000      0.000
REMARK  Name = 75536739
REMARK  10 active torsions:
REMARK  status: ('A' for Active; 'I' for Inactive)
REMARK    1  A    between atoms: O_2  and  C_9
REMARK    2  A    between atoms: N_4  and  C_8
REMARK    3  A    between atoms: N_4  and  C_13
REMARK    4  A    between atoms: N_5  and  C_12
REMARK    5  A    between atoms: N_6  and  C_18
REMARK    6  A    between atoms: C_10  and  C_12
REMARK    7  A    between atoms: C_13  and  C_14
REMARK    8  A    between atoms: C_18  and  C_21
REMARK    9  A    between atoms: C_18  and  C_22
REMARK   10  A    between atoms: C_19  and  C_24
REMARK                            x       y       z     vdW  Elec       q    Type
REMARK                         _______ _______ _______ _____ _____    ______ ____
ROOT
ATOM      1  O   UNL     1      11.283   8.130  19.942  0.00  0.00    -0.371 OA
ATOM      8  C   UNL     1      12.828   6.497  20.684  0.00  0.00    +0.111 C 
ATOM      9  C   UNL     1      11.562   6.351  21.510  0.00  0.00    +0.164 C 
ATOM     10  C   UNL     1      10.708   7.561  21.133  0.00  0.00    +0.165 C 
ATOM     11  C   UNL     1      12.324   7.265  19.473  0.00  0.00    +0.181 C 
ENDROOT
BRANCH   9   2
ATOM      2  O   UNL     1      10.898   5.160  21.080  0.00  0.00    -0.388 OA
ATOM     26  H   UNL     1      10.476   5.355  20.226  0.00  0.00    +0.210 HD
ENDBRANCH   9   2
BRANCH   8   4
ATOM      4  N   UNL     1      13.849   7.265  21.395  0.00  0.00    -0.305 NA
ATOM     25  H   UNL     1      13.397   7.973  21.975  0.00  0.00    +0.123 HD
BRANCH   4  13
ATOM     13  C   UNL     1      14.747   7.935  20.462  0.00  0.00    +0.116 C 
BRANCH  13  14
ATOM     14  C   UNL     1      16.033   7.174  20.278  0.00  0.00    -0.032 A 
ATOM     16  C   UNL     1      17.013   7.208  21.269  0.00  0.00    +0.023 A 
ATOM     17  C   UNL     1      16.243   6.434  19.114  0.00  0.00    +0.005 A 
ATOM     19  C   UNL     1      18.204   6.502  21.098  0.00  0.00    +0.052 A 
ATOM     20  C   UNL     1      17.434   5.727  18.943  0.00  0.00    +0.002 A 
ATOM     23  C   UNL     1      18.414   5.761  19.935  0.00  0.00    +0.019 A 
BRANCH  19  24
ATOM      7  N   UNL     1      20.025   6.564  22.938  0.00  0.00    -0.191 NA
ATOM     24  C   UNL     1      19.208   6.536  22.114  0.00  0.00    +0.099 C 
ENDBRANCH  19  24
ENDBRANCH  13  14
ENDBRANCH   4  13
ENDBRANCH   8   4
BRANCH  10  12
ATOM     12  C   UNL     1      10.671   8.638  22.207  0.00  0.00    +0.140 C 
BRANCH  12   5
ATOM      3  O   UNL     1      12.131  11.108  21.899  0.00  0.00    -0.253 OA
ATOM      5  N   UNL     1      11.987   8.931  22.697  0.00  0.00    -0.297 N 
ATOM      6  N   UNL     1      13.893  10.173  23.082  0.00  0.00    -0.297 N 
ATOM     15  C   UNL     1      12.627  10.159  22.503  0.00  0.00    +0.300 C 
ATOM     27  H   UNL     1      12.484   8.205  23.204  0.00  0.00    +0.150 HD
ATOM     28  H   UNL     1      14.244   9.316  23.499  0.00  0.00    +0.150 HD
BRANCH   6  18
ATOM     18  C   UNL     1      14.766  11.322  23.028  0.00  0.00    +0.068 C 
ATOM     21  C   UNL     1      15.071  11.830  24.431  0.00  0.00    +0.027 C 
ATOM     22  C   UNL     1      16.046  10.981  22.274  0.00  0.00    +0.027 C 
ENDBRANCH   6  18
ENDBRANCH  12   5
ENDBRANCH  10  12
TORSDOF 8
ENDMDL
MODEL 2
REMARK VINA RESULT:      -6.9      1.956      2.305
REMARK  Name = 75536739
REMARK  10 active torsions:
REMARK  status: ('A' for Active; 'I' for Inactive)
REMARK    1  A    between atoms: O_2  and  C_9
REMARK    2  A    between atoms: N_4  and  C_8
REMARK    3  A    between atoms: N_4  and  C_13
REMARK    4  A    between atoms: N_5  and  C_12
REMARK    5  A    between atoms: N_6  and  C_18
REMARK    6  A    between atoms: C_10  and  C_12
REMARK    7  A    between atoms: C_13  and  C_14
REMARK    8  A    between atoms: C_18  and  C_21
REMARK    9  A    between atoms: C_18  and  C_22
REMARK   10  A    between atoms: C_19  and  C_24
REMARK                            x       y       z     vdW  Elec       q    Type
REMARK                         _______ _______ _______ _____ _____    ______ ____
ROOT
ATOM      1  O   UNL     1      10.961   8.506  20.345  0.00  0.00    -0.371 OA
ATOM      8  C   UNL     1      12.697   6.901  20.465  0.00  0.00    +0.111 C 
ATOM      9  C   UNL     1      11.630   6.510  21.473  0.00  0.00    +0.164 C 
ATOM     10  C   UNL     1      10.664   7.694  21.496  0.00  0.00    +0.165 C 
ATOM     11  C   UNL     1      11.924   7.823  19.536  0.00  0.00    +0.181 C 
ENDROOT
BRANCH   9   2
ATOM      2  O   UNL     1      10.949   5.362  20.963  0.00  0.00    -0.388 OA
ATOM     26  H   UNL     1      10.799   4.758  21.711  0.00  0.00    +0.210 HD
ENDBRANCH   9   2
BRANCH   8   4
ATOM      4  N   UNL     1      13.803   7.614  21.100  0.00  0.00    -0.305 NA
ATOM     25  H   UNL     1      13.434   8.389  21.649  0.00  0.00    +0.123 HD
BRANCH   4  13
ATOM     13  C   UNL     1      14.724   8.148  20.103  0.00  0.00    +0.116 C 
BRANCH  13  14
ATOM     14  C   UNL     1      16.013   7.372  20.057  0.00  0.00    -0.032 A 
ATOM     16  C   UNL     1      17.006   7.612  21.006  0.00  0.00    +0.023 A 
ATOM     17  C   UNL     1      16.212   6.413  19.064  0.00  0.00    +0.005 A 
ATOM     19  C   UNL     1      18.200   6.891  20.963  0.00  0.00    +0.052 A 
ATOM     20  C   UNL     1      17.405   5.692  19.022  0.00  0.00    +0.002 A 
ATOM     23  C   UNL     1      18.400   5.930  19.971  0.00  0.00    +0.019 A 
BRANCH  19  24
ATOM      7  N   UNL     1      20.046   7.333  22.724  0.00  0.00    -0.191 NA
ATOM     24  C   UNL     1      19.219   7.135  21.935  0.00  0.00    +0.099 C 
ENDBRANCH  19  24
ENDBRANCH  13  14
ENDBRANCH   4  13
ENDBRANCH   8   4
BRANCH  10  12
ATOM     12  C   UNL     1      10.794   8.562  22.739  0.00  0.00    +0.140 C 
BRANCH  12   5
ATOM      3  O   UNL     1      11.054  10.796  24.547  0.00  0.00    -0.253 OA
ATOM      5  N   UNL     1      10.640   9.952  22.422  0.00  0.00    -0.297 N 
ATOM      6  N   UNL     1      10.580  12.230  22.786  0.00  0.00    -0.297 N 
ATOM     15  C   UNL     1      10.782  10.978  23.361  0.00  0.00    +0.300 C 
ATOM     27  H   UNL     1      10.406  10.205  21.467  0.00  0.00    +0.150 HD
ATOM     28  H   UNL     1      10.290  12.275  21.814  0.00  0.00    +0.150 HD
BRANCH   6  18
ATOM     18  C   UNL     1      10.670  13.461  23.537  0.00  0.00    +0.068 C 
ATOM     21  C   UNL     1      12.015  14.136  23.300  0.00  0.00    +0.027 C 
ATOM     22  C   UNL     1       9.516  14.387  23.176  0.00  0.00    +0.027 C 
ENDBRANCH   6  18
ENDBRANCH  12   5
ENDBRANCH  10  12
TORSDOF 8
ENDMDL
MODEL 3
REMARK VINA RESULT:      -6.1     15.595     17.793
REMARK  Name = 75536739
REMARK  10 active torsions:
REMARK  status: ('A' for Active; 'I' for Inactive)
REMARK    1  A    between atoms: O_2  and  C_9
REMARK    2  A    between atoms: N_4  and  C_8
REMARK    3  A    between atoms: N_4  and  C_13
REMARK    4  A    between atoms: N_5  and  C_12
REMARK    5  A    between atoms: N_6  and  C_18
REMARK    6  A    between atoms: C_10  and  C_12
REMARK    7  A    between atoms: C_13  and  C_14
REMARK    8  A    between atoms: C_18  and  C_21
REMARK    9  A    between atoms: C_18  and  C_22
REMARK   10  A    between atoms: C_19  and  C_24
REMARK                            x       y       z     vdW  Elec       q    Type
REMARK                         _______ _______ _______ _____ _____    ______ ____
ROOT
ATOM      1  O   UNL     1      12.866   4.194   1.555  0.00  0.00    -0.371 OA
ATOM      8  C   UNL     1      10.664   4.167   2.424  0.00  0.00    +0.111 C 
ATOM      9  C   UNL     1      10.694   5.144   1.262  0.00  0.00    +0.164 C 
ATOM     10  C   UNL     1      12.173   5.273   0.899  0.00  0.00    +0.165 C 
ATOM     11  C   UNL     1      11.899   3.324   2.155  0.00  0.00    +0.181 C 
ENDROOT
BRANCH   9   2
ATOM      2  O   UNL     1       9.998   4.541   0.168  0.00  0.00    -0.388 OA
ATOM     26  H   UNL     1      10.381   4.897  -0.652  0.00  0.00    +0.210 HD
ENDBRANCH   9   2
BRANCH   8   4
ATOM      4  N   UNL     1      10.776   4.855   3.709  0.00  0.00    -0.305 NA
ATOM     25  H   UNL     1      11.754   4.876   3.996  0.00  0.00    +0.123 HD
BRANCH   4  13
ATOM     13  C   UNL     1      10.004   4.172   4.740  0.00  0.00    +0.116 C 
BRANCH  13  14
ATOM     14  C   UNL     1       9.704   5.075   5.907  0.00  0.00    -0.032 A 
ATOM     16  C   UNL     1       9.887   4.615   7.210  0.00  0.00    +0.023 A 
ATOM     17  C   UNL     1       9.244   6.372   5.681  0.00  0.00    +0.005 A 
ATOM     19  C   UNL     1       9.611   5.454   8.291  0.00  0.00    +0.052 A 
ATOM     20  C   UNL     1       8.968   7.210   6.762  0.00  0.00    +0.002 A 
ATOM     23  C   UNL     1       9.151   6.752   8.066  0.00  0.00    +0.019 A 
BRANCH  19  24
ATOM      7  N   UNL     1       9.950   4.602  10.712  0.00  0.00    -0.191 NA
ATOM     24  C   UNL     1       9.798   4.984   9.627  0.00  0.00    +0.099 C 
ENDBRANCH  19  24
ENDBRANCH  13  14
ENDBRANCH   4  13
ENDBRANCH   8   4
BRANCH  10  12
ATOM     12  C   UNL     1      12.799   6.584   1.350  0.00  0.00    +0.140 C 
BRANCH  12   5
ATOM      3  O   UNL     1      11.631   7.879   3.649  0.00  0.00    -0.253 OA
ATOM      5  N   UNL     1      13.252   6.506   2.709  0.00  0.00    -0.297 N 
ATOM      6  N   UNL     1      13.271   6.920   4.979  0.00  0.00    -0.297 N 
ATOM     15  C   UNL     1      12.627   7.168   3.770  0.00  0.00    +0.300 C 
ATOM     27  H   UNL     1      14.075   5.947   2.910  0.00  0.00    +0.150 HD
ATOM     28  H   UNL     1      14.128   6.376   4.967  0.00  0.00    +0.150 HD
BRANCH   6  18
ATOM     18  C   UNL     1      12.828   7.483   6.233  0.00  0.00    +0.068 C 
ATOM     21  C   UNL     1      13.074   6.506   7.376  0.00  0.00    +0.027 C 
ATOM     22  C   UNL     1      13.519   8.817   6.488  0.00  0.00    +0.027 C 
ENDBRANCH   6  18
ENDBRANCH  12   5
ENDBRANCH  10  12
TORSDOF 8
ENDMDL
MODEL 4
REMARK VINA RESULT:      -5.9      2.974      5.522
REMARK  Name = 75536739
REMARK  10 active torsions:
REMARK  status: ('A' for Active; 'I' for Inactive)
REMARK    1  A    between atoms: O_2  and  C_9
REMARK    2  A    between atoms: N_4  and  C_8
REMARK    3  A    between atoms: N_4  and  C_13
REMARK    4  A    between atoms: N_5  and  C_12
REMARK    5  A    between atoms: N_6  and  C_18
REMARK    6  A    between atoms: C_10  and  C_12
REMARK    7  A    between atoms: C_13  and  C_14
REMARK    8  A    between atoms: C_18  and  C_21
REMARK    9  A    between atoms: C_18  and  C_22
REMARK   10  A    between atoms: C_19  and  C_24
REMARK                            x       y       z     vdW  Elec       q    Type
REMARK                         _______ _______ _______ _____ _____    ______ ____
ROOT
ATOM      1  O   UNL     1      12.251  12.820  23.112  0.00  0.00    -0.371 OA
ATOM      8  C   UNL     1      10.949  10.964  23.795  0.00  0.00    +0.111 C 
ATOM      9  C   UNL     1      11.558  11.589  25.038  0.00  0.00    +0.164 C 
ATOM     10  C   UNL     1      12.547  12.627  24.507  0.00  0.00    +0.165 C 
ATOM     11  C   UNL     1      11.055  12.100  22.791  0.00  0.00    +0.181 C 
ENDROOT
BRANCH   9   2
ATOM      2  O   UNL     1      10.513  12.259  25.745  0.00  0.00    -0.388 OA
ATOM     26  H   UNL     1      10.006  11.582  26.225  0.00  0.00    +0.210 HD
ENDBRANCH   9   2
BRANCH   8   4
ATOM      4  N   UNL     1      11.715   9.803  23.345  0.00  0.00    -0.305 NA
ATOM     25  H   UNL     1      12.506  10.117  22.783  0.00  0.00    +0.123 HD
BRANCH   4  13
ATOM     13  C   UNL     1      10.892   8.913  22.534  0.00  0.00    +0.116 C 
BRANCH  13  14
ATOM     14  C   UNL     1      11.566   8.554  21.236  0.00  0.00    -0.032 A 
ATOM     16  C   UNL     1      12.072   9.557  20.411  0.00  0.00    +0.023 A 
ATOM     17  C   UNL     1      11.684   7.216  20.862  0.00  0.00    +0.005 A 
ATOM     19  C   UNL     1      12.698   9.223  19.209  0.00  0.00    +0.052 A 
ATOM     20  C   UNL     1      12.310   6.882  19.660  0.00  0.00    +0.002 A 
ATOM     23  C   UNL     1      12.817   7.884  18.834  0.00  0.00    +0.019 A 
BRANCH  19  24
ATOM      7  N   UNL     1      13.639  11.084  17.675  0.00  0.00    -0.191 NA
ATOM     24  C   UNL     1      13.217  10.250  18.363  0.00  0.00    +0.099 C 
ENDBRANCH  19  24
ENDBRANCH  13  14
ENDBRANCH   4  13
ENDBRANCH   8   4
BRANCH  10  12
ATOM     12  C   UNL     1      14.002  12.201  24.633  0.00  0.00    +0.140 C 
BRANCH  12   5
ATOM      3  O   UNL     1      15.358  11.409  22.211  0.00  0.00    -0.253 OA
ATOM      5  N   UNL     1      14.198  10.865  24.149  0.00  0.00    -0.297 N 
ATOM      6  N   UNL     1      14.915   9.192  22.731  0.00  0.00    -0.297 N 
ATOM     15  C   UNL     1      14.868  10.565  22.960  0.00  0.00    +0.300 C 
ATOM     27  H   UNL     1      13.821  10.096  24.696  0.00  0.00    +0.150 HD
ATOM     28  H   UNL     1      14.420   8.578  23.370  0.00  0.00    +0.150 HD
BRANCH   6  18
ATOM     18  C   UNL     1      15.551   8.613  21.571  0.00  0.00    +0.068 C 
ATOM     21  C   UNL     1      17.036   8.954  21.549  0.00  0.00    +0.027 C 
ATOM     22  C   UNL     1      15.331   7.106  21.543  0.00  0.00    +0.027 C 
ENDBRANCH   6  18
ENDBRANCH  12   5
ENDBRANCH  10  12
TORSDOF 8
ENDMDL
MODEL 5
REMARK VINA RESULT:      -5.8      2.681      4.858
REMARK  Name = 75536739
REMARK  10 active torsions:
REMARK  status: ('A' for Active; 'I' for Inactive)
REMARK    1  A    between atoms: O_2  and  C_9
REMARK    2  A    between atoms: N_4  and  C_8
REMARK    3  A    between atoms: N_4  and  C_13
REMARK    4  A    between atoms: N_5  and  C_12
REMARK    5  A    between atoms: N_6  and  C_18
REMARK    6  A    between atoms: C_10  and  C_12
REMARK    7  A    between atoms: C_13  and  C_14
REMARK    8  A    between atoms: C_18  and  C_21
REMARK    9  A    between atoms: C_18  and  C_22
REMARK   10  A    between atoms: C_19  and  C_24
REMARK                            x       y       z     vdW  Elec       q    Type
REMARK                         _______ _______ _______ _____ _____    ______ ____
ROOT
ATOM      1  O   UNL     1      12.449  12.196  22.420  0.00  0.00    -0.371 OA
ATOM      8  C   UNL     1      10.834  10.561  22.991  0.00  0.00    +0.111 C 
ATOM      9  C   UNL     1      11.094  11.410  24.223  0.00  0.00    +0.164 C 
ATOM     10  C   UNL     1      12.289  12.286  23.848  0.00  0.00    +0.165 C 
ATOM     11  C   UNL     1      11.345  11.463  21.879  0.00  0.00    +0.181 C 
ENDROOT
BRANCH   9   2
ATOM      2  O   UNL     1       9.951  12.244  24.427  0.00  0.00    -0.388 OA
ATOM     26  H   UNL     1       9.215  11.855  23.924  0.00  0.00    +0.210 HD
ENDBRANCH   9   2
BRANCH   8   4
ATOM      4  N   UNL     1      11.588   9.310  23.030  0.00  0.00    -0.305 NA
ATOM     25  H   UNL     1      12.528   9.470  22.669  0.00  0.00    +0.123 HD
BRANCH   4  13
ATOM     13  C   UNL     1      10.946   8.285  22.214  0.00  0.00    +0.116 C 
BRANCH  13  14
ATOM     14  C   UNL     1      11.649   8.097  20.896  0.00  0.00    -0.032 A 
ATOM     16  C   UNL     1      12.901   7.486  20.853  0.00  0.00    +0.023 A 
ATOM     17  C   UNL     1      11.044   8.535  19.718  0.00  0.00    +0.005 A 
ATOM     19  C   UNL     1      13.550   7.311  19.630  0.00  0.00    +0.052 A 
ATOM     20  C   UNL     1      11.693   8.359  18.495  0.00  0.00    +0.002 A 
ATOM     23  C   UNL     1      12.946   7.747  18.451  0.00  0.00    +0.019 A 
BRANCH  19  24
ATOM      7  N   UNL     1      15.876   6.175  19.547  0.00  0.00    -0.191 NA
ATOM     24  C   UNL     1      14.833   6.684  19.584  0.00  0.00    +0.099 C 
ENDBRANCH  19  24
ENDBRANCH  13  14
ENDBRANCH   4  13
ENDBRANCH   8   4
BRANCH  10  12
ATOM     12  C   UNL     1      13.592  11.851  24.503  0.00  0.00    +0.140 C 
BRANCH  12   5
ATOM      3  O   UNL     1      16.246  12.140  23.407  0.00  0.00    -0.253 OA
ATOM      5  N   UNL     1      14.297  10.907  23.683  0.00  0.00    -0.297 N 
ATOM      6  N   UNL     1      16.031  10.050  22.425  0.00  0.00    -0.297 N 
ATOM     15  C   UNL     1      15.587  11.125  23.190  0.00  0.00    +0.300 C 
ATOM     27  H   UNL     1      13.830  10.038  23.441  0.00  0.00    +0.150 HD
ATOM     28  H   UNL     1      15.387   9.287  22.244  0.00  0.00    +0.150 HD
BRANCH   6  18
ATOM     18  C   UNL     1      17.332  10.019  21.799  0.00  0.00    +0.068 C 
ATOM     21  C   UNL     1      17.771   8.582  21.546  0.00  0.00    +0.027 C 
ATOM     22  C   UNL     1      17.318  10.827  20.507  0.00  0.00    +0.027 C 
ENDBRANCH   6  18
ENDBRANCH  12   5
ENDBRANCH  10  12
TORSDOF 8
ENDMDL
MODEL 6
REMARK VINA RESULT:      -5.7     27.054     29.956
REMARK  Name = 75536739
REMARK  10 active torsions:
REMARK  status: ('A' for Active; 'I' for Inactive)
REMARK    1  A    between atoms: O_2  and  C_9
REMARK    2  A    between atoms: N_4  and  C_8
REMARK    3  A    between atoms: N_4  and  C_13
REMARK    4  A    between atoms: N_5  and  C_12
REMARK    5  A    between atoms: N_6  and  C_18
REMARK    6  A    between atoms: C_10  and  C_12
REMARK    7  A    between atoms: C_13  and  C_14
REMARK    8  A    between atoms: C_18  and  C_21
REMARK    9  A    between atoms: C_18  and  C_22
REMARK   10  A    between atoms: C_19  and  C_24
REMARK                            x       y       z     vdW  Elec       q    Type
REMARK                         _______ _______ _______ _____ _____    ______ ____
ROOT
ATOM      1  O   UNL     1     -17.861   5.067  23.875  0.00  0.00    -0.371 OA
ATOM      8  C   UNL     1     -15.671   4.740  23.037  0.00  0.00    +0.111 C 
ATOM      9  C   UNL     1     -15.920   3.696  24.111  0.00  0.00    +0.164 C 
ATOM     10  C   UNL     1     -17.247   4.103  24.751  0.00  0.00    +0.165 C 
ATOM     11  C   UNL     1     -17.087   5.157  22.674  0.00  0.00    +0.181 C 
ENDROOT
BRANCH   9   2
ATOM      2  O   UNL     1     -16.083   2.433  23.462  0.00  0.00    -0.388 OA
ATOM     26  H   UNL     1     -15.507   2.433  22.678  0.00  0.00    +0.210 HD
ENDBRANCH   9   2
BRANCH   8   4
ATOM      4  N   UNL     1     -14.914   5.877  23.556  0.00  0.00    -0.305 NA
ATOM     25  H   UNL     1     -15.239   6.098  24.497  0.00  0.00    +0.123 HD
BRANCH   4  13
ATOM     13  C   UNL     1     -15.093   7.055  22.715  0.00  0.00    +0.116 C 
BRANCH  13  14
ATOM     14  C   UNL     1     -13.862   7.355  21.902  0.00  0.00    -0.032 A 
ATOM     16  C   UNL     1     -13.556   8.671  21.559  0.00  0.00    +0.023 A 
ATOM     17  C   UNL     1     -13.029   6.315  21.492  0.00  0.00    +0.005 A 
ATOM     19  C   UNL     1     -12.414   8.948  20.806  0.00  0.00    +0.052 A 
ATOM     20  C   UNL     1     -11.886   6.592  20.740  0.00  0.00    +0.002 A 
ATOM     23  C   UNL     1     -11.579   7.908  20.397  0.00  0.00    +0.019 A 
BRANCH  19  24
ATOM      7  N   UNL     1     -11.842  11.392  20.170  0.00  0.00    -0.191 NA
ATOM     24  C   UNL     1     -12.098  10.297  20.455  0.00  0.00    +0.099 C 
ENDBRANCH  19  24
ENDBRANCH  13  14
ENDBRANCH   4  13
ENDBRANCH   8   4
BRANCH  10  12
ATOM     12  C   UNL     1     -17.092   4.737  26.125  0.00  0.00    +0.140 C 
BRANCH  12   5
ATOM      3  O   UNL     1     -17.212   3.576  28.764  0.00  0.00    -0.253 OA
ATOM      5  N   UNL     1     -16.012   4.139  26.856  0.00  0.00    -0.297 N 
ATOM      6  N   UNL     1     -14.950   3.083  28.612  0.00  0.00    -0.297 N 
ATOM     15  C   UNL     1     -16.154   3.597  28.137  0.00  0.00    +0.300 C 
ATOM     27  H   UNL     1     -15.093   4.116  26.424  0.00  0.00    +0.150 HD
ATOM     28  H   UNL     1     -14.115   3.211  28.049  0.00  0.00    +0.150 HD
BRANCH   6  18
ATOM     18  C   UNL     1     -14.821   2.465  29.911  0.00  0.00    +0.068 C 
ATOM     21  C   UNL     1     -14.984   0.954  29.803  0.00  0.00    +0.027 C 
ATOM     22  C   UNL     1     -13.483   2.832  30.542  0.00  0.00    +0.027 C 
ENDBRANCH   6  18
ENDBRANCH  12   5
ENDBRANCH  10  12
TORSDOF 8
ENDMDL
MODEL 7
REMARK VINA RESULT:      -5.6     15.154     17.793
REMARK  Name = 75536739
REMARK  10 active torsions:
REMARK  status: ('A' for Active; 'I' for Inactive)
REMARK    1  A    between atoms: O_2  and  C_9
REMARK    2  A    between atoms: N_4  and  C_8
REMARK    3  A    between atoms: N_4  and  C_13
REMARK    4  A    between atoms: N_5  and  C_12
REMARK    5  A    between atoms: N_6  and  C_18
REMARK    6  A    between atoms: C_10  and  C_12
REMARK    7  A    between atoms: C_13  and  C_14
REMARK    8  A    between atoms: C_18  and  C_21
REMARK    9  A    between atoms: C_18  and  C_22
REMARK   10  A    between atoms: C_19  and  C_24
REMARK                            x       y       z     vdW  Elec       q    Type
REMARK                         _______ _______ _______ _____ _____    ______ ____
ROOT
ATOM      1  O   UNL     1      14.709   9.517   4.692  0.00  0.00    -0.371 OA
ATOM      8  C   UNL     1      13.143   8.058   5.704  0.00  0.00    +0.111 C 
ATOM      9  C   UNL     1      14.476   7.334   5.631  0.00  0.00    +0.164 C 
ATOM     10  C   UNL     1      15.365   8.239   4.780  0.00  0.00    +0.165 C 
ATOM     11  C   UNL     1      13.569   9.510   5.559  0.00  0.00    +0.181 C 
ENDROOT
BRANCH   9   2
ATOM      2  O   UNL     1      15.009   7.269   6.956  0.00  0.00    -0.388 OA
ATOM     26  H   UNL     1      15.118   8.183   7.270  0.00  0.00    +0.210 HD
ENDBRANCH   9   2
BRANCH   8   4
ATOM      4  N   UNL     1      12.257   7.667   4.610  0.00  0.00    -0.305 NA
ATOM     25  H   UNL     1      11.582   8.413   4.438  0.00  0.00    +0.123 HD
BRANCH   4  13
ATOM     13  C   UNL     1      11.527   6.448   4.936  0.00  0.00    +0.116 C 
BRANCH  13  14
ATOM     14  C   UNL     1      10.574   6.654   6.083  0.00  0.00    -0.032 A 
ATOM     16  C   UNL     1      10.661   5.849   7.217  0.00  0.00    +0.023 A 
ATOM     17  C   UNL     1       9.603   7.653   6.008  0.00  0.00    +0.005 A 
ATOM     19  C   UNL     1       9.778   6.043   8.280  0.00  0.00    +0.052 A 
ATOM     20  C   UNL     1       8.720   7.847   7.071  0.00  0.00    +0.002 A 
ATOM     23  C   UNL     1       8.807   7.042   8.207  0.00  0.00    +0.019 A 
BRANCH  19  24
ATOM      7  N   UNL     1       9.938   4.548  10.389  0.00  0.00    -0.191 NA
ATOM     24  C   UNL     1       9.867   5.218   9.444  0.00  0.00    +0.099 C 
ENDBRANCH  19  24
ENDBRANCH  13  14
ENDBRANCH   4  13
ENDBRANCH   8   4
BRANCH  10  12
ATOM     12  C   UNL     1      15.587   7.719   3.367  0.00  0.00    +0.140 C 
BRANCH  12   5
ATOM      3  O   UNL     1      13.428   6.978   1.602  0.00  0.00    -0.253 OA
ATOM      5  N   UNL     1      15.019   6.412   3.197  0.00  0.00    -0.297 N 
ATOM      6  N   UNL     1      13.613   4.790   2.351  0.00  0.00    -0.297 N 
ATOM     15  C   UNL     1      13.969   6.136   2.318  0.00  0.00    +0.300 C 
ATOM     27  H   UNL     1      15.394   5.649   3.753  0.00  0.00    +0.150 HD
ATOM     28  H   UNL     1      14.071   4.186   3.026  0.00  0.00    +0.150 HD
BRANCH   6  18
ATOM     18  C   UNL     1      12.556   4.239   1.536  0.00  0.00    +0.068 C 
ATOM     21  C   UNL     1      13.114   3.221   0.550  0.00  0.00    +0.027 C 
ATOM     22  C   UNL     1      11.476   3.621   2.416  0.00  0.00    +0.027 C 
ENDBRANCH   6  18
ENDBRANCH  12   5
ENDBRANCH  10  12
TORSDOF 8
ENDMDL
MODEL 8
REMARK VINA RESULT:      -5.5     26.167     28.443
REMARK  Name = 75536739
REMARK  10 active torsions:
REMARK  status: ('A' for Active; 'I' for Inactive)
REMARK    1  A    between atoms: O_2  and  C_9
REMARK    2  A    between atoms: N_4  and  C_8
REMARK    3  A    between atoms: N_4  and  C_13
REMARK    4  A    between atoms: N_5  and  C_12
REMARK    5  A    between atoms: N_6  and  C_18
REMARK    6  A    between atoms: C_10  and  C_12
REMARK    7  A    between atoms: C_13  and  C_14
REMARK    8  A    between atoms: C_18  and  C_21
REMARK    9  A    between atoms: C_18  and  C_22
REMARK   10  A    between atoms: C_19  and  C_24
REMARK                            x       y       z     vdW  Elec       q    Type
REMARK                         _______ _______ _______ _____ _____    ______ ____
ROOT
ATOM      1  O   UNL     1      -7.860 -11.896  17.942  0.00  0.00    -0.371 OA
ATOM      8  C   UNL     1      -5.663 -12.474  18.609  0.00  0.00    +0.111 C 
ATOM      9  C   UNL     1      -5.996 -11.125  19.220  0.00  0.00    +0.164 C 
ATOM     10  C   UNL     1      -7.321 -10.721  18.576  0.00  0.00    +0.165 C 
ATOM     11  C   UNL     1      -7.045 -13.021  18.289  0.00  0.00    +0.181 C 
ENDROOT
BRANCH   9   2
ATOM      2  O   UNL     1      -6.200 -11.321  20.622  0.00  0.00    -0.388 OA
ATOM     26  H   UNL     1      -5.588 -10.727  21.089  0.00  0.00    +0.210 HD
ENDBRANCH   9   2
BRANCH   8   4
ATOM      4  N   UNL     1      -4.869 -12.332  17.390  0.00  0.00    -0.305 NA
ATOM     25  H   UNL     1      -4.411 -13.219  17.179  0.00  0.00    +0.123 HD
BRANCH   4  13
ATOM     13  C   UNL     1      -3.843 -11.307  17.548  0.00  0.00    +0.116 C 
BRANCH  13  14
ATOM     14  C   UNL     1      -3.202 -10.948  16.235  0.00  0.00    -0.032 A 
ATOM     16  C   UNL     1      -3.968 -10.909  15.071  0.00  0.00    +0.023 A 
ATOM     17  C   UNL     1      -1.840 -10.654  16.184  0.00  0.00    +0.005 A 
ATOM     19  C   UNL     1      -3.373 -10.575  13.854  0.00  0.00    +0.052 A 
ATOM     20  C   UNL     1      -1.244 -10.319  14.967  0.00  0.00    +0.002 A 
ATOM     23  C   UNL     1      -2.010 -10.279  13.802  0.00  0.00    +0.019 A 
BRANCH  19  24
ATOM      7  N   UNL     1      -4.794 -10.501  11.691  0.00  0.00    -0.191 NA
ATOM     24  C   UNL     1      -4.157 -10.534  12.660  0.00  0.00    +0.099 C 
ENDBRANCH  19  24
ENDBRANCH  13  14
ENDBRANCH   4  13
ENDBRANCH   8   4
BRANCH  10  12
ATOM     12  C   UNL     1      -7.179  -9.633  17.522  0.00  0.00    +0.140 C 
BRANCH  12   5
ATOM      3  O   UNL     1      -9.318  -9.437  15.594  0.00  0.00    -0.253 OA
ATOM      5  N   UNL     1      -8.292  -8.728  17.554  0.00  0.00    -0.297 N 
ATOM      6  N   UNL     1     -10.248  -7.724  16.852  0.00  0.00    -0.297 N 
ATOM     15  C   UNL     1      -9.290  -8.696  16.575  0.00  0.00    +0.300 C 
ATOM     27  H   UNL     1      -8.353  -8.068  18.324  0.00  0.00    +0.150 HD
ATOM     28  H   UNL     1     -10.100  -7.114  17.649  0.00  0.00    +0.150 HD
BRANCH   6  18
ATOM     18  C   UNL     1     -11.388  -7.484  15.999  0.00  0.00    +0.068 C 
ATOM     21  C   UNL     1     -12.612  -8.230  16.517  0.00  0.00    +0.027 C 
ATOM     22  C   UNL     1     -11.660  -5.989  15.886  0.00  0.00    +0.027 C 
ENDBRANCH   6  18
ENDBRANCH  12   5
ENDBRANCH  10  12
TORSDOF 8
ENDMDL
MODEL 9
REMARK VINA RESULT:      -5.5     26.686     29.287
REMARK  Name = 75536739
REMARK  10 active torsions:
REMARK  status: ('A' for Active; 'I' for Inactive)
REMARK    1  A    between atoms: O_2  and  C_9
REMARK    2  A    between atoms: N_4  and  C_8
REMARK    3  A    between atoms: N_4  and  C_13
REMARK    4  A    between atoms: N_5  and  C_12
REMARK    5  A    between atoms: N_6  and  C_18
REMARK    6  A    between atoms: C_10  and  C_12
REMARK    7  A    between atoms: C_13  and  C_14
REMARK    8  A    between atoms: C_18  and  C_21
REMARK    9  A    between atoms: C_18  and  C_22
REMARK   10  A    between atoms: C_19  and  C_24
REMARK                            x       y       z     vdW  Elec       q    Type
REMARK                         _______ _______ _______ _____ _____    ______ ____
ROOT
ATOM      1  O   UNL     1     -10.536  -8.844  15.646  0.00  0.00    -0.371 OA
ATOM      8  C   UNL     1      -9.604  -9.839  17.582  0.00  0.00    +0.111 C 
ATOM      9  C   UNL     1     -10.839  -9.063  18.005  0.00  0.00    +0.164 C 
ATOM     10  C   UNL     1     -11.252  -8.279  16.760  0.00  0.00    +0.165 C 
ATOM     11  C   UNL     1      -9.843 -10.016  16.091  0.00  0.00    +0.181 C 
ENDROOT
BRANCH   9   2
ATOM      2  O   UNL     1     -11.862 -10.010  18.320  0.00  0.00    -0.388 OA
ATOM     26  H   UNL     1     -12.309  -9.697  19.125  0.00  0.00    +0.210 HD
ENDBRANCH   9   2
BRANCH   8   4
ATOM      4  N   UNL     1      -8.380  -9.078  17.823  0.00  0.00    -0.305 NA
ATOM     25  H   UNL     1      -8.595  -8.082  17.820  0.00  0.00    +0.123 HD
BRANCH   4  13
ATOM     13  C   UNL     1      -7.386  -9.342  16.789  0.00  0.00    +0.116 C 
BRANCH  13  14
ATOM     14  C   UNL     1      -6.210 -10.115  17.326  0.00  0.00    -0.032 A 
ATOM     16  C   UNL     1      -5.010 -10.141  16.618  0.00  0.00    +0.023 A 
ATOM     17  C   UNL     1      -6.325 -10.804  18.533  0.00  0.00    +0.005 A 
ATOM     19  C   UNL     1      -3.921 -10.856  17.117  0.00  0.00    +0.052 A 
ATOM     20  C   UNL     1      -5.236 -11.520  19.032  0.00  0.00    +0.002 A 
ATOM     23  C   UNL     1      -4.034 -11.546  18.325  0.00  0.00    +0.019 A 
BRANCH  19  24
ATOM      7  N   UNL     1      -1.689 -10.905  15.805  0.00  0.00    -0.191 NA
ATOM     24  C   UNL     1      -2.690 -10.883  16.393  0.00  0.00    +0.099 C 
ENDBRANCH  19  24
ENDBRANCH  13  14
ENDBRANCH   4  13
ENDBRANCH   8   4
BRANCH  10  12
ATOM     12  C   UNL     1     -10.921  -6.796  16.836  0.00  0.00    +0.140 C 
BRANCH  12   5
ATOM      3  O   UNL     1     -13.182  -5.872  15.298  0.00  0.00    -0.253 OA
ATOM      5  N   UNL     1     -10.894  -6.200  15.531  0.00  0.00    -0.297 N 
ATOM      6  N   UNL     1     -11.727  -5.238  13.607  0.00  0.00    -0.297 N 
ATOM     15  C   UNL     1     -12.040  -5.779  14.851  0.00  0.00    +0.300 C 
ATOM     27  H   UNL     1      -9.994  -6.087  15.073  0.00  0.00    +0.150 HD
ATOM     28  H   UNL     1     -10.761  -5.269  13.295  0.00  0.00    +0.150 HD
BRANCH   6  18
ATOM     18  C   UNL     1     -12.728  -4.726  12.701  0.00  0.00    +0.068 C 
ATOM     21  C   UNL     1     -12.316  -3.362  12.161  0.00  0.00    +0.027 C 
ATOM     22  C   UNL     1     -12.975  -5.716  11.569  0.00  0.00    +0.027 C 
ENDBRANCH   6  18
ENDBRANCH  12   5
ENDBRANCH  10  12
TORSDOF 8
ENDMDL
MODEL 10
REMARK VINA RESULT:      -5.5      3.818      6.254
REMARK  Name = 75536739
REMARK  10 active torsions:
REMARK  status: ('A' for Active; 'I' for Inactive)
REMARK    1  A    between atoms: O_2  and  C_9
REMARK    2  A    between atoms: N_4  and  C_8
REMARK    3  A    between atoms: N_4  and  C_13
REMARK    4  A    between atoms: N_5  and  C_12
REMARK    5  A    between atoms: N_6  and  C_18
REMARK    6  A    between atoms: C_10  and  C_12
REMARK    7  A    between atoms: C_13  and  C_14
REMARK    8  A    between atoms: C_18  and  C_21
REMARK    9  A    between atoms: C_18  and  C_22
REMARK   10  A    between atoms: C_19  and  C_24
REMARK                            x       y       z     vdW  Elec       q    Type
REMARK                         _______ _______ _______ _____ _____    ______ ____
ROOT
ATOM      1  O   UNL     1      12.627  12.315  22.643  0.00  0.00    -0.371 OA
ATOM      8  C   UNL     1      10.893  10.716  22.853  0.00  0.00    +0.111 C 
ATOM      9  C   UNL     1      10.928  11.536  24.130  0.00  0.00    +0.164 C 
ATOM     10  C   UNL     1      12.194  12.385  24.014  0.00  0.00    +0.165 C 
ATOM     11  C   UNL     1      11.632  11.620  21.881  0.00  0.00    +0.181 C 
ENDROOT
BRANCH   9   2
ATOM      2  O   UNL     1       9.788  12.398  24.125  0.00  0.00    -0.388 OA
ATOM     26  H   UNL     1       9.700  12.759  23.226  0.00  0.00    +0.210 HD
ENDBRANCH   9   2
BRANCH   8   4
ATOM      4  N   UNL     1      11.595   9.443  23.011  0.00  0.00    -0.305 NA
ATOM     25  H   UNL     1      12.549   9.538  22.663  0.00  0.00    +0.123 HD
BRANCH   4  13
ATOM     13  C   UNL     1      10.932   8.382  22.263  0.00  0.00    +0.116 C 
BRANCH  13  14
ATOM     14  C   UNL     1      11.687   8.022  21.011  0.00  0.00    -0.032 A 
ATOM     16  C   UNL     1      11.202   8.417  19.765  0.00  0.00    +0.023 A 
ATOM     17  C   UNL     1      12.873   7.293  21.100  0.00  0.00    +0.005 A 
ATOM     19  C   UNL     1      11.904   8.084  18.606  0.00  0.00    +0.052 A 
ATOM     20  C   UNL     1      13.574   6.960  19.941  0.00  0.00    +0.002 A 
ATOM     23  C   UNL     1      13.090   7.355  18.694  0.00  0.00    +0.019 A 
BRANCH  19  24
ATOM      7  N   UNL     1      11.004   8.817  16.291  0.00  0.00    -0.191 NA
ATOM     24  C   UNL     1      11.408   8.489  17.328  0.00  0.00    +0.099 C 
ENDBRANCH  19  24
ENDBRANCH  13  14
ENDBRANCH   4  13
ENDBRANCH   8   4
BRANCH  10  12
ATOM     12  C   UNL     1      13.333  11.904  24.899  0.00  0.00    +0.140 C 
BRANCH  12   5
ATOM      3  O   UNL     1      15.464  12.277  26.810  0.00  0.00    -0.253 OA
ATOM      5  N   UNL     1      13.220  12.433  26.228  0.00  0.00    -0.297 N 
ATOM      6  N   UNL     1      13.916  13.118  28.319  0.00  0.00    -0.297 N 
ATOM     15  C   UNL     1      14.307  12.581  27.095  0.00  0.00    +0.300 C 
ATOM     27  H   UNL     1      12.300  12.707  26.560  0.00  0.00    +0.150 HD
ATOM     28  H   UNL     1      12.926  13.271  28.486  0.00  0.00    +0.150 HD
BRANCH   6  18
ATOM     18  C   UNL     1      14.845  13.374  29.394  0.00  0.00    +0.068 C 
ATOM     21  C   UNL     1      14.686  14.797  29.914  0.00  0.00    +0.027 C 
ATOM     22  C   UNL     1      14.657  12.355  30.511  0.00  0.00    +0.027 C 
ENDBRANCH   6  18
ENDBRANCH  12   5
ENDBRANCH  10  12
TORSDOF 8
ENDMDL
