MODEL 1
REMARK VINA RESULT:      -6.5      0.000      0.000
REMARK  Name = 11865857
REMARK  14 active torsions:
REMARK  status: ('A' for Active; 'I' for Inactive)
REMARK    1  A    between atoms: N_6  and  C_12
REMARK    2  A    between atoms: N_7  and  C_19
REMARK    3  A    between atoms: N_8  and  C_27
REMARK    4  A    between atoms: C_11  and  C_16
REMARK    5  A    between atoms: C_15  and  C_17
REMARK    6  A    between atoms: C_17  and  C_18
REMARK    7  A    between atoms: C_18  and  C_20
REMARK    8  A    between atoms: C_18  and  C_21
REMARK    9  A    between atoms: C_18  and  C_22
REMARK   10  A    between atoms: C_19  and  C_24
REMARK   11  A    between atoms: C_19  and  C_26
REMARK   12  A    between atoms: C_24  and  C_25
REMARK   13  A    between atoms: C_27  and  C_31
REMARK   14  A    between atoms: C_27  and  C_32
REMARK                            x       y       z     vdW  Elec       q    Type
REMARK                         _______ _______ _______ _____ _____    ______ ____
ROOT
ATOM      1  O   UNL     1      14.861  10.585  16.130  0.00  0.00    -0.276 OA
ATOM      5  N   UNL     1      15.231  12.031  17.900  0.00  0.00    -0.288 N 
ATOM     11  C   UNL     1      15.440  11.002  18.914  0.00  0.00    +0.182 C 
ATOM     12  C   UNL     1      16.059  11.737  20.102  0.00  0.00    +0.105 C 
ATOM     13  C   UNL     1      15.521  13.164  19.958  0.00  0.00    +0.043 C 
ATOM     14  C   UNL     1      15.432  13.368  18.451  0.00  0.00    +0.110 C 
ATOM     15  C   UNL     1      15.027  11.727  16.562  0.00  0.00    +0.217 C 
ENDROOT
BRANCH  12   6
ATOM      3  O   UNL     1      17.856  10.335  21.872  0.00  0.00    -0.253 OA
ATOM      6  N   UNL     1      17.501  11.710  20.034  0.00  0.00    -0.294 N 
ATOM      8  N   UNL     1      19.647  11.148  20.639  0.00  0.00    -0.297 N 
ATOM     23  C   UNL     1      18.293  11.003  20.935  0.00  0.00    +0.300 C 
ATOM     37  H   UNL     1      17.963  12.287  19.338  0.00  0.00    +0.151 HD
ATOM     39  H   UNL     1      19.912  11.779  19.889  0.00  0.00    +0.150 HD
BRANCH   8  27
ATOM     27  C   UNL     1      20.690  10.520  21.415  0.00  0.00    +0.068 C 
ATOM     31  C   UNL     1      20.810   9.044  21.055  0.00  0.00    +0.027 C 
ATOM     32  C   UNL     1      22.012  11.248  21.213  0.00  0.00    +0.027 C 
ENDBRANCH   8  27
ENDBRANCH  12   6
BRANCH  11  16
ATOM      2  O   UNL     1      13.333  11.023  20.038  0.00  0.00    -0.274 OA
ATOM      7  N   UNL     1      13.826   9.260  18.600  0.00  0.00    -0.302 N 
ATOM     16  C   UNL     1      14.086  10.453  19.251  0.00  0.00    +0.236 C 
ATOM     38  H   UNL     1      14.482   8.935  17.896  0.00  0.00    +0.150 HD
BRANCH   7  19
ATOM     19  C   UNL     1      12.600   8.515  18.772  0.00  0.00    +0.163 C 
BRANCH  19  26
ATOM      4  O   UNL     1      11.295   7.435  17.030  0.00  0.00    -0.274 OA
ATOM     10  N   UNL     1      12.115   9.544  16.639  0.00  0.00    -0.328 N 
ATOM     26  C   UNL     1      11.945   8.409  17.402  0.00  0.00    +0.231 C 
ATOM     41  H   UNL     1      11.717   9.610  15.709  0.00  0.00    +0.145 HD
ATOM     42  H   UNL     1      12.636  10.350  16.969  0.00  0.00    +0.145 HD
ENDBRANCH  19  26
BRANCH  19  24
ATOM     24  C   UNL     1      12.845   7.120  19.359  0.00  0.00    +0.069 C 
BRANCH  24  25
ATOM      9  N   UNL     1      15.113   7.259  22.248  0.00  0.00    -0.360 N 
ATOM     25  C   UNL     1      13.971   7.087  20.353  0.00  0.00    -0.020 A 
ATOM     28  C   UNL     1      15.320   6.718  20.093  0.00  0.00    +0.003 A 
ATOM     29  C   UNL     1      13.875   7.415  21.686  0.00  0.00    +0.087 A 
ATOM     30  C   UNL     1      16.016   6.834  21.299  0.00  0.00    +0.047 A 
ATOM     33  C   UNL     1      16.019   6.295  18.945  0.00  0.00    +0.010 A 
ATOM     34  C   UNL     1      17.380   6.547  21.413  0.00  0.00    +0.026 A 
ATOM     35  C   UNL     1      17.384   6.004  19.044  0.00  0.00    +0.001 A 
ATOM     36  C   UNL     1      18.052   6.129  20.262  0.00  0.00    +0.002 A 
ATOM     40  H   UNL     1      15.334   7.430  23.219  0.00  0.00    +0.165 HD
ENDBRANCH  24  25
ENDBRANCH  19  24
ENDBRANCH   7  19
ENDBRANCH  11  16
BRANCH  15  17
ATOM     17  C   UNL     1      15.009  12.907  15.624  0.00  0.00    +0.102 C 
BRANCH  17  18
ATOM     18  C   UNL     1      16.253  12.970  14.719  0.00  0.00    -0.029 C 
ATOM     20  C   UNL     1      16.466  14.440  14.312  0.00  0.00    +0.011 C 
ATOM     21  C   UNL     1      17.506  12.480  15.463  0.00  0.00    +0.011 C 
ATOM     22  C   UNL     1      16.055  12.132  13.443  0.00  0.00    +0.011 C 
ENDBRANCH  17  18
ENDBRANCH  15  17
TORSDOF 9
ENDMDL
MODEL 2
REMARK VINA RESULT:      -6.4     12.838     15.830
REMARK  Name = 11865857
REMARK  14 active torsions:
REMARK  status: ('A' for Active; 'I' for Inactive)
REMARK    1  A    between atoms: N_6  and  C_12
REMARK    2  A    between atoms: N_7  and  C_19
REMARK    3  A    between atoms: N_8  and  C_27
REMARK    4  A    between atoms: C_11  and  C_16
REMARK    5  A    between atoms: C_15  and  C_17
REMARK    6  A    between atoms: C_17  and  C_18
REMARK    7  A    between atoms: C_18  and  C_20
REMARK    8  A    between atoms: C_18  and  C_21
REMARK    9  A    between atoms: C_18  and  C_22
REMARK   10  A    between atoms: C_19  and  C_24
REMARK   11  A    between atoms: C_19  and  C_26
REMARK   12  A    between atoms: C_24  and  C_25
REMARK   13  A    between atoms: C_27  and  C_31
REMARK   14  A    between atoms: C_27  and  C_32
REMARK                            x       y       z     vdW  Elec       q    Type
REMARK                         _______ _______ _______ _____ _____    ______ ____
ROOT
ATOM      1  O   UNL     1      11.310   3.620   3.249  0.00  0.00    -0.276 OA
ATOM      5  N   UNL     1      11.415   5.927   3.103  0.00  0.00    -0.288 N 
ATOM     11  C   UNL     1      11.626   6.174   4.526  0.00  0.00    +0.182 C 
ATOM     12  C   UNL     1      12.083   7.630   4.611  0.00  0.00    +0.105 C 
ATOM     13  C   UNL     1      11.442   8.278   3.380  0.00  0.00    +0.043 C 
ATOM     14  C   UNL     1      11.458   7.169   2.336  0.00  0.00    +0.110 C 
ATOM     15  C   UNL     1      11.346   4.648   2.571  0.00  0.00    +0.217 C 
ENDROOT
BRANCH  12   6
ATOM      3  O   UNL     1      13.735   9.644   5.854  0.00  0.00    -0.253 OA
ATOM      6  N   UNL     1      13.523   7.724   4.564  0.00  0.00    -0.294 N 
ATOM      8  N   UNL     1      15.612   8.586   4.990  0.00  0.00    -0.297 N 
ATOM     23  C   UNL     1      14.242   8.735   5.197  0.00  0.00    +0.300 C 
ATOM     37  H   UNL     1      14.033   7.061   3.987  0.00  0.00    +0.151 HD
ATOM     39  H   UNL     1      15.929   7.845   4.372  0.00  0.00    +0.150 HD
BRANCH   8  27
ATOM     27  C   UNL     1      16.590   9.498   5.535  0.00  0.00    +0.068 C 
ATOM     31  C   UNL     1      17.853   8.748   5.941  0.00  0.00    +0.027 C 
ATOM     32  C   UNL     1      16.900  10.602   4.532  0.00  0.00    +0.027 C 
ENDBRANCH   8  27
ENDBRANCH  12   6
BRANCH  11  16
ATOM      2  O   UNL     1       9.276   5.748   4.553  0.00  0.00    -0.274 OA
ATOM      7  N   UNL     1      10.382   6.100   6.571  0.00  0.00    -0.302 N 
ATOM     16  C   UNL     1      10.299   5.975   5.195  0.00  0.00    +0.236 C 
ATOM     38  H   UNL     1      11.298   6.189   6.999  0.00  0.00    +0.150 HD
BRANCH   7  19
ATOM     19  C   UNL     1       9.240   5.975   7.447  0.00  0.00    +0.163 C 
BRANCH  19  26
ATOM      4  O   UNL     1       9.141   4.911   9.629  0.00  0.00    -0.274 OA
ATOM     10  N   UNL     1      10.405   3.926   7.983  0.00  0.00    -0.328 N 
ATOM     26  C   UNL     1       9.583   4.914   8.483  0.00  0.00    +0.231 C 
ATOM     41  H   UNL     1      10.699   3.151   8.566  0.00  0.00    +0.145 HD
ATOM     42  H   UNL     1      10.744   3.931   7.027  0.00  0.00    +0.145 HD
ENDBRANCH  19  26
BRANCH  19  24
ATOM     24  C   UNL     1       8.886   7.300   8.133  0.00  0.00    +0.069 C 
BRANCH  24  25
ATOM      9  N   UNL     1      10.787  10.205   6.926  0.00  0.00    -0.360 N 
ATOM     25  C   UNL     1       9.462   8.499   7.435  0.00  0.00    -0.020 A 
ATOM     28  C   UNL     1       8.939   9.137   6.276  0.00  0.00    +0.003 A 
ATOM     29  C   UNL     1      10.597   9.179   7.811  0.00  0.00    +0.087 A 
ATOM     30  C   UNL     1       9.790  10.204   5.977  0.00  0.00    +0.047 A 
ATOM     33  C   UNL     1       7.822   8.908   5.449  0.00  0.00    +0.010 A 
ATOM     34  C   UNL     1       9.575  11.057   4.889  0.00  0.00    +0.026 A 
ATOM     35  C   UNL     1       7.595   9.754   4.357  0.00  0.00    +0.001 A 
ATOM     36  C   UNL     1       8.461  10.811   4.083  0.00  0.00    +0.002 A 
ATOM     40  H   UNL     1      11.549  10.869   6.962  0.00  0.00    +0.165 HD
ENDBRANCH  24  25
ENDBRANCH  19  24
ENDBRANCH   7  19
ENDBRANCH  11  16
BRANCH  15  17
ATOM     17  C   UNL     1      11.306   4.570   1.066  0.00  0.00    +0.102 C 
BRANCH  17  18
ATOM     18  C   UNL     1      12.666   4.198   0.450  0.00  0.00    -0.029 C 
ATOM     20  C   UNL     1      12.402   3.288  -0.763  0.00  0.00    +0.011 C 
ATOM     21  C   UNL     1      13.419   5.450  -0.032  0.00  0.00    +0.011 C 
ATOM     22  C   UNL     1      13.541   3.432   1.457  0.00  0.00    +0.011 C 
ENDBRANCH  17  18
ENDBRANCH  15  17
TORSDOF 9
ENDMDL
MODEL 3
REMARK VINA RESULT:      -6.2     27.401     30.896
REMARK  Name = 11865857
REMARK  14 active torsions:
REMARK  status: ('A' for Active; 'I' for Inactive)
REMARK    1  A    between atoms: N_6  and  C_12
REMARK    2  A    between atoms: N_7  and  C_19
REMARK    3  A    between atoms: N_8  and  C_27
REMARK    4  A    between atoms: C_11  and  C_16
REMARK    5  A    between atoms: C_15  and  C_17
REMARK    6  A    between atoms: C_17  and  C_18
REMARK    7  A    between atoms: C_18  and  C_20
REMARK    8  A    between atoms: C_18  and  C_21
REMARK    9  A    between atoms: C_18  and  C_22
REMARK   10  A    between atoms: C_19  and  C_24
REMARK   11  A    between atoms: C_19  and  C_26
REMARK   12  A    between atoms: C_24  and  C_25
REMARK   13  A    between atoms: C_27  and  C_31
REMARK   14  A    between atoms: C_27  and  C_32
REMARK                            x       y       z     vdW  Elec       q    Type
REMARK                         _______ _______ _______ _____ _____    ______ ____
ROOT
ATOM      1  O   UNL     1      -4.988  -8.670  10.720  0.00  0.00    -0.276 OA
ATOM      5  N   UNL     1      -6.703  -9.933  11.625  0.00  0.00    -0.288 N 
ATOM     11  C   UNL     1      -6.300  -9.786  13.019  0.00  0.00    +0.182 C 
ATOM     12  C   UNL     1      -7.509 -10.250  13.832  0.00  0.00    +0.105 C 
ATOM     13  C   UNL     1      -8.201 -11.249  12.900  0.00  0.00    +0.043 C 
ATOM     14  C   UNL     1      -7.952 -10.681  11.508  0.00  0.00    +0.110 C 
ATOM     15  C   UNL     1      -6.042  -9.293  10.587  0.00  0.00    +0.217 C 
ENDROOT
BRANCH  12   6
ATOM      3  O   UNL     1      -8.924  -9.808  16.307  0.00  0.00    -0.253 OA
ATOM      6  N   UNL     1      -8.375  -9.141  14.151  0.00  0.00    -0.294 N 
ATOM      8  N   UNL     1      -9.792  -7.847  15.418  0.00  0.00    -0.297 N 
ATOM     23  C   UNL     1      -9.021  -9.007  15.378  0.00  0.00    +0.300 C 
ATOM     37  H   UNL     1      -8.577  -8.460  13.425  0.00  0.00    +0.151 HD
ATOM     39  H   UNL     1      -9.867  -7.287  14.575  0.00  0.00    +0.150 HD
BRANCH   8  27
ATOM     27  C   UNL     1     -10.569  -7.464  16.573  0.00  0.00    +0.068 C 
ATOM     31  C   UNL     1     -11.111  -6.050  16.408  0.00  0.00    +0.027 C 
ATOM     32  C   UNL     1     -11.693  -8.463  16.811  0.00  0.00    +0.027 C 
ENDBRANCH   8  27
ENDBRANCH  12   6
BRANCH  11  16
ATOM      2  O   UNL     1      -4.909 -11.653  12.487  0.00  0.00    -0.274 OA
ATOM      7  N   UNL     1      -4.356 -10.319  14.314  0.00  0.00    -0.302 N 
ATOM     16  C   UNL     1      -5.121 -10.690  13.221  0.00  0.00    +0.236 C 
ATOM     38  H   UNL     1      -4.572  -9.447  14.786  0.00  0.00    +0.150 HD
BRANCH   7  19
ATOM     19  C   UNL     1      -3.178 -11.041  14.737  0.00  0.00    +0.163 C 
BRANCH  19  26
ATOM      4  O   UNL     1      -1.644 -10.074  13.118  0.00  0.00    -0.274 OA
ATOM     10  N   UNL     1      -1.309  -9.635  15.348  0.00  0.00    -0.328 N 
ATOM     26  C   UNL     1      -1.971 -10.227  14.293  0.00  0.00    +0.231 C 
ATOM     41  H   UNL     1      -0.494  -9.053  15.189  0.00  0.00    +0.145 HD
ATOM     42  H   UNL     1      -1.604  -9.752  16.312  0.00  0.00    +0.145 HD
ENDBRANCH  19  26
BRANCH  19  24
ATOM     24  C   UNL     1      -3.146 -11.264  16.253  0.00  0.00    +0.069 C 
BRANCH  24  25
ATOM      9  N   UNL     1      -5.809 -13.681  17.010  0.00  0.00    -0.360 N 
ATOM     25  C   UNL     1      -4.317 -12.058  16.758  0.00  0.00    -0.020 A 
ATOM     28  C   UNL     1      -5.227 -11.670  17.781  0.00  0.00    +0.003 A 
ATOM     29  C   UNL     1      -4.702 -13.298  16.303  0.00  0.00    +0.087 A 
ATOM     30  C   UNL     1      -6.153 -12.707  17.920  0.00  0.00    +0.047 A 
ATOM     33  C   UNL     1      -5.352 -10.534  18.605  0.00  0.00    +0.010 A 
ATOM     34  C   UNL     1      -7.201 -12.663  18.846  0.00  0.00    +0.026 A 
ATOM     35  C   UNL     1      -6.396 -10.476  19.535  0.00  0.00    +0.001 A 
ATOM     36  C   UNL     1      -7.305 -11.526  19.652  0.00  0.00    +0.002 A 
ATOM     40  H   UNL     1      -6.304 -14.554  16.884  0.00  0.00    +0.165 HD
ENDBRANCH  24  25
ENDBRANCH  19  24
ENDBRANCH   7  19
ENDBRANCH  11  16
BRANCH  15  17
ATOM     17  C   UNL     1      -6.694  -9.407   9.232  0.00  0.00    +0.102 C 
BRANCH  17  18
ATOM     18  C   UNL     1      -6.046 -10.487   8.346  0.00  0.00    -0.029 C 
ATOM     20  C   UNL     1      -7.081 -11.608   8.136  0.00  0.00    +0.011 C 
ATOM     21  C   UNL     1      -5.656  -9.917   6.972  0.00  0.00    +0.011 C 
ATOM     22  C   UNL     1      -4.802 -11.088   9.023  0.00  0.00    +0.011 C 
ENDBRANCH  17  18
ENDBRANCH  15  17
TORSDOF 9
ENDMDL
MODEL 4
REMARK VINA RESULT:      -6.2     14.450     18.617
REMARK  Name = 11865857
REMARK  14 active torsions:
REMARK  status: ('A' for Active; 'I' for Inactive)
REMARK    1  A    between atoms: N_6  and  C_12
REMARK    2  A    between atoms: N_7  and  C_19
REMARK    3  A    between atoms: N_8  and  C_27
REMARK    4  A    between atoms: C_11  and  C_16
REMARK    5  A    between atoms: C_15  and  C_17
REMARK    6  A    between atoms: C_17  and  C_18
REMARK    7  A    between atoms: C_18  and  C_20
REMARK    8  A    between atoms: C_18  and  C_21
REMARK    9  A    between atoms: C_18  and  C_22
REMARK   10  A    between atoms: C_19  and  C_24
REMARK   11  A    between atoms: C_19  and  C_26
REMARK   12  A    between atoms: C_24  and  C_25
REMARK   13  A    between atoms: C_27  and  C_31
REMARK   14  A    between atoms: C_27  and  C_32
REMARK                            x       y       z     vdW  Elec       q    Type
REMARK                         _______ _______ _______ _____ _____    ______ ____
ROOT
ATOM      1  O   UNL     1      16.126   7.217   3.241  0.00  0.00    -0.276 OA
ATOM      5  N   UNL     1      13.915   7.863   3.471  0.00  0.00    -0.288 N 
ATOM     11  C   UNL     1      13.329   6.564   3.155  0.00  0.00    +0.182 C 
ATOM     12  C   UNL     1      11.870   6.670   3.599  0.00  0.00    +0.105 C 
ATOM     13  C   UNL     1      11.567   8.166   3.475  0.00  0.00    +0.043 C 
ATOM     14  C   UNL     1      12.888   8.835   3.834  0.00  0.00    +0.110 C 
ATOM     15  C   UNL     1      15.285   8.060   3.557  0.00  0.00    +0.217 C 
ENDROOT
BRANCH  12   6
ATOM      3  O   UNL     1       9.387   6.246   5.006  0.00  0.00    -0.253 OA
ATOM      6  N   UNL     1      11.708   6.212   4.958  0.00  0.00    -0.294 N 
ATOM      8  N   UNL     1      10.598   5.586   6.873  0.00  0.00    -0.297 N 
ATOM     23  C   UNL     1      10.465   6.035   5.560  0.00  0.00    +0.300 C 
ATOM     37  H   UNL     1      12.540   6.076   5.526  0.00  0.00    +0.151 HD
ATOM     39  H   UNL     1      11.532   5.510   7.265  0.00  0.00    +0.150 HD
BRANCH   8  27
ATOM     27  C   UNL     1       9.466   5.321   7.728  0.00  0.00    +0.068 C 
ATOM     31  C   UNL     1       9.788   4.201   8.710  0.00  0.00    +0.027 C 
ATOM     32  C   UNL     1       9.044   6.590   8.457  0.00  0.00    +0.027 C 
ENDBRANCH   8  27
ENDBRANCH  12   6
BRANCH  11  16
ATOM      2  O   UNL     1      12.818   7.109   0.886  0.00  0.00    -0.274 OA
ATOM      7  N   UNL     1      14.285   5.354   1.322  0.00  0.00    -0.302 N 
ATOM     16  C   UNL     1      13.440   6.395   1.669  0.00  0.00    +0.236 C 
ATOM     38  H   UNL     1      14.823   4.898   2.052  0.00  0.00    +0.150 HD
BRANCH   7  19
ATOM     19  C   UNL     1      14.545   4.970  -0.046  0.00  0.00    +0.163 C 
BRANCH  19  26
ATOM      4  O   UNL     1      16.648   4.076  -0.876  0.00  0.00    -0.274 OA
ATOM     10  N   UNL     1      16.693   5.991   0.393  0.00  0.00    -0.328 N 
ATOM     26  C   UNL     1      16.057   4.932  -0.221  0.00  0.00    +0.231 C 
ATOM     41  H   UNL     1      17.700   6.093   0.342  0.00  0.00    +0.145 HD
ATOM     42  H   UNL     1      16.189   6.703   0.911  0.00  0.00    +0.145 HD
ENDBRANCH  19  26
BRANCH  19  24
ATOM     24  C   UNL     1      13.931   3.609  -0.395  0.00  0.00    +0.069 C 
BRANCH  24  25
ATOM      9  N   UNL     1      10.360   4.029  -1.155  0.00  0.00    -0.360 N 
ATOM     25  C   UNL     1      12.550   3.717  -0.975  0.00  0.00    -0.020 A 
ATOM     28  C   UNL     1      12.182   3.509  -2.333  0.00  0.00    +0.003 A 
ATOM     29  C   UNL     1      11.408   4.034  -0.275  0.00  0.00    +0.087 A 
ATOM     30  C   UNL     1      10.802   3.712  -2.420  0.00  0.00    +0.047 A 
ATOM     33  C   UNL     1      12.891   3.169  -3.502  0.00  0.00    +0.010 A 
ATOM     34  C   UNL     1      10.096   3.589  -3.621  0.00  0.00    +0.026 A 
ATOM     35  C   UNL     1      12.198   3.043  -4.711  0.00  0.00    +0.001 A 
ATOM     36  C   UNL     1      10.820   3.250  -4.766  0.00  0.00    +0.002 A 
ATOM     40  H   UNL     1       9.398   4.228  -0.913  0.00  0.00    +0.165 HD
ENDBRANCH  24  25
ENDBRANCH  19  24
ENDBRANCH   7  19
ENDBRANCH  11  16
BRANCH  15  17
ATOM     17  C   UNL     1      15.716   9.412   4.068  0.00  0.00    +0.102 C 
BRANCH  17  18
ATOM     18  C   UNL     1      16.223   9.368   5.521  0.00  0.00    -0.029 C 
ATOM     20  C   UNL     1      15.760  10.659   6.220  0.00  0.00    +0.011 C 
ATOM     21  C   UNL     1      15.636   8.164   6.277  0.00  0.00    +0.011 C 
ATOM     22  C   UNL     1      17.759   9.306   5.572  0.00  0.00    +0.011 C 
ENDBRANCH  17  18
ENDBRANCH  15  17
TORSDOF 9
ENDMDL
MODEL 5
REMARK VINA RESULT:      -6.1     10.411     14.282
REMARK  Name = 11865857
REMARK  14 active torsions:
REMARK  status: ('A' for Active; 'I' for Inactive)
REMARK    1  A    between atoms: N_6  and  C_12
REMARK    2  A    between atoms: N_7  and  C_19
REMARK    3  A    between atoms: N_8  and  C_27
REMARK    4  A    between atoms: C_11  and  C_16
REMARK    5  A    between atoms: C_15  and  C_17
REMARK    6  A    between atoms: C_17  and  C_18
REMARK    7  A    between atoms: C_18  and  C_20
REMARK    8  A    between atoms: C_18  and  C_21
REMARK    9  A    between atoms: C_18  and  C_22
REMARK   10  A    between atoms: C_19  and  C_24
REMARK   11  A    between atoms: C_19  and  C_26
REMARK   12  A    between atoms: C_24  and  C_25
REMARK   13  A    between atoms: C_27  and  C_31
REMARK   14  A    between atoms: C_27  and  C_32
REMARK                            x       y       z     vdW  Elec       q    Type
REMARK                         _______ _______ _______ _____ _____    ______ ____
ROOT
ATOM      1  O   UNL     1      15.328   7.599   6.624  0.00  0.00    -0.276 OA
ATOM      5  N   UNL     1      13.700   9.205   6.270  0.00  0.00    -0.288 N 
ATOM     11  C   UNL     1      12.748   8.695   7.252  0.00  0.00    +0.182 C 
ATOM     12  C   UNL     1      11.734   9.824   7.443  0.00  0.00    +0.105 C 
ATOM     13  C   UNL     1      11.769  10.565   6.103  0.00  0.00    +0.043 C 
ATOM     14  C   UNL     1      13.220  10.441   5.657  0.00  0.00    +0.110 C 
ATOM     15  C   UNL     1      14.956   8.645   6.090  0.00  0.00    +0.217 C 
ENDROOT
BRANCH  12   6
ATOM      3  O   UNL     1       9.996  11.034   9.403  0.00  0.00    -0.253 OA
ATOM      6  N   UNL     1      12.121  10.688   8.532  0.00  0.00    -0.294 N 
ATOM      8  N   UNL     1      11.852  12.026  10.383  0.00  0.00    -0.297 N 
ATOM     23  C   UNL     1      11.210  11.231   9.435  0.00  0.00    +0.300 C 
ATOM     37  H   UNL     1      13.095  10.969   8.605  0.00  0.00    +0.151 HD
ATOM     39  H   UNL     1      12.849  12.186  10.284  0.00  0.00    +0.150 HD
BRANCH   8  27
ATOM     27  C   UNL     1      11.143  12.711  11.438  0.00  0.00    +0.068 C 
ATOM     31  C   UNL     1      11.310  11.973  12.761  0.00  0.00    +0.027 C 
ATOM     32  C   UNL     1      11.619  14.154  11.546  0.00  0.00    +0.027 C 
ENDBRANCH   8  27
ENDBRANCH  12   6
BRANCH  11  16
ATOM      2  O   UNL     1      12.557   6.961   5.621  0.00  0.00    -0.274 OA
ATOM      7  N   UNL     1      10.992   7.069   7.341  0.00  0.00    -0.302 N 
ATOM     16  C   UNL     1      12.112   7.483   6.641  0.00  0.00    +0.236 C 
ATOM     38  H   UNL     1      10.777   7.516   8.226  0.00  0.00    +0.150 HD
BRANCH   7  19
ATOM     19  C   UNL     1      10.186   5.937   6.946  0.00  0.00    +0.163 C 
BRANCH  19  26
ATOM      4  O   UNL     1       9.174   5.584   9.127  0.00  0.00    -0.274 OA
ATOM     10  N   UNL     1      10.396   3.878   8.194  0.00  0.00    -0.328 N 
ATOM     26  C   UNL     1       9.866   5.151   8.209  0.00  0.00    +0.231 C 
ATOM     41  H   UNL     1      10.246   3.243   8.970  0.00  0.00    +0.145 HD
ATOM     42  H   UNL     1      10.947   3.525   7.418  0.00  0.00    +0.145 HD
ENDBRANCH  19  26
BRANCH  19  24
ATOM     24  C   UNL     1       8.893   6.363   6.239  0.00  0.00    +0.069 C 
BRANCH  24  25
ATOM      9  N   UNL     1       8.978   7.614   2.784  0.00  0.00    -0.360 N 
ATOM     25  C   UNL     1       9.085   6.639   4.775  0.00  0.00    -0.020 A 
ATOM     28  C   UNL     1       9.802   5.834   3.847  0.00  0.00    +0.003 A 
ATOM     29  C   UNL     1       8.590   7.726   4.091  0.00  0.00    +0.087 A 
ATOM     30  C   UNL     1       9.720   6.469   2.605  0.00  0.00    +0.047 A 
ATOM     33  C   UNL     1      10.516   4.624   3.944  0.00  0.00    +0.010 A 
ATOM     34  C   UNL     1      10.319   5.949   1.452  0.00  0.00    +0.026 A 
ATOM     35  C   UNL     1      11.120   4.092   2.798  0.00  0.00    +0.001 A 
ATOM     36  C   UNL     1      11.021   4.748   1.572  0.00  0.00    +0.002 A 
ATOM     40  H   UNL     1       8.754   8.277   2.054  0.00  0.00    +0.165 HD
ENDBRANCH  24  25
ENDBRANCH  19  24
ENDBRANCH   7  19
ENDBRANCH  11  16
BRANCH  15  17
ATOM     17  C   UNL     1      15.879   9.400   5.168  0.00  0.00    +0.102 C 
BRANCH  17  18
ATOM     18  C   UNL     1      16.317   8.569   3.949  0.00  0.00    -0.029 C 
ATOM     20  C   UNL     1      16.347   9.504   2.726  0.00  0.00    +0.011 C 
ATOM     21  C   UNL     1      17.725   7.984   4.153  0.00  0.00    +0.011 C 
ATOM     22  C   UNL     1      15.325   7.427   3.669  0.00  0.00    +0.011 C 
ENDBRANCH  17  18
ENDBRANCH  15  17
TORSDOF 9
ENDMDL
MODEL 6
REMARK VINA RESULT:      -6.1     27.046     31.384
REMARK  Name = 11865857
REMARK  14 active torsions:
REMARK  status: ('A' for Active; 'I' for Inactive)
REMARK    1  A    between atoms: N_6  and  C_12
REMARK    2  A    between atoms: N_7  and  C_19
REMARK    3  A    between atoms: N_8  and  C_27
REMARK    4  A    between atoms: C_11  and  C_16
REMARK    5  A    between atoms: C_15  and  C_17
REMARK    6  A    between atoms: C_17  and  C_18
REMARK    7  A    between atoms: C_18  and  C_20
REMARK    8  A    between atoms: C_18  and  C_21
REMARK    9  A    between atoms: C_18  and  C_22
REMARK   10  A    between atoms: C_19  and  C_24
REMARK   11  A    between atoms: C_19  and  C_26
REMARK   12  A    between atoms: C_24  and  C_25
REMARK   13  A    between atoms: C_27  and  C_31
REMARK   14  A    between atoms: C_27  and  C_32
REMARK                            x       y       z     vdW  Elec       q    Type
REMARK                         _______ _______ _______ _____ _____    ______ ____
ROOT
ATOM      1  O   UNL     1      -5.518 -13.865  14.365  0.00  0.00    -0.276 OA
ATOM      5  N   UNL     1      -5.128 -12.748  16.355  0.00  0.00    -0.288 N 
ATOM     11  C   UNL     1      -5.769 -11.495  15.970  0.00  0.00    +0.182 C 
ATOM     12  C   UNL     1      -5.944 -10.723  17.278  0.00  0.00    +0.105 C 
ATOM     13  C   UNL     1      -4.806 -11.248  18.157  0.00  0.00    +0.043 C 
ATOM     14  C   UNL     1      -4.667 -12.707  17.740  0.00  0.00    +0.110 C 
ATOM     15  C   UNL     1      -5.122 -13.865  15.532  0.00  0.00    +0.217 C 
ENDROOT
BRANCH  12   6
ATOM      3  O   UNL     1      -8.205  -8.934  17.409  0.00  0.00    -0.253 OA
ATOM      6  N   UNL     1      -7.233 -10.993  17.870  0.00  0.00    -0.294 N 
ATOM      8  N   UNL     1      -9.401 -10.585  18.520  0.00  0.00    -0.297 N 
ATOM     23  C   UNL     1      -8.273 -10.066  17.888  0.00  0.00    +0.300 C 
ATOM     37  H   UNL     1      -7.367 -11.875  18.355  0.00  0.00    +0.151 HD
ATOM     39  H   UNL     1      -9.335 -11.504  18.948  0.00  0.00    +0.150 HD
BRANCH   8  27
ATOM     27  C   UNL     1     -10.624  -9.835  18.678  0.00  0.00    +0.068 C 
ATOM     31  C   UNL     1     -11.608 -10.174  17.565  0.00  0.00    +0.027 C 
ATOM     32  C   UNL     1     -11.231 -10.095  20.051  0.00  0.00    +0.027 C 
ENDBRANCH   8  27
ENDBRANCH  12   6
BRANCH  11  16
ATOM      2  O   UNL     1      -5.181  -9.869  14.322  0.00  0.00    -0.274 OA
ATOM      7  N   UNL     1      -3.546 -11.337  15.092  0.00  0.00    -0.302 N 
ATOM     16  C   UNL     1      -4.820 -10.797  15.042  0.00  0.00    +0.236 C 
ATOM     38  H   UNL     1      -3.340 -12.036  15.798  0.00  0.00    +0.150 HD
BRANCH   7  19
ATOM     19  C   UNL     1      -2.453 -10.859  14.278  0.00  0.00    +0.163 C 
BRANCH  19  26
ATOM      4  O   UNL     1      -0.793  -9.233  14.991  0.00  0.00    -0.274 OA
ATOM     10  N   UNL     1      -1.287 -10.984  16.393  0.00  0.00    -0.328 N 
ATOM     26  C   UNL     1      -1.417 -10.266  15.223  0.00  0.00    +0.231 C 
ATOM     41  H   UNL     1      -0.640 -10.689  17.115  0.00  0.00    +0.145 HD
ATOM     42  H   UNL     1      -1.826 -11.823  16.580  0.00  0.00    +0.145 HD
ENDBRANCH  19  26
BRANCH  19  24
ATOM     24  C   UNL     1      -1.829 -11.974  13.430  0.00  0.00    +0.069 C 
BRANCH  24  25
ATOM      9  N   UNL     1      -3.698 -13.376  10.594  0.00  0.00    -0.360 N 
ATOM     25  C   UNL     1      -2.610 -12.274  12.183  0.00  0.00    -0.020 A 
ATOM     28  C   UNL     1      -3.057 -11.332  11.216  0.00  0.00    +0.003 A 
ATOM     29  C   UNL     1      -3.019 -13.522  11.772  0.00  0.00    +0.087 A 
ATOM     30  C   UNL     1      -3.738 -12.049  10.229  0.00  0.00    +0.047 A 
ATOM     33  C   UNL     1      -2.949  -9.933  11.084  0.00  0.00    +0.010 A 
ATOM     34  C   UNL     1      -4.317 -11.434   9.113  0.00  0.00    +0.026 A 
ATOM     35  C   UNL     1      -3.523  -9.305   9.973  0.00  0.00    +0.001 A 
ATOM     36  C   UNL     1      -4.197 -10.047   9.004  0.00  0.00    +0.002 A 
ATOM     40  H   UNL     1      -4.112 -14.133  10.066  0.00  0.00    +0.165 HD
ENDBRANCH  24  25
ENDBRANCH  19  24
ENDBRANCH   7  19
ENDBRANCH  11  16
BRANCH  15  17
ATOM     17  C   UNL     1      -4.577 -15.127  16.151  0.00  0.00    +0.102 C 
BRANCH  17  18
ATOM     18  C   UNL     1      -5.624 -16.252  16.234  0.00  0.00    -0.029 C 
ATOM     20  C   UNL     1      -5.779 -16.856  14.826  0.00  0.00    +0.011 C 
ATOM     21  C   UNL     1      -5.170 -17.363  17.195  0.00  0.00    +0.011 C 
ATOM     22  C   UNL     1      -6.989 -15.709  16.688  0.00  0.00    +0.011 C 
ENDBRANCH  17  18
ENDBRANCH  15  17
TORSDOF 9
ENDMDL
MODEL 7
REMARK VINA RESULT:      -6.1     24.861     27.475
REMARK  Name = 11865857
REMARK  14 active torsions:
REMARK  status: ('A' for Active; 'I' for Inactive)
REMARK    1  A    between atoms: N_6  and  C_12
REMARK    2  A    between atoms: N_7  and  C_19
REMARK    3  A    between atoms: N_8  and  C_27
REMARK    4  A    between atoms: C_11  and  C_16
REMARK    5  A    between atoms: C_15  and  C_17
REMARK    6  A    between atoms: C_17  and  C_18
REMARK    7  A    between atoms: C_18  and  C_20
REMARK    8  A    between atoms: C_18  and  C_21
REMARK    9  A    between atoms: C_18  and  C_22
REMARK   10  A    between atoms: C_19  and  C_24
REMARK   11  A    between atoms: C_19  and  C_26
REMARK   12  A    between atoms: C_24  and  C_25
REMARK   13  A    between atoms: C_27  and  C_31
REMARK   14  A    between atoms: C_27  and  C_32
REMARK                            x       y       z     vdW  Elec       q    Type
REMARK                         _______ _______ _______ _____ _____    ______ ____
ROOT
ATOM      1  O   UNL     1      16.567  -5.790  -2.788  0.00  0.00    -0.276 OA
ATOM      5  N   UNL     1      17.568  -7.819  -3.279  0.00  0.00    -0.288 N 
ATOM     11  C   UNL     1      18.122  -8.057  -1.950  0.00  0.00    +0.182 C 
ATOM     12  C   UNL     1      18.528  -9.530  -1.949  0.00  0.00    +0.105 C 
ATOM     13  C   UNL     1      18.825  -9.819  -3.424  0.00  0.00    +0.043 C 
ATOM     14  C   UNL     1      17.829  -8.943  -4.173  0.00  0.00    +0.110 C 
ATOM     15  C   UNL     1      16.766  -6.724  -3.566  0.00  0.00    +0.217 C 
ENDROOT
BRANCH  12   6
ATOM      3  O   UNL     1      18.772 -11.851  -0.252  0.00  0.00    -0.253 OA
ATOM      6  N   UNL     1      17.457 -10.362  -1.456  0.00  0.00    -0.294 N 
ATOM      8  N   UNL     1      16.464 -12.090  -0.308  0.00  0.00    -0.297 N 
ATOM     23  C   UNL     1      17.667 -11.470  -0.637  0.00  0.00    +0.300 C 
ATOM     37  H   UNL     1      16.511 -10.173  -1.774  0.00  0.00    +0.151 HD
ATOM     39  H   UNL     1      15.610 -11.744  -0.734  0.00  0.00    +0.150 HD
BRANCH   8  27
ATOM     27  C   UNL     1      16.392 -13.264   0.530  0.00  0.00    +0.068 C 
ATOM     31  C   UNL     1      15.275 -13.120   1.557  0.00  0.00    +0.027 C 
ATOM     32  C   UNL     1      16.202 -14.512  -0.322  0.00  0.00    +0.027 C 
ENDBRANCH   8  27
ENDBRANCH  12   6
BRANCH  11  16
ATOM      2  O   UNL     1      20.319  -7.307  -2.508  0.00  0.00    -0.274 OA
ATOM      7  N   UNL     1      19.139  -6.196  -0.837  0.00  0.00    -0.302 N 
ATOM     16  C   UNL     1      19.314  -7.157  -1.818  0.00  0.00    +0.236 C 
ATOM     38  H   UNL     1      18.228  -6.105  -0.399  0.00  0.00    +0.150 HD
BRANCH   7  19
ATOM     19  C   UNL     1      20.149  -5.221  -0.496  0.00  0.00    +0.163 C 
BRANCH  19  26
ATOM      4  O   UNL     1      20.748  -3.377  -1.962  0.00  0.00    -0.274 OA
ATOM     10  N   UNL     1      18.544  -3.640  -1.372  0.00  0.00    -0.328 N 
ATOM     26  C   UNL     1      19.879  -3.982  -1.339  0.00  0.00    +0.231 C 
ATOM     41  H   UNL     1      18.225  -2.841  -1.909  0.00  0.00    +0.145 HD
ATOM     42  H   UNL     1      17.834  -4.163  -0.870  0.00  0.00    +0.145 HD
ENDBRANCH  19  26
BRANCH  19  24
ATOM     24  C   UNL     1      20.136  -4.867   0.996  0.00  0.00    +0.069 C 
BRANCH  24  25
ATOM      9  N   UNL     1      23.080  -5.992   2.886  0.00  0.00    -0.360 N 
ATOM     25  C   UNL     1      21.201  -5.578   1.780  0.00  0.00    -0.020 A 
ATOM     28  C   UNL     1      21.174  -6.934   2.210  0.00  0.00    +0.003 A 
ATOM     29  C   UNL     1      22.386  -5.026   2.210  0.00  0.00    +0.087 A 
ATOM     30  C   UNL     1      22.365  -7.168   2.902  0.00  0.00    +0.047 A 
ATOM     33  C   UNL     1      20.249  -7.988   2.079  0.00  0.00    +0.010 A 
ATOM     34  C   UNL     1      22.677  -8.408   3.469  0.00  0.00    +0.026 A 
ATOM     35  C   UNL     1      20.547  -9.234   2.641  0.00  0.00    +0.001 A 
ATOM     36  C   UNL     1      21.744  -9.439   3.326  0.00  0.00    +0.002 A 
ATOM     40  H   UNL     1      23.988  -5.862   3.312  0.00  0.00    +0.165 HD
ENDBRANCH  24  25
ENDBRANCH  19  24
ENDBRANCH   7  19
ENDBRANCH  11  16
BRANCH  15  17
ATOM     17  C   UNL     1      16.131  -6.724  -4.934  0.00  0.00    +0.102 C 
BRANCH  17  18
ATOM     18  C   UNL     1      14.613  -6.976  -4.888  0.00  0.00    -0.029 C 
ATOM     20  C   UNL     1      14.318  -7.859  -3.661  0.00  0.00    +0.011 C 
ATOM     21  C   UNL     1      13.835  -5.657  -4.740  0.00  0.00    +0.011 C 
ATOM     22  C   UNL     1      14.134  -7.714  -6.150  0.00  0.00    +0.011 C 
ENDBRANCH  17  18
ENDBRANCH  15  17
TORSDOF 9
ENDMDL
MODEL 8
REMARK VINA RESULT:      -6.0     12.364     15.064
REMARK  Name = 11865857
REMARK  14 active torsions:
REMARK  status: ('A' for Active; 'I' for Inactive)
REMARK    1  A    between atoms: N_6  and  C_12
REMARK    2  A    between atoms: N_7  and  C_19
REMARK    3  A    between atoms: N_8  and  C_27
REMARK    4  A    between atoms: C_11  and  C_16
REMARK    5  A    between atoms: C_15  and  C_17
REMARK    6  A    between atoms: C_17  and  C_18
REMARK    7  A    between atoms: C_18  and  C_20
REMARK    8  A    between atoms: C_18  and  C_21
REMARK    9  A    between atoms: C_18  and  C_22
REMARK   10  A    between atoms: C_19  and  C_24
REMARK   11  A    between atoms: C_19  and  C_26
REMARK   12  A    between atoms: C_24  and  C_25
REMARK   13  A    between atoms: C_27  and  C_31
REMARK   14  A    between atoms: C_27  and  C_32
REMARK                            x       y       z     vdW  Elec       q    Type
REMARK                         _______ _______ _______ _____ _____    ______ ____
ROOT
ATOM      1  O   UNL     1      14.984   7.472   6.530  0.00  0.00    -0.276 OA
ATOM      5  N   UNL     1      13.612   8.686   5.115  0.00  0.00    -0.288 N 
ATOM     11  C   UNL     1      12.390   8.535   5.899  0.00  0.00    +0.182 C 
ATOM     12  C   UNL     1      11.423   9.570   5.325  0.00  0.00    +0.105 C 
ATOM     13  C   UNL     1      11.886   9.725   3.873  0.00  0.00    +0.043 C 
ATOM     14  C   UNL     1      13.396   9.542   3.952  0.00  0.00    +0.110 C 
ATOM     15  C   UNL     1      14.837   8.194   5.543  0.00  0.00    +0.217 C 
ENDROOT
BRANCH  12   6
ATOM      3  O   UNL     1       9.438  10.722   7.075  0.00  0.00    -0.253 OA
ATOM      6  N   UNL     1      11.516  10.819   6.042  0.00  0.00    -0.294 N 
ATOM      8  N   UNL     1      10.854  12.525   7.436  0.00  0.00    -0.297 N 
ATOM     23  C   UNL     1      10.504  11.301   6.869  0.00  0.00    +0.300 C 
ATOM     37  H   UNL     1      12.328  11.408   5.885  0.00  0.00    +0.151 HD
ATOM     39  H   UNL     1      11.726  12.958   7.149  0.00  0.00    +0.150 HD
BRANCH   8  27
ATOM     27  C   UNL     1       9.986  13.248   8.335  0.00  0.00    +0.068 C 
ATOM     31  C   UNL     1      10.805  14.059   9.332  0.00  0.00    +0.027 C 
ATOM     32  C   UNL     1       9.033  14.138   7.548  0.00  0.00    +0.027 C 
ENDBRANCH   8  27
ENDBRANCH  12   6
BRANCH  11  16
ATOM      2  O   UNL     1      12.333   6.445   4.745  0.00  0.00    -0.274 OA
ATOM      7  N   UNL     1      10.928   6.762   6.574  0.00  0.00    -0.302 N 
ATOM     16  C   UNL     1      11.903   7.137   5.664  0.00  0.00    +0.236 C 
ATOM     38  H   UNL     1      10.723   7.381   7.352  0.00  0.00    +0.150 HD
BRANCH   7  19
ATOM     19  C   UNL     1      10.278   5.472   6.550  0.00  0.00    +0.163 C 
BRANCH  19  26
ATOM      4  O   UNL     1       9.299   5.920   8.728  0.00  0.00    -0.274 OA
ATOM     10  N   UNL     1      10.222   3.852   8.343  0.00  0.00    -0.328 N 
ATOM     26  C   UNL     1       9.888   5.141   7.984  0.00  0.00    +0.231 C 
ATOM     41  H   UNL     1      10.005   3.498   9.269  0.00  0.00    +0.145 HD
ATOM     42  H   UNL     1      10.689   3.212   7.709  0.00  0.00    +0.145 HD
ENDBRANCH  19  26
BRANCH  19  24
ATOM     24  C   UNL     1       9.043   5.460   5.642  0.00  0.00    +0.069 C 
BRANCH  24  25
ATOM      9  N   UNL     1       7.595   8.835   5.504  0.00  0.00    -0.360 N 
ATOM     25  C   UNL     1       8.539   6.836   5.312  0.00  0.00    -0.020 A 
ATOM     28  C   UNL     1       8.639   7.497   4.056  0.00  0.00    +0.003 A 
ATOM     29  C   UNL     1       7.891   7.684   6.181  0.00  0.00    +0.087 A 
ATOM     30  C   UNL     1       8.039   8.751   4.204  0.00  0.00    +0.047 A 
ATOM     33  C   UNL     1       9.185   7.151   2.805  0.00  0.00    +0.010 A 
ATOM     34  C   UNL     1       7.957   9.676   3.158  0.00  0.00    +0.026 A 
ATOM     35  C   UNL     1       9.110   8.066   1.749  0.00  0.00    +0.001 A 
ATOM     36  C   UNL     1       8.505   9.309   1.926  0.00  0.00    +0.002 A 
ATOM     40  H   UNL     1       7.118   9.634   5.900  0.00  0.00    +0.165 HD
ENDBRANCH  24  25
ENDBRANCH  19  24
ENDBRANCH   7  19
ENDBRANCH  11  16
BRANCH  15  17
ATOM     17  C   UNL     1      16.026   8.590   4.705  0.00  0.00    +0.102 C 
BRANCH  17  18
ATOM     18  C   UNL     1      16.934   9.618   5.404  0.00  0.00    -0.029 C 
ATOM     20  C   UNL     1      17.583  10.492   4.315  0.00  0.00    +0.011 C 
ATOM     21  C   UNL     1      16.123  10.527   6.343  0.00  0.00    +0.011 C 
ATOM     22  C   UNL     1      18.049   8.921   6.203  0.00  0.00    +0.011 C 
ENDBRANCH  17  18
ENDBRANCH  15  17
TORSDOF 9
ENDMDL
MODEL 9
REMARK VINA RESULT:      -5.9     25.121     28.078
REMARK  Name = 11865857
REMARK  14 active torsions:
REMARK  status: ('A' for Active; 'I' for Inactive)
REMARK    1  A    between atoms: N_6  and  C_12
REMARK    2  A    between atoms: N_7  and  C_19
REMARK    3  A    between atoms: N_8  and  C_27
REMARK    4  A    between atoms: C_11  and  C_16
REMARK    5  A    between atoms: C_15  and  C_17
REMARK    6  A    between atoms: C_17  and  C_18
REMARK    7  A    between atoms: C_18  and  C_20
REMARK    8  A    between atoms: C_18  and  C_21
REMARK    9  A    between atoms: C_18  and  C_22
REMARK   10  A    between atoms: C_19  and  C_24
REMARK   11  A    between atoms: C_19  and  C_26
REMARK   12  A    between atoms: C_24  and  C_25
REMARK   13  A    between atoms: C_27  and  C_31
REMARK   14  A    between atoms: C_27  and  C_32
REMARK                            x       y       z     vdW  Elec       q    Type
REMARK                         _______ _______ _______ _____ _____    ______ ____
ROOT
ATOM      1  O   UNL     1      16.341  -5.390  -2.849  0.00  0.00    -0.276 OA
ATOM      5  N   UNL     1      17.541  -7.283  -3.425  0.00  0.00    -0.288 N 
ATOM     11  C   UNL     1      18.073  -7.554  -2.093  0.00  0.00    +0.182 C 
ATOM     12  C   UNL     1      18.614  -8.982  -2.166  0.00  0.00    +0.105 C 
ATOM     13  C   UNL     1      18.983  -9.147  -3.643  0.00  0.00    +0.043 C 
ATOM     14  C   UNL     1      17.934  -8.320  -4.375  0.00  0.00    +0.110 C 
ATOM     15  C   UNL     1      16.651  -6.250  -3.675  0.00  0.00    +0.217 C 
ENDROOT
BRANCH  12   6
ATOM      3  O   UNL     1      18.674 -10.693   0.157  0.00  0.00    -0.253 OA
ATOM      6  N   UNL     1      17.610  -9.938  -1.765  0.00  0.00    -0.294 N 
ATOM      8  N   UNL     1      16.615 -11.559  -0.473  0.00  0.00    -0.297 N 
ATOM     23  C   UNL     1      17.722 -10.726  -0.622  0.00  0.00    +0.300 C 
ATOM     37  H   UNL     1      16.816 -10.092  -2.379  0.00  0.00    +0.151 HD
ATOM     39  H   UNL     1      15.914 -11.566  -1.207  0.00  0.00    +0.150 HD
BRANCH   8  27
ATOM     27  C   UNL     1      16.473 -12.482   0.628  0.00  0.00    +0.068 C 
ATOM     31  C   UNL     1      15.515 -11.924   1.674  0.00  0.00    +0.027 C 
ATOM     32  C   UNL     1      16.007 -13.842   0.123  0.00  0.00    +0.027 C 
ENDBRANCH   8  27
ENDBRANCH  12   6
BRANCH  11  16
ATOM      2  O   UNL     1      20.266  -6.663  -2.410  0.00  0.00    -0.274 OA
ATOM      7  N   UNL     1      18.803  -5.571  -0.965  0.00  0.00    -0.302 N 
ATOM     16  C   UNL     1      19.171  -6.560  -1.861  0.00  0.00    +0.236 C 
ATOM     38  H   UNL     1      17.838  -5.531  -0.652  0.00  0.00    +0.150 HD
BRANCH   7  19
ATOM     19  C   UNL     1      19.689  -4.506  -0.555  0.00  0.00    +0.163 C 
BRANCH  19  26
ATOM      4  O   UNL     1      20.726  -5.821   1.206  0.00  0.00    -0.274 OA
ATOM     10  N   UNL     1      22.063  -4.948  -0.446  0.00  0.00    -0.328 N 
ATOM     26  C   UNL     1      20.853  -5.152   0.184  0.00  0.00    +0.231 C 
ATOM     41  H   UNL     1      22.919  -5.337  -0.065  0.00  0.00    +0.145 HD
ATOM     42  H   UNL     1      22.149  -4.412  -1.303  0.00  0.00    +0.145 HD
ENDBRANCH  19  26
BRANCH  19  24
ATOM     24  C   UNL     1      20.198  -3.683  -1.744  0.00  0.00    +0.069 C 
BRANCH  24  25
ATOM      9  N   UNL     1      17.256  -2.141  -3.316  0.00  0.00    -0.360 N 
ATOM     25  C   UNL     1      19.094  -3.176  -2.627  0.00  0.00    -0.020 A 
ATOM     28  C   UNL     1      18.940  -3.424  -4.019  0.00  0.00    +0.003 A 
ATOM     29  C   UNL     1      18.042  -2.385  -2.224  0.00  0.00    +0.087 A 
ATOM     30  C   UNL     1      17.779  -2.762  -4.428  0.00  0.00    +0.047 A 
ATOM     33  C   UNL     1      19.680  -4.148  -4.975  0.00  0.00    +0.010 A 
ATOM     34  C   UNL     1      17.320  -2.791  -5.749  0.00  0.00    +0.026 A 
ATOM     35  C   UNL     1      19.232  -4.186  -6.301  0.00  0.00    +0.001 A 
ATOM     36  C   UNL     1      18.069  -3.516  -6.679  0.00  0.00    +0.002 A 
ATOM     40  H   UNL     1      16.412  -1.584  -3.310  0.00  0.00    +0.165 HD
ENDBRANCH  24  25
ENDBRANCH  19  24
ENDBRANCH   7  19
ENDBRANCH  11  16
BRANCH  15  17
ATOM     17  C   UNL     1      16.062  -6.220  -5.063  0.00  0.00    +0.102 C 
BRANCH  17  18
ATOM     18  C   UNL     1      14.602  -6.706  -5.103  0.00  0.00    -0.029 C 
ATOM     20  C   UNL     1      13.691  -5.465  -5.092  0.00  0.00    +0.011 C 
ATOM     21  C   UNL     1      14.320  -7.509  -6.384  0.00  0.00    +0.011 C 
ATOM     22  C   UNL     1      14.270  -7.570  -3.874  0.00  0.00    +0.011 C 
ENDBRANCH  17  18
ENDBRANCH  15  17
TORSDOF 9
ENDMDL
MODEL 10
REMARK VINA RESULT:      -5.8     12.869     15.563
REMARK  Name = 11865857
REMARK  14 active torsions:
REMARK  status: ('A' for Active; 'I' for Inactive)
REMARK    1  A    between atoms: N_6  and  C_12
REMARK    2  A    between atoms: N_7  and  C_19
REMARK    3  A    between atoms: N_8  and  C_27
REMARK    4  A    between atoms: C_11  and  C_16
REMARK    5  A    between atoms: C_15  and  C_17
REMARK    6  A    between atoms: C_17  and  C_18
REMARK    7  A    between atoms: C_18  and  C_20
REMARK    8  A    between atoms: C_18  and  C_21
REMARK    9  A    between atoms: C_18  and  C_22
REMARK   10  A    between atoms: C_19  and  C_24
REMARK   11  A    between atoms: C_19  and  C_26
REMARK   12  A    between atoms: C_24  and  C_25
REMARK   13  A    between atoms: C_27  and  C_31
REMARK   14  A    between atoms: C_27  and  C_32
REMARK                            x       y       z     vdW  Elec       q    Type
REMARK                         _______ _______ _______ _____ _____    ______ ____
ROOT
ATOM      1  O   UNL     1      14.588  10.977   4.786  0.00  0.00    -0.276 OA
ATOM      5  N   UNL     1      14.014   8.961   5.768  0.00  0.00    -0.288 N 
ATOM     11  C   UNL     1      12.771   8.764   5.029  0.00  0.00    +0.182 C 
ATOM     12  C   UNL     1      12.399   7.300   5.264  0.00  0.00    +0.105 C 
ATOM     13  C   UNL     1      13.029   6.986   6.624  0.00  0.00    +0.043 C 
ATOM     14  C   UNL     1      14.302   7.823   6.638  0.00  0.00    +0.110 C 
ATOM     15  C   UNL     1      14.863  10.031   5.527  0.00  0.00    +0.217 C 
ENDROOT
BRANCH  12   6
ATOM      3  O   UNL     1      10.995   6.240   2.976  0.00  0.00    -0.253 OA
ATOM      6  N   UNL     1      12.940   6.455   4.227  0.00  0.00    -0.294 N 
ATOM      8  N   UNL     1      12.955   5.195   2.303  0.00  0.00    -0.297 N 
ATOM     23  C   UNL     1      12.186   5.987   3.153  0.00  0.00    +0.300 C 
ATOM     37  H   UNL     1      13.899   6.130   4.318  0.00  0.00    +0.151 HD
ATOM     39  H   UNL     1      13.911   4.984   2.573  0.00  0.00    +0.150 HD
BRANCH   8  27
ATOM     27  C   UNL     1      12.421   4.580   1.111  0.00  0.00    +0.068 C 
ATOM     31  C   UNL     1      12.683   5.459  -0.107  0.00  0.00    +0.027 C 
ATOM     32  C   UNL     1      13.009   3.188   0.924  0.00  0.00    +0.027 C 
ENDBRANCH   8  27
ENDBRANCH  12   6
BRANCH  11  16
ATOM      2  O   UNL     1      12.030  10.397   6.606  0.00  0.00    -0.274 OA
ATOM      7  N   UNL     1      10.537   9.627   4.993  0.00  0.00    -0.302 N 
ATOM     16  C   UNL     1      11.762   9.692   5.636  0.00  0.00    +0.236 C 
ATOM     38  H   UNL     1      10.462   9.083   4.140  0.00  0.00    +0.150 HD
BRANCH   7  19
ATOM     19  C   UNL     1       9.390  10.406   5.398  0.00  0.00    +0.163 C 
BRANCH  19  26
ATOM      4  O   UNL     1       9.692  11.658   3.338  0.00  0.00    -0.274 OA
ATOM     10  N   UNL     1       7.555  11.283   4.091  0.00  0.00    -0.328 N 
ATOM     26  C   UNL     1       8.928  11.192   4.179  0.00  0.00    +0.231 C 
ATOM     41  H   UNL     1       7.115  11.769   3.318  0.00  0.00    +0.145 HD
ATOM     42  H   UNL     1       6.936  10.873   4.782  0.00  0.00    +0.145 HD
ENDBRANCH  19  26
BRANCH  19  24
ATOM     24  C   UNL     1       8.252   9.529   5.933  0.00  0.00    +0.069 C 
BRANCH  24  25
ATOM      9  N   UNL     1       8.525   6.077   4.699  0.00  0.00    -0.360 N 
ATOM     25  C   UNL     1       8.472   8.063   5.689  0.00  0.00    -0.020 A 
ATOM     28  C   UNL     1       9.009   7.121   6.610  0.00  0.00    +0.003 A 
ATOM     29  C   UNL     1       8.184   7.391   4.523  0.00  0.00    +0.087 A 
ATOM     30  C   UNL     1       9.032   5.883   5.964  0.00  0.00    +0.047 A 
ATOM     33  C   UNL     1       9.479   7.203   7.936  0.00  0.00    +0.010 A 
ATOM     34  C   UNL     1       9.504   4.719   6.581  0.00  0.00    +0.026 A 
ATOM     35  C   UNL     1       9.954   6.047   8.565  0.00  0.00    +0.001 A 
ATOM     36  C   UNL     1       9.965   4.824   7.895  0.00  0.00    +0.002 A 
ATOM     40  H   UNL     1       8.421   5.353   4.001  0.00  0.00    +0.165 HD
ENDBRANCH  24  25
ENDBRANCH  19  24
ENDBRANCH   7  19
ENDBRANCH  11  16
BRANCH  15  17
ATOM     17  C   UNL     1      16.186   9.987   6.248  0.00  0.00    +0.102 C 
BRANCH  17  18
ATOM     18  C   UNL     1      17.356   9.597   5.327  0.00  0.00    -0.029 C 
ATOM     20  C   UNL     1      18.398   8.850   6.179  0.00  0.00    +0.011 C 
ATOM     21  C   UNL     1      16.886   8.664   4.198  0.00  0.00    +0.011 C 
ATOM     22  C   UNL     1      18.022  10.842   4.717  0.00  0.00    +0.011 C 
ENDBRANCH  17  18
ENDBRANCH  15  17
TORSDOF 9
ENDMDL
