REMARK  Name = 45784211
REMARK  5 active torsions:
REMARK  status: ('A' for Active; 'I' for Inactive)
REMARK    1  A    between atoms: N_1  and  C_10
REMARK    2  A    between atoms: C_5  and  C_9
REMARK    3  A    between atoms: C_10  and  C_11
REMARK    4  A    between atoms: C_18  and  C_23
REMARK    5  A    between atoms: C_22  and  C_24
REMARK                            x       y       z     vdW  Elec       q    Type
REMARK                         _______ _______ _______ _____ _____    ______ ____
ROOT
ATOM      1  N   UNL     1      -1.294  -0.224  -0.231  0.00  0.00    -0.297 NA
ATOM      5  C   UNL     1       0.887  -0.816   0.396  0.00  0.00    +0.070 C 
ATOM      6  C   UNL     1       0.156  -0.194   1.599  0.00  0.00    +0.028 C 
ATOM      7  C   UNL     1       0.030  -0.433  -0.819  0.00  0.00    +0.096 C 
ATOM      8  C   UNL     1      -1.046   0.525   1.001  0.00  0.00    +0.085 C 
ENDROOT
BRANCH   5   9
ATOM      2  N   UNL     1       3.341  -1.329   0.274  0.00  0.00    -0.342 N 
ATOM      3  N   UNL     1       2.791   0.817   0.089  0.00  0.00    -0.232 NA
ATOM      9  C   UNL     1       2.334  -0.405   0.249  0.00  0.00    +0.113 A 
ATOM     12  C   UNL     1       4.527  -0.659   0.118  0.00  0.00    +0.066 A 
ATOM     13  C   UNL     1       4.158   0.678   0.005  0.00  0.00    +0.089 A 
ATOM     14  C   UNL     1       5.852  -1.095   0.069  0.00  0.00    +0.031 A 
ATOM     17  C   UNL     1       5.156   1.652  -0.168  0.00  0.00    +0.030 A 
ATOM     18  C   UNL     1       6.832  -0.113  -0.104  0.00  0.00    -0.048 A 
ATOM     19  C   UNL     1       6.492   1.237  -0.221  0.00  0.00    +0.005 A 
ATOM     23  C   UNL     1       8.269  -0.516  -0.166  0.00  0.00    +0.044 C 
ATOM     25  H   UNL     1       3.234  -2.328   0.386  0.00  0.00    +0.167 HD
ENDBRANCH   5   9
BRANCH   1  10
ATOM     10  C   UNL     1      -2.198   0.475  -1.132  0.00  0.00    +0.119 C 
BRANCH  10  11
ATOM     11  C   UNL     1      -3.638   0.304  -0.726  0.00  0.00    -0.033 A 
ATOM     15  C   UNL     1      -4.299  -0.896  -0.986  0.00  0.00    +0.006 A 
ATOM     16  C   UNL     1      -4.311   1.347  -0.089  0.00  0.00    +0.006 A 
ATOM     20  C   UNL     1      -5.633  -1.054  -0.610  0.00  0.00    +0.019 A 
ATOM     21  C   UNL     1      -5.645   1.189   0.287  0.00  0.00    +0.019 A 
ATOM     22  C   UNL     1      -6.306  -0.011   0.027  0.00  0.00    +0.052 A 
BRANCH  22  24
ATOM      4  N   UNL     1      -8.782  -0.305   0.726  0.00  0.00    -0.191 NA
ATOM     24  C   UNL     1      -7.672  -0.173   0.413  0.00  0.00    +0.099 C 
ENDBRANCH  22  24
ENDBRANCH  10  11
ENDBRANCH   1  10
TORSDOF 4
