MODEL 1
REMARK VINA RESULT:      -8.4      0.000      0.000
REMARK  Name = 51137953
REMARK  7 active torsions:
REMARK  status: ('A' for Active; 'I' for Inactive)
REMARK    1  A    between atoms: N_4  and  C_21
REMARK    2  A    between atoms: C_5  and  C_7
REMARK    3  A    between atoms: C_6  and  C_16
REMARK    4  A    between atoms: C_7  and  C_12
REMARK    5  A    between atoms: C_12  and  C_17
REMARK    6  A    between atoms: C_12  and  C_18
REMARK    7  A    between atoms: C_21  and  C_22
REMARK                            x       y       z     vdW  Elec       q    Type
REMARK                         _______ _______ _______ _____ _____    ______ ____
ROOT
ATOM      2  N   UNL     1      -1.511  -0.037  24.774  0.00  0.00    -0.299 NA
ATOM      3  N   UNL     1      -2.200   4.921  25.442  0.00  0.00    -0.360 N 
ATOM      5  C   UNL     1      -2.962   0.179  24.688  0.00  0.00    +0.085 C 
ATOM      6  C   UNL     1      -0.723   0.751  23.837  0.00  0.00    +0.145 C 
ATOM      8  C   UNL     1      -3.451   1.586  25.041  0.00  0.00    -0.021 A 
ATOM      9  C   UNL     1      -2.629   2.749  25.108  0.00  0.00    +0.008 A 
ATOM     10  C   UNL     1      -0.177   2.018  24.490  0.00  0.00    +0.065 C 
ATOM     11  C   UNL     1      -1.230   2.998  24.885  0.00  0.00    -0.020 A 
ATOM     13  C   UNL     1      -3.205   3.983  25.430  0.00  0.00    +0.047 A 
ATOM     14  C   UNL     1      -4.840   1.790  25.249  0.00  0.00    +0.006 A 
ATOM     15  C   UNL     1      -1.011   4.342  25.110  0.00  0.00    +0.087 A 
ATOM     19  C   UNL     1      -4.568   4.154  25.676  0.00  0.00    +0.026 A 
ATOM     20  C   UNL     1      -5.381   3.035  25.567  0.00  0.00    +0.002 A 
ATOM     28  H   UNL     1      -1.180   0.088  25.730  0.00  0.00    +0.123 HD
ATOM     29  H   UNL     1      -2.329   5.902  25.649  0.00  0.00    +0.165 HD
ENDROOT
BRANCH   6  16
ATOM      1  O   UNL     1       0.717  -1.135  24.096  0.00  0.00    -0.274 OA
ATOM      4  N   UNL     1       1.082   0.328  22.321  0.00  0.00    -0.310 N 
ATOM     16  C   UNL     1       0.422  -0.134  23.447  0.00  0.00    +0.231 C 
ATOM     30  H   UNL     1       0.738   1.157  21.846  0.00  0.00    +0.149 HD
BRANCH   4  21
ATOM     21  C   UNL     1       2.235  -0.334  21.754  0.00  0.00    +0.139 C 
BRANCH  21  22
ATOM     22  C   UNL     1       3.444  -0.211  22.636  0.00  0.00    -0.030 A 
ATOM     23  C   UNL     1       4.097   1.015  22.757  0.00  0.00    +0.005 A 
ATOM     24  C   UNL     1       3.913  -1.323  23.335  0.00  0.00    +0.005 A 
ATOM     25  C   UNL     1       5.220   1.130  23.576  0.00  0.00    +0.000 A 
ATOM     26  C   UNL     1       5.036  -1.210  24.154  0.00  0.00    +0.000 A 
ATOM     27  C   UNL     1       5.690   0.017  24.274  0.00  0.00    +0.000 A 
ENDBRANCH  21  22
ENDBRANCH   4  21
ENDBRANCH   6  16
BRANCH   5   7
ATOM      7  C   UNL     1      -3.571  -0.904  25.598  0.00  0.00    +0.026 C 
BRANCH   7  12
ATOM     12  C   UNL     1      -3.641  -2.279  24.928  0.00  0.00    -0.015 C 
ATOM     17  C   UNL     1      -2.221  -2.779  24.652  0.00  0.00    +0.007 C 
ATOM     18  C   UNL     1      -4.444  -2.260  23.627  0.00  0.00    +0.007 C 
ENDBRANCH   7  12
ENDBRANCH   5   7
TORSDOF 5
ENDMDL
MODEL 2
REMARK VINA RESULT:      -7.7     14.450     16.291
REMARK  Name = 51137953
REMARK  7 active torsions:
REMARK  status: ('A' for Active; 'I' for Inactive)
REMARK    1  A    between atoms: N_4  and  C_21
REMARK    2  A    between atoms: C_5  and  C_7
REMARK    3  A    between atoms: C_6  and  C_16
REMARK    4  A    between atoms: C_7  and  C_12
REMARK    5  A    between atoms: C_12  and  C_17
REMARK    6  A    between atoms: C_12  and  C_18
REMARK    7  A    between atoms: C_21  and  C_22
REMARK                            x       y       z     vdW  Elec       q    Type
REMARK                         _______ _______ _______ _____ _____    ______ ____
ROOT
ATOM      2  N   UNL     1      -4.840 -10.677  14.810  0.00  0.00    -0.299 NA
ATOM      3  N   UNL     1      -4.962 -11.819  19.728  0.00  0.00    -0.360 N 
ATOM      5  C   UNL     1      -6.008  -9.971  15.354  0.00  0.00    +0.085 C 
ATOM      6  C   UNL     1      -3.580 -10.367  15.470  0.00  0.00    +0.145 C 
ATOM      8  C   UNL     1      -6.375 -10.301  16.804  0.00  0.00    -0.021 A 
ATOM      9  C   UNL     1      -5.515 -10.946  17.741  0.00  0.00    +0.008 A 
ATOM     10  C   UNL     1      -3.227 -11.411  16.526  0.00  0.00    +0.065 C 
ATOM     11  C   UNL     1      -4.167 -11.442  17.684  0.00  0.00    -0.020 A 
ATOM     13  C   UNL     1      -5.968 -11.178  19.045  0.00  0.00    +0.047 A 
ATOM     14  C   UNL     1      -7.634  -9.877  17.300  0.00  0.00    +0.006 A 
ATOM     15  C   UNL     1      -3.872 -11.977  18.922  0.00  0.00    +0.087 A 
ATOM     19  C   UNL     1      -7.230 -10.793  19.500  0.00  0.00    +0.026 A 
ATOM     20  C   UNL     1      -8.054 -10.124  18.606  0.00  0.00    +0.002 A 
ATOM     28  H   UNL     1      -5.003 -11.683  14.782  0.00  0.00    +0.123 HD
ATOM     29  H   UNL     1      -5.017 -12.113  20.693  0.00  0.00    +0.165 HD
ENDROOT
BRANCH   6  16
ATOM      1  O   UNL     1      -1.378 -10.093  14.591  0.00  0.00    -0.274 OA
ATOM      4  N   UNL     1      -3.085 -10.781  13.164  0.00  0.00    -0.310 N 
ATOM     16  C   UNL     1      -2.550 -10.399  14.382  0.00  0.00    +0.231 C 
ATOM     30  H   UNL     1      -4.066 -11.036  13.108  0.00  0.00    +0.149 HD
BRANCH   4  21
ATOM     21  C   UNL     1      -2.304 -10.868  11.951  0.00  0.00    +0.139 C 
BRANCH  21  22
ATOM     22  C   UNL     1      -3.122 -10.554  10.732  0.00  0.00    -0.030 A 
ATOM     23  C   UNL     1      -3.213  -9.240  10.272  0.00  0.00    +0.005 A 
ATOM     24  C   UNL     1      -3.792 -11.576  10.059  0.00  0.00    +0.005 A 
ATOM     25  C   UNL     1      -3.973  -8.948   9.140  0.00  0.00    +0.000 A 
ATOM     26  C   UNL     1      -4.552 -11.284   8.927  0.00  0.00    +0.000 A 
ATOM     27  C   UNL     1      -4.643  -9.969   8.468  0.00  0.00    +0.000 A 
ENDBRANCH  21  22
ENDBRANCH   4  21
ENDBRANCH   6  16
BRANCH   5   7
ATOM      7  C   UNL     1      -7.149 -10.289  14.369  0.00  0.00    +0.026 C 
BRANCH   7  12
ATOM     12  C   UNL     1      -6.660 -10.489  12.933  0.00  0.00    -0.015 C 
ATOM     17  C   UNL     1      -6.625  -9.137  12.217  0.00  0.00    +0.007 C 
ATOM     18  C   UNL     1      -7.531 -11.468  12.145  0.00  0.00    +0.007 C 
ENDBRANCH   7  12
ENDBRANCH   5   7
TORSDOF 5
ENDMDL
MODEL 3
REMARK VINA RESULT:      -7.6     14.186     18.050
REMARK  Name = 51137953
REMARK  7 active torsions:
REMARK  status: ('A' for Active; 'I' for Inactive)
REMARK    1  A    between atoms: N_4  and  C_21
REMARK    2  A    between atoms: C_5  and  C_7
REMARK    3  A    between atoms: C_6  and  C_16
REMARK    4  A    between atoms: C_7  and  C_12
REMARK    5  A    between atoms: C_12  and  C_17
REMARK    6  A    between atoms: C_12  and  C_18
REMARK    7  A    between atoms: C_21  and  C_22
REMARK                            x       y       z     vdW  Elec       q    Type
REMARK                         _______ _______ _______ _____ _____    ______ ____
ROOT
ATOM      2  N   UNL     1      14.736   8.838  19.895  0.00  0.00    -0.299 NA
ATOM      3  N   UNL     1      10.391   7.587  22.145  0.00  0.00    -0.360 N 
ATOM      5  C   UNL     1      14.491   9.883  20.898  0.00  0.00    +0.085 C 
ATOM      6  C   UNL     1      14.771   7.482  20.425  0.00  0.00    +0.145 C 
ATOM      8  C   UNL     1      13.130   9.833  21.599  0.00  0.00    -0.021 A 
ATOM      9  C   UNL     1      12.255   8.708  21.612  0.00  0.00    +0.008 A 
ATOM     10  C   UNL     1      13.426   6.779  20.258  0.00  0.00    +0.065 C 
ATOM     11  C   UNL     1      12.323   7.382  21.061  0.00  0.00    -0.020 A 
ATOM     13  C   UNL     1      11.041   8.788  22.305  0.00  0.00    +0.047 A 
ATOM     14  C   UNL     1      12.719  10.954  22.364  0.00  0.00    +0.006 A 
ATOM     15  C   UNL     1      11.155   6.733  21.405  0.00  0.00    +0.087 A 
ATOM     19  C   UNL     1      10.634   9.918  23.014  0.00  0.00    +0.026 A 
ATOM     20  C   UNL     1      11.502  11.000  23.043  0.00  0.00    +0.002 A 
ATOM     28  H   UNL     1      14.076   8.914  19.122  0.00  0.00    +0.123 HD
ATOM     29  H   UNL     1       9.486   7.365  22.536  0.00  0.00    +0.165 HD
ENDROOT
BRANCH   6  16
ATOM      1  O   UNL     1      15.550   6.313  18.497  0.00  0.00    -0.274 OA
ATOM      4  N   UNL     1      17.020   6.678  20.265  0.00  0.00    -0.310 N 
ATOM     16  C   UNL     1      15.805   6.768  19.609  0.00  0.00    +0.231 C 
ATOM     30  H   UNL     1      17.128   7.112  21.177  0.00  0.00    +0.149 HD
BRANCH   4  21
ATOM     21  C   UNL     1      18.175   6.016  19.702  0.00  0.00    +0.139 C 
BRANCH  21  22
ATOM     22  C   UNL     1      19.298   5.905  20.692  0.00  0.00    -0.030 A 
ATOM     23  C   UNL     1      20.360   5.034  20.448  0.00  0.00    +0.005 A 
ATOM     24  C   UNL     1      19.279   6.672  21.857  0.00  0.00    +0.005 A 
ATOM     25  C   UNL     1      21.403   4.930  21.368  0.00  0.00    +0.000 A 
ATOM     26  C   UNL     1      20.321   6.569  22.778  0.00  0.00    +0.000 A 
ATOM     27  C   UNL     1      21.383   5.697  22.533  0.00  0.00    +0.000 A 
ENDBRANCH  21  22
ENDBRANCH   4  21
ENDBRANCH   6  16
BRANCH   5   7
ATOM      7  C   UNL     1      14.719  11.207  20.144  0.00  0.00    +0.026 C 
BRANCH   7  12
ATOM     12  C   UNL     1      13.607  11.523  19.141  0.00  0.00    -0.015 C 
ATOM     17  C   UNL     1      14.138  11.330  17.719  0.00  0.00    +0.007 C 
ATOM     18  C   UNL     1      13.057  12.941  19.299  0.00  0.00    +0.007 C 
ENDBRANCH   7  12
ENDBRANCH   5   7
TORSDOF 5
ENDMDL
MODEL 4
REMARK VINA RESULT:      -7.6     14.041     15.926
REMARK  Name = 51137953
REMARK  7 active torsions:
REMARK  status: ('A' for Active; 'I' for Inactive)
REMARK    1  A    between atoms: N_4  and  C_21
REMARK    2  A    between atoms: C_5  and  C_7
REMARK    3  A    between atoms: C_6  and  C_16
REMARK    4  A    between atoms: C_7  and  C_12
REMARK    5  A    between atoms: C_12  and  C_17
REMARK    6  A    between atoms: C_12  and  C_18
REMARK    7  A    between atoms: C_21  and  C_22
REMARK                            x       y       z     vdW  Elec       q    Type
REMARK                         _______ _______ _______ _____ _____    ______ ____
ROOT
ATOM      2  N   UNL     1     -13.184   9.454  21.213  0.00  0.00    -0.299 NA
ATOM      3  N   UNL     1     -10.576  11.460  17.382  0.00  0.00    -0.360 N 
ATOM      5  C   UNL     1     -12.493   8.329  20.569  0.00  0.00    +0.085 C 
ATOM      6  C   UNL     1     -12.310  10.531  21.657  0.00  0.00    +0.145 C 
ATOM      8  C   UNL     1     -11.771   8.649  19.257  0.00  0.00    -0.021 A 
ATOM      9  C   UNL     1     -11.435   9.958  18.803  0.00  0.00    +0.008 A 
ATOM     10  C   UNL     1     -12.250  11.663  20.635  0.00  0.00    +0.065 C 
ATOM     11  C   UNL     1     -11.611  11.279  19.343  0.00  0.00    -0.020 A 
ATOM     13  C   UNL     1     -10.760  10.113  17.587  0.00  0.00    +0.047 A 
ATOM     14  C   UNL     1     -11.326   7.573  18.447  0.00  0.00    +0.006 A 
ATOM     15  C   UNL     1     -11.078  12.169  18.434  0.00  0.00    +0.087 A 
ATOM     19  C   UNL     1     -10.370   9.042  16.782  0.00  0.00    +0.026 A 
ATOM     20  C   UNL     1     -10.655   7.763  17.241  0.00  0.00    +0.002 A 
ATOM     28  H   UNL     1     -13.933   9.809  20.620  0.00  0.00    +0.123 HD
ATOM     29  H   UNL     1     -10.118  11.863  16.577  0.00  0.00    +0.165 HD
ENDROOT
BRANCH   6  16
ATOM      1  O   UNL     1     -14.100  10.804  23.212  0.00  0.00    -0.274 OA
ATOM      4  N   UNL     1     -12.047  11.804  23.669  0.00  0.00    -0.310 N 
ATOM     16  C   UNL     1     -12.930  11.042  22.922  0.00  0.00    +0.231 C 
ATOM     30  H   UNL     1     -11.090  11.918  23.346  0.00  0.00    +0.149 HD
BRANCH   4  21
ATOM     21  C   UNL     1     -12.406  12.430  24.920  0.00  0.00    +0.139 C 
BRANCH  21  22
ATOM     22  C   UNL     1     -12.053  11.572  26.100  0.00  0.00    -0.030 A 
ATOM     23  C   UNL     1     -12.771  11.691  27.289  0.00  0.00    +0.005 A 
ATOM     24  C   UNL     1     -11.006  10.655  26.007  0.00  0.00    +0.005 A 
ATOM     25  C   UNL     1     -12.443  10.894  28.386  0.00  0.00    +0.000 A 
ATOM     26  C   UNL     1     -10.677   9.857  27.102  0.00  0.00    +0.000 A 
ATOM     27  C   UNL     1     -11.396   9.977  28.293  0.00  0.00    +0.000 A 
ENDBRANCH  21  22
ENDBRANCH   4  21
ENDBRANCH   6  16
BRANCH   5   7
ATOM      7  C   UNL     1     -13.580   7.251  20.399  0.00  0.00    +0.026 C 
BRANCH   7  12
ATOM     12  C   UNL     1     -13.764   6.384  21.647  0.00  0.00    -0.015 C 
ATOM     17  C   UNL     1     -12.504   5.545  21.869  0.00  0.00    +0.007 C 
ATOM     18  C   UNL     1     -14.985   5.468  21.553  0.00  0.00    +0.007 C 
ENDBRANCH   7  12
ENDBRANCH   5   7
TORSDOF 5
ENDMDL
MODEL 5
REMARK VINA RESULT:      -7.6     14.687     16.561
REMARK  Name = 51137953
REMARK  7 active torsions:
REMARK  status: ('A' for Active; 'I' for Inactive)
REMARK    1  A    between atoms: N_4  and  C_21
REMARK    2  A    between atoms: C_5  and  C_7
REMARK    3  A    between atoms: C_6  and  C_16
REMARK    4  A    between atoms: C_7  and  C_12
REMARK    5  A    between atoms: C_12  and  C_17
REMARK    6  A    between atoms: C_12  and  C_18
REMARK    7  A    between atoms: C_21  and  C_22
REMARK                            x       y       z     vdW  Elec       q    Type
REMARK                         _______ _______ _______ _____ _____    ______ ____
ROOT
ATOM      2  N   UNL     1     -15.196   2.801  28.877  0.00  0.00    -0.299 NA
ATOM      3  N   UNL     1     -16.000   6.513  32.206  0.00  0.00    -0.360 N 
ATOM      5  C   UNL     1     -15.019   2.193  30.203  0.00  0.00    +0.085 C 
ATOM      6  C   UNL     1     -16.486   3.444  28.671  0.00  0.00    +0.145 C 
ATOM      8  C   UNL     1     -15.031   3.159  31.390  0.00  0.00    -0.021 A 
ATOM      9  C   UNL     1     -15.522   4.497  31.355  0.00  0.00    +0.008 A 
ATOM     10  C   UNL     1     -16.408   4.949  28.918  0.00  0.00    +0.065 C 
ATOM     11  C   UNL     1     -16.119   5.316  30.334  0.00  0.00    -0.020 A 
ATOM     13  C   UNL     1     -15.489   5.275  32.518  0.00  0.00    +0.047 A 
ATOM     14  C   UNL     1     -14.594   2.687  32.655  0.00  0.00    +0.006 A 
ATOM     15  C   UNL     1     -16.388   6.546  30.899  0.00  0.00    +0.087 A 
ATOM     19  C   UNL     1     -15.012   4.806  33.743  0.00  0.00    +0.026 A 
ATOM     20  C   UNL     1     -14.575   3.489  33.795  0.00  0.00    +0.002 A 
ATOM     28  H   UNL     1     -14.429   3.437  28.663  0.00  0.00    +0.123 HD
ATOM     29  H   UNL     1     -16.092   7.279  32.858  0.00  0.00    +0.165 HD
ENDROOT
BRANCH   6  16
ATOM      1  O   UNL     1     -17.933   2.813  26.882  0.00  0.00    -0.274 OA
ATOM      4  N   UNL     1     -15.742   3.432  26.394  0.00  0.00    -0.310 N 
ATOM     16  C   UNL     1     -16.820   3.198  27.231  0.00  0.00    +0.231 C 
ATOM     30  H   UNL     1     -14.870   3.773  26.788  0.00  0.00    +0.149 HD
BRANCH   4  21
ATOM     21  C   UNL     1     -15.798   3.246  24.963  0.00  0.00    +0.139 C 
BRANCH  21  22
ATOM     22  C   UNL     1     -15.680   4.546  24.222  0.00  0.00    -0.030 A 
ATOM     23  C   UNL     1     -14.522   4.835  23.500  0.00  0.00    +0.005 A 
ATOM     24  C   UNL     1     -16.730   5.465  24.254  0.00  0.00    +0.005 A 
ATOM     25  C   UNL     1     -14.413   6.044  22.812  0.00  0.00    +0.000 A 
ATOM     26  C   UNL     1     -16.621   6.673  23.566  0.00  0.00    +0.000 A 
ATOM     27  C   UNL     1     -15.461   6.962  22.845  0.00  0.00    +0.000 A 
ENDBRANCH  21  22
ENDBRANCH   4  21
ENDBRANCH   6  16
BRANCH   5   7
ATOM      7  C   UNL     1     -13.700   1.404  30.096  0.00  0.00    +0.026 C 
BRANCH   7  12
ATOM     12  C   UNL     1     -13.855  -0.073  30.468  0.00  0.00    -0.015 C 
ATOM     17  C   UNL     1     -13.344  -0.940  29.315  0.00  0.00    +0.007 C 
ATOM     18  C   UNL     1     -15.300  -0.450  30.796  0.00  0.00    +0.007 C 
ENDBRANCH   7  12
ENDBRANCH   5   7
TORSDOF 5
ENDMDL
MODEL 6
REMARK VINA RESULT:      -7.5     14.171     17.157
REMARK  Name = 51137953
REMARK  7 active torsions:
REMARK  status: ('A' for Active; 'I' for Inactive)
REMARK    1  A    between atoms: N_4  and  C_21
REMARK    2  A    between atoms: C_5  and  C_7
REMARK    3  A    between atoms: C_6  and  C_16
REMARK    4  A    between atoms: C_7  and  C_12
REMARK    5  A    between atoms: C_12  and  C_17
REMARK    6  A    between atoms: C_12  and  C_18
REMARK    7  A    between atoms: C_21  and  C_22
REMARK                            x       y       z     vdW  Elec       q    Type
REMARK                         _______ _______ _______ _____ _____    ______ ____
ROOT
ATOM      2  N   UNL     1      -6.145  -9.506  14.954  0.00  0.00    -0.299 NA
ATOM      3  N   UNL     1      -1.480 -11.402  15.339  0.00  0.00    -0.360 N 
ATOM      5  C   UNL     1      -5.908 -10.239  13.703  0.00  0.00    +0.085 C 
ATOM      6  C   UNL     1      -5.980 -10.299  16.164  0.00  0.00    +0.145 C 
ATOM      8  C   UNL     1      -4.484 -10.760  13.492  0.00  0.00    -0.021 A 
ATOM      9  C   UNL     1      -3.497 -10.891  14.512  0.00  0.00    +0.008 A 
ATOM     10  C   UNL     1      -4.593 -10.111  16.775  0.00  0.00    +0.065 C 
ATOM     11  C   UNL     1      -3.482 -10.632  15.927  0.00  0.00    -0.020 A 
ATOM     13  C   UNL     1      -2.232 -11.396  14.189  0.00  0.00    +0.047 A 
ATOM     14  C   UNL     1      -4.115 -11.226  12.203  0.00  0.00    +0.006 A 
ATOM     15  C   UNL     1      -2.222 -10.951  16.391  0.00  0.00    +0.087 A 
ATOM     19  C   UNL     1      -1.875 -11.807  12.904  0.00  0.00    +0.026 A 
ATOM     20  C   UNL     1      -2.846 -11.725  11.915  0.00  0.00    +0.002 A 
ATOM     28  H   UNL     1      -5.581  -8.657  14.991  0.00  0.00    +0.123 HD
ATOM     29  H   UNL     1      -0.520 -11.714  15.398  0.00  0.00    +0.165 HD
ENDROOT
BRANCH   6  16
ATOM      1  O   UNL     1      -6.999 -10.073  18.310  0.00  0.00    -0.274 OA
ATOM      4  N   UNL     1      -7.952  -8.980  16.488  0.00  0.00    -0.310 N 
ATOM     16  C   UNL     1      -7.013  -9.779  17.117  0.00  0.00    +0.231 C 
ATOM     30  H   UNL     1      -7.855  -8.782  15.497  0.00  0.00    +0.149 HD
BRANCH   4  21
ATOM     21  C   UNL     1      -9.066  -8.375  17.182  0.00  0.00    +0.139 C 
BRANCH  21  22
ATOM     22  C   UNL     1     -10.142  -7.929  16.235  0.00  0.00    -0.030 A 
ATOM     23  C   UNL     1     -10.349  -8.617  15.040  0.00  0.00    +0.005 A 
ATOM     24  C   UNL     1     -10.936  -6.826  16.552  0.00  0.00    +0.005 A 
ATOM     25  C   UNL     1     -11.349  -8.203  14.160  0.00  0.00    +0.000 A 
ATOM     26  C   UNL     1     -11.936  -6.411  15.673  0.00  0.00    +0.000 A 
ATOM     27  C   UNL     1     -12.142  -7.100  14.476  0.00  0.00    +0.000 A 
ENDBRANCH  21  22
ENDBRANCH   4  21
ENDBRANCH   6  16
BRANCH   5   7
ATOM      7  C   UNL     1      -6.353  -9.268  12.593  0.00  0.00    +0.026 C 
BRANCH   7  12
ATOM     12  C   UNL     1      -7.756  -9.570  12.061  0.00  0.00    -0.015 C 
ATOM     17  C   UNL     1      -8.080 -11.046  12.302  0.00  0.00    +0.007 C 
ATOM     18  C   UNL     1      -7.905  -9.244  10.574  0.00  0.00    +0.007 C 
ENDBRANCH   7  12
ENDBRANCH   5   7
TORSDOF 5
ENDMDL
MODEL 7
REMARK VINA RESULT:      -7.4     14.590     16.792
REMARK  Name = 51137953
REMARK  7 active torsions:
REMARK  status: ('A' for Active; 'I' for Inactive)
REMARK    1  A    between atoms: N_4  and  C_21
REMARK    2  A    between atoms: C_5  and  C_7
REMARK    3  A    between atoms: C_6  and  C_16
REMARK    4  A    between atoms: C_7  and  C_12
REMARK    5  A    between atoms: C_12  and  C_17
REMARK    6  A    between atoms: C_12  and  C_18
REMARK    7  A    between atoms: C_21  and  C_22
REMARK                            x       y       z     vdW  Elec       q    Type
REMARK                         _______ _______ _______ _____ _____    ______ ____
ROOT
ATOM      2  N   UNL     1      -6.414 -10.987  15.774  0.00  0.00    -0.299 NA
ATOM      3  N   UNL     1      -3.083 -10.355  12.031  0.00  0.00    -0.360 N 
ATOM      5  C   UNL     1      -5.114 -10.786  16.428  0.00  0.00    +0.085 C 
ATOM      6  C   UNL     1      -6.812  -9.918  14.869  0.00  0.00    +0.145 C 
ATOM      8  C   UNL     1      -3.896 -10.751  15.500  0.00  0.00    -0.021 A 
ATOM      9  C   UNL     1      -3.945 -10.560  14.088  0.00  0.00    +0.008 A 
ATOM     10  C   UNL     1      -6.473 -10.254  13.419  0.00  0.00    +0.065 C 
ATOM     11  C   UNL     1      -5.009 -10.343  13.145  0.00  0.00    -0.020 A 
ATOM     13  C   UNL     1      -2.754 -10.535  13.354  0.00  0.00    +0.047 A 
ATOM     14  C   UNL     1      -2.602 -10.839  16.074  0.00  0.00    +0.006 A 
ATOM     15  C   UNL     1      -4.435 -10.232  11.895  0.00  0.00    +0.087 A 
ATOM     19  C   UNL     1      -1.491 -10.669  13.933  0.00  0.00    +0.026 A 
ATOM     20  C   UNL     1      -1.434 -10.810  15.313  0.00  0.00    +0.002 A 
ATOM     28  H   UNL     1      -6.452 -11.894  15.311  0.00  0.00    +0.123 HD
ATOM     29  H   UNL     1      -2.417 -10.302  11.273  0.00  0.00    +0.165 HD
ENDROOT
BRANCH   6  16
ATOM      1  O   UNL     1      -9.067 -10.416  14.269  0.00  0.00    -0.274 OA
ATOM      4  N   UNL     1      -8.667  -8.964  16.045  0.00  0.00    -0.310 N 
ATOM     16  C   UNL     1      -8.300  -9.813  15.015  0.00  0.00    +0.231 C 
ATOM     30  H   UNL     1      -7.947  -8.533  16.617  0.00  0.00    +0.149 HD
BRANCH   4  21
ATOM     21  C   UNL     1     -10.044  -8.674  16.377  0.00  0.00    +0.139 C 
BRANCH  21  22
ATOM     22  C   UNL     1     -10.464  -9.338  17.656  0.00  0.00    -0.030 A 
ATOM     23  C   UNL     1      -9.547 -10.094  18.385  0.00  0.00    +0.005 A 
ATOM     24  C   UNL     1     -11.774  -9.197  18.117  0.00  0.00    +0.005 A 
ATOM     25  C   UNL     1      -9.937 -10.710  19.574  0.00  0.00    +0.000 A 
ATOM     26  C   UNL     1     -12.165  -9.813  19.305  0.00  0.00    +0.000 A 
ATOM     27  C   UNL     1     -11.246 -10.570  20.033  0.00  0.00    +0.000 A 
ENDBRANCH  21  22
ENDBRANCH   4  21
ENDBRANCH   6  16
BRANCH   5   7
ATOM      7  C   UNL     1      -5.027 -11.911  17.475  0.00  0.00    +0.026 C 
BRANCH   7  12
ATOM     12  C   UNL     1      -4.738 -11.394  18.887  0.00  0.00    -0.015 C 
ATOM     17  C   UNL     1      -3.638 -12.247  19.522  0.00  0.00    +0.007 C 
ATOM     18  C   UNL     1      -5.978 -11.400  19.782  0.00  0.00    +0.007 C 
ENDBRANCH   7  12
ENDBRANCH   5   7
TORSDOF 5
ENDMDL
MODEL 8
REMARK VINA RESULT:      -7.3     15.278     19.161
REMARK  Name = 51137953
REMARK  7 active torsions:
REMARK  status: ('A' for Active; 'I' for Inactive)
REMARK    1  A    between atoms: N_4  and  C_21
REMARK    2  A    between atoms: C_5  and  C_7
REMARK    3  A    between atoms: C_6  and  C_16
REMARK    4  A    between atoms: C_7  and  C_12
REMARK    5  A    between atoms: C_12  and  C_17
REMARK    6  A    between atoms: C_12  and  C_18
REMARK    7  A    between atoms: C_21  and  C_22
REMARK                            x       y       z     vdW  Elec       q    Type
REMARK                         _______ _______ _______ _____ _____    ______ ____
ROOT
ATOM      2  N   UNL     1      15.977   8.334  21.187  0.00  0.00    -0.299 NA
ATOM      3  N   UNL     1      11.948   7.494  18.261  0.00  0.00    -0.360 N 
ATOM      5  C   UNL     1      14.807   8.578  22.041  0.00  0.00    +0.085 C 
ATOM      6  C   UNL     1      16.018   7.014  20.574  0.00  0.00    +0.145 C 
ATOM      8  C   UNL     1      13.449   8.567  21.334  0.00  0.00    -0.021 A 
ATOM      9  C   UNL     1      13.201   8.023  20.040  0.00  0.00    +0.008 A 
ATOM     10  C   UNL     1      15.474   7.040  19.148  0.00  0.00    +0.065 C 
ATOM     11  C   UNL     1      14.020   7.361  19.061  0.00  0.00    -0.020 A 
ATOM     13  C   UNL     1      11.905   8.064  19.511  0.00  0.00    +0.047 A 
ATOM     14  C   UNL     1      12.317   9.064  22.031  0.00  0.00    +0.006 A 
ATOM     15  C   UNL     1      13.211   7.063  17.983  0.00  0.00    +0.087 A 
ATOM     19  C   UNL     1      10.813   8.599  20.195  0.00  0.00    +0.026 A 
ATOM     20  C   UNL     1      11.039   9.089  21.474  0.00  0.00    +0.002 A 
ATOM     28  H   UNL     1      16.077   9.068  20.487  0.00  0.00    +0.123 HD
ATOM     29  H   UNL     1      11.152   7.394  17.646  0.00  0.00    +0.165 HD
ENDROOT
BRANCH   6  16
ATOM      1  O   UNL     1      17.975   6.096  19.563  0.00  0.00    -0.274 OA
ATOM      4  N   UNL     1      18.121   6.964  21.719  0.00  0.00    -0.310 N 
ATOM     16  C   UNL     1      17.469   6.642  20.540  0.00  0.00    +0.231 C 
ATOM     30  H   UNL     1      17.610   7.437  22.458  0.00  0.00    +0.149 HD
BRANCH   4  21
ATOM     21  C   UNL     1      19.520   6.687  21.949  0.00  0.00    +0.139 C 
BRANCH  21  22
ATOM     22  C   UNL     1      20.406   7.752  21.370  0.00  0.00    -0.030 A 
ATOM     23  C   UNL     1      21.522   7.397  20.613  0.00  0.00    +0.005 A 
ATOM     24  C   UNL     1      20.112   9.099  21.589  0.00  0.00    +0.005 A 
ATOM     25  C   UNL     1      22.345   8.387  20.075  0.00  0.00    +0.000 A 
ATOM     26  C   UNL     1      20.934  10.089  21.052  0.00  0.00    +0.000 A 
ATOM     27  C   UNL     1      22.051   9.732  20.295  0.00  0.00    +0.000 A 
ENDBRANCH  21  22
ENDBRANCH   4  21
ENDBRANCH   6  16
BRANCH   5   7
ATOM      7  C   UNL     1      15.103   9.923  22.731  0.00  0.00    +0.026 C 
BRANCH   7  12
ATOM     12  C   UNL     1      15.805  10.925  21.812  0.00  0.00    -0.015 C 
ATOM     17  C   UNL     1      17.001  11.534  22.548  0.00  0.00    +0.007 C 
ATOM     18  C   UNL     1      14.873  12.039  21.333  0.00  0.00    +0.007 C 
ENDBRANCH   7  12
ENDBRANCH   5   7
TORSDOF 5
ENDMDL
MODEL 9
REMARK VINA RESULT:      -7.3     14.414     16.599
REMARK  Name = 51137953
REMARK  7 active torsions:
REMARK  status: ('A' for Active; 'I' for Inactive)
REMARK    1  A    between atoms: N_4  and  C_21
REMARK    2  A    between atoms: C_5  and  C_7
REMARK    3  A    between atoms: C_6  and  C_16
REMARK    4  A    between atoms: C_7  and  C_12
REMARK    5  A    between atoms: C_12  and  C_17
REMARK    6  A    between atoms: C_12  and  C_18
REMARK    7  A    between atoms: C_21  and  C_22
REMARK                            x       y       z     vdW  Elec       q    Type
REMARK                         _______ _______ _______ _____ _____    ______ ____
ROOT
ATOM      2  N   UNL     1      -5.007  -9.982  15.041  0.00  0.00    -0.299 NA
ATOM      3  N   UNL     1      -7.823 -10.297  19.222  0.00  0.00    -0.360 N 
ATOM      5  C   UNL     1      -4.305 -10.923  15.925  0.00  0.00    +0.085 C 
ATOM      6  C   UNL     1      -6.385 -10.344  14.741  0.00  0.00    +0.145 C 
ATOM      8  C   UNL     1      -4.864 -11.053  17.344  0.00  0.00    -0.021 A 
ATOM      9  C   UNL     1      -6.158 -10.621  17.759  0.00  0.00    +0.008 A 
ATOM     10  C   UNL     1      -7.369  -9.613  15.651  0.00  0.00    +0.065 C 
ATOM     11  C   UNL     1      -7.268 -10.002  17.087  0.00  0.00    -0.020 A 
ATOM     13  C   UNL     1      -6.555 -10.812  19.088  0.00  0.00    +0.047 A 
ATOM     14  C   UNL     1      -4.084 -11.719  18.323  0.00  0.00    +0.006 A 
ATOM     15  C   UNL     1      -8.264  -9.813  18.025  0.00  0.00    +0.087 A 
ATOM     19  C   UNL     1      -5.753 -11.429  20.048  0.00  0.00    +0.026 A 
ATOM     20  C   UNL     1      -4.510 -11.893  19.639  0.00  0.00    +0.002 A 
ATOM     28  H   UNL     1      -4.947  -9.030  15.400  0.00  0.00    +0.123 HD
ATOM     29  H   UNL     1      -8.356 -10.295  20.080  0.00  0.00    +0.165 HD
ENDROOT
BRANCH   6  16
ATOM      1  O   UNL     1      -7.723  -9.903  12.815  0.00  0.00    -0.274 OA
ATOM      4  N   UNL     1      -5.425  -9.548  12.696  0.00  0.00    -0.310 N 
ATOM     16  C   UNL     1      -6.606  -9.906  13.325  0.00  0.00    +0.231 C 
ATOM     30  H   UNL     1      -4.556  -9.566  13.221  0.00  0.00    +0.149 HD
BRANCH   4  21
ATOM     21  C   UNL     1      -5.363  -9.111  11.320  0.00  0.00    +0.139 C 
BRANCH  21  22
ATOM     22  C   UNL     1      -4.915 -10.210  10.401  0.00  0.00    -0.030 A 
ATOM     23  C   UNL     1      -5.234 -10.158   9.045  0.00  0.00    +0.005 A 
ATOM     24  C   UNL     1      -4.179 -11.283  10.905  0.00  0.00    +0.005 A 
ATOM     25  C   UNL     1      -4.817 -11.179   8.190  0.00  0.00    +0.000 A 
ATOM     26  C   UNL     1      -3.763 -12.304  10.051  0.00  0.00    +0.000 A 
ATOM     27  C   UNL     1      -4.082 -12.252   8.694  0.00  0.00    +0.000 A 
ENDBRANCH  21  22
ENDBRANCH   4  21
ENDBRANCH   6  16
BRANCH   5   7
ATOM      7  C   UNL     1      -2.839 -10.450  15.909  0.00  0.00    +0.026 C 
BRANCH   7  12
ATOM     12  C   UNL     1      -1.986 -11.181  14.869  0.00  0.00    -0.015 C 
ATOM     17  C   UNL     1      -1.833 -10.297  13.629  0.00  0.00    +0.007 C 
ATOM     18  C   UNL     1      -2.576 -12.534  14.468  0.00  0.00    +0.007 C 
ENDBRANCH   7  12
ENDBRANCH   5   7
TORSDOF 5
ENDMDL
MODEL 10
REMARK VINA RESULT:      -7.3     22.398     26.418
REMARK  Name = 51137953
REMARK  7 active torsions:
REMARK  status: ('A' for Active; 'I' for Inactive)
REMARK    1  A    between atoms: N_4  and  C_21
REMARK    2  A    between atoms: C_5  and  C_7
REMARK    3  A    between atoms: C_6  and  C_16
REMARK    4  A    between atoms: C_7  and  C_12
REMARK    5  A    between atoms: C_12  and  C_17
REMARK    6  A    between atoms: C_12  and  C_18
REMARK    7  A    between atoms: C_21  and  C_22
REMARK                            x       y       z     vdW  Elec       q    Type
REMARK                         _______ _______ _______ _____ _____    ______ ____
ROOT
ATOM      2  N   UNL     1      12.975   6.218   3.345  0.00  0.00    -0.299 NA
ATOM      3  N   UNL     1      16.500   4.996  -0.060  0.00  0.00    -0.360 N 
ATOM      5  C   UNL     1      13.562   7.491   2.904  0.00  0.00    +0.085 C 
ATOM      6  C   UNL     1      12.432   5.396   2.272  0.00  0.00    +0.145 C 
ATOM      8  C   UNL     1      14.792   7.383   1.998  0.00  0.00    -0.021 A 
ATOM      9  C   UNL     1      15.192   6.211   1.293  0.00  0.00    +0.008 A 
ATOM     10  C   UNL     1      13.428   4.330   1.822  0.00  0.00    +0.065 C 
ATOM     11  C   UNL     1      14.655   4.882   1.178  0.00  0.00    -0.020 A 
ATOM     13  C   UNL     1      16.333   6.248   0.483  0.00  0.00    +0.047 A 
ATOM     14  C   UNL     1      15.568   8.548   1.765  0.00  0.00    +0.006 A 
ATOM     15  C   UNL     1      15.494   4.169   0.345  0.00  0.00    +0.087 A 
ATOM     19  C   UNL     1      17.110   7.394   0.303  0.00  0.00    +0.026 A 
ATOM     20  C   UNL     1      16.699   8.551   0.950  0.00  0.00    +0.002 A 
ATOM     28  H   UNL     1      13.635   5.690   3.914  0.00  0.00    +0.123 HD
ATOM     29  H   UNL     1      17.250   4.735  -0.684  0.00  0.00    +0.165 HD
ENDROOT
BRANCH   6  16
ATOM      1  O   UNL     1      10.440   4.086   2.172  0.00  0.00    -0.274 OA
ATOM      4  N   UNL     1      11.123   4.945   4.226  0.00  0.00    -0.310 N 
ATOM     16  C   UNL     1      11.228   4.727   2.863  0.00  0.00    +0.231 C 
ATOM     30  H   UNL     1      11.847   5.473   4.704  0.00  0.00    +0.149 HD
BRANCH   4  21
ATOM     21  C   UNL     1      10.038   4.426   5.028  0.00  0.00    +0.139 C 
BRANCH  21  22
ATOM     22  C   UNL     1       9.589   5.409   6.070  0.00  0.00    -0.030 A 
ATOM     23  C   UNL     1       8.796   6.497   5.707  0.00  0.00    +0.005 A 
ATOM     24  C   UNL     1       9.966   5.235   7.402  0.00  0.00    +0.005 A 
ATOM     25  C   UNL     1       8.378   7.411   6.675  0.00  0.00    +0.000 A 
ATOM     26  C   UNL     1       9.549   6.148   8.370  0.00  0.00    +0.000 A 
ATOM     27  C   UNL     1       8.755   7.236   8.006  0.00  0.00    +0.000 A 
ENDBRANCH  21  22
ENDBRANCH   4  21
ENDBRANCH   6  16
BRANCH   5   7
ATOM      7  C   UNL     1      13.855   8.256   4.209  0.00  0.00    +0.026 C 
BRANCH   7  12
ATOM     12  C   UNL     1      14.719   7.458   5.189  0.00  0.00    -0.015 C 
ATOM     17  C   UNL     1      13.955   7.274   6.502  0.00  0.00    +0.007 C 
ATOM     18  C   UNL     1      16.067   8.126   5.465  0.00  0.00    +0.007 C 
ENDBRANCH   7  12
ENDBRANCH   5   7
TORSDOF 5
ENDMDL
