REMARK  Name = 45783641
REMARK  9 active torsions:
REMARK  status: ('A' for Active; 'I' for Inactive)
REMARK    1  A    between atoms: O_2  and  C_29
REMARK    2  A    between atoms: O_2  and  C_30
REMARK    3  A    between atoms: N_4  and  C_13
REMARK    4  A    between atoms: N_8  and  C_27
REMARK    5  A    between atoms: C_9  and  C_14
REMARK    6  A    between atoms: C_13  and  C_15
REMARK    7  A    between atoms: C_18  and  C_22
REMARK    8  A    between atoms: C_21  and  C_23
REMARK    9  A    between atoms: C_28  and  C_29
REMARK                            x       y       z     vdW  Elec       q    Type
REMARK                         _______ _______ _______ _____ _____    ______ ____
ROOT
ATOM      1  O   UNL     1      -2.755  -1.531   1.861  0.00  0.00    -0.336 OA
ATOM      5  N   UNL     1      -1.661  -1.002  -0.021  0.00  0.00    -0.190 NA
ATOM      6  N   UNL     1      -1.397  -1.486   2.200  0.00  0.00    -0.056 NA
ATOM     14  C   UNL     1      -2.823  -1.235   0.537  0.00  0.00    +0.245 A 
ATOM     18  C   UNL     1      -0.817  -1.168   1.039  0.00  0.00    +0.204 A 
ENDROOT
BRANCH  18  22
ATOM      7  N   UNL     1       2.792  -1.047   1.926  0.00  0.00    -0.239 NA
ATOM     22  C   UNL     1       0.603  -1.010   0.902  0.00  0.00    +0.041 A 
ATOM     24  C   UNL     1       1.172  -0.680  -0.322  0.00  0.00    +0.016 A 
ATOM     25  C   UNL     1       1.448  -1.181   1.986  0.00  0.00    +0.124 A 
ATOM     26  C   UNL     1       2.551  -0.534  -0.424  0.00  0.00    +0.044 A 
ATOM     27  C   UNL     1       3.310  -0.726   0.719  0.00  0.00    +0.125 A 
BRANCH  27   8
ATOM      3  O   UNL     1       5.010  -0.031  -1.664  0.00  0.00    -0.273 OA
ATOM      8  N   UNL     1       4.697  -0.575   0.606  0.00  0.00    -0.268 N 
ATOM     28  C   UNL     1       5.438  -0.249  -0.534  0.00  0.00    +0.244 C 
ATOM     31  H   UNL     1       5.208  -0.727   1.472  0.00  0.00    +0.156 HD
BRANCH  28  29
ATOM     29  C   UNL     1       6.923  -0.189  -0.250  0.00  0.00    +0.255 C 
BRANCH  29   2
ATOM      2  O   UNL     1       7.602   0.139  -1.445  0.00  0.00    -0.374 OA
ATOM     30  C   UNL     1       9.011   0.213  -1.250  0.00  0.00    +0.194 C 
ENDBRANCH  29   2
ENDBRANCH  28  29
ENDBRANCH  27   8
ENDBRANCH  18  22
BRANCH  14   9
ATOM      4  N   UNL     1      -4.295  -0.315  -1.246  0.00  0.00    -0.287 NA
ATOM      9  C   UNL     1      -4.205  -1.217  -0.081  0.00  0.00    +0.146 C 
ATOM     10  C   UNL     1      -4.633  -2.595  -0.620  0.00  0.00    +0.030 C 
ATOM     11  C   UNL     1      -5.002  -2.355  -2.077  0.00  0.00    +0.017 C 
ATOM     12  C   UNL     1      -5.322  -0.875  -2.124  0.00  0.00    +0.085 C 
BRANCH   4  13
ATOM     13  C   UNL     1      -4.580   1.067  -0.881  0.00  0.00    +0.120 C 
BRANCH  13  15
ATOM     15  C   UNL     1      -3.346   1.787  -0.405  0.00  0.00    -0.033 A 
ATOM     16  C   UNL     1      -3.314   2.345   0.874  0.00  0.00    +0.005 A 
ATOM     17  C   UNL     1      -2.236   1.899  -1.242  0.00  0.00    +0.005 A 
ATOM     19  C   UNL     1      -2.173   3.015   1.314  0.00  0.00    +0.003 A 
ATOM     20  C   UNL     1      -1.095   2.568  -0.802  0.00  0.00    +0.003 A 
ATOM     21  C   UNL     1      -1.063   3.126   0.476  0.00  0.00    -0.050 A 
ATOM     23  C   UNL     1       0.158   3.842   0.947  0.00  0.00    +0.044 C 
ENDBRANCH  13  15
ENDBRANCH   4  13
ENDBRANCH  14   9
TORSDOF 7
