REMARK  Name = 45784383
REMARK  10 active torsions:
REMARK  status: ('A' for Active; 'I' for Inactive)
REMARK    1  A    between atoms: O_1  and  C_11
REMARK    2  A    between atoms: N_4  and  C_15
REMARK    3  A    between atoms: N_5  and  C_25
REMARK    4  A    between atoms: C_8  and  C_18
REMARK    5  A    between atoms: C_10  and  C_20
REMARK    6  A    between atoms: C_14  and  C_19
REMARK    7  A    between atoms: C_19  and  C_21
REMARK    8  A    between atoms: C_19  and  C_22
REMARK    9  A    between atoms: C_23  and  C_24
REMARK   10  A    between atoms: C_25  and  C_27
REMARK                            x       y       z     vdW  Elec       q    Type
REMARK                         _______ _______ _______ _____ _____    ______ ____
ROOT
ATOM      8  C   UNL     1       0.019  -0.387   1.211  0.00  0.00    -0.027 C 
ATOM      9  C   UNL     1       0.358   0.467  -0.056  0.00  0.00    +0.028 C 
ATOM     10  C   UNL     1       1.887   0.826  -0.095  0.00  0.00    +0.012 C 
ATOM     11  C   UNL     1      -0.616   1.672  -0.202  0.00  0.00    +0.122 C 
ATOM     12  C   UNL     1      -1.466  -0.818   1.161  0.00  0.00    +0.007 C 
ATOM     13  C   UNL     1       0.882  -1.669   1.201  0.00  0.00    +0.009 C 
ATOM     14  C   UNL     1      -2.101   1.246  -0.147  0.00  0.00    +0.029 C 
ATOM     15  C   UNL     1       2.746  -0.468  -0.029  0.00  0.00    +0.076 C 
ATOM     16  C   UNL     1      -2.424   0.362   1.058  0.00  0.00    +0.007 C 
ATOM     17  C   UNL     1       2.376  -1.384   1.137  0.00  0.00    +0.023 C 
ATOM     18  C   UNL     1       0.268   0.386   2.531  0.00  0.00    +0.011 C 
ATOM     20  C   UNL     1       2.296   1.642  -1.333  0.00  0.00    +0.010 C 
ENDROOT
BRANCH  15   4
ATOM      3  O   UNL     1       4.896  -2.038  -1.104  0.00  0.00    -0.268 OA
ATOM      4  N   UNL     1       4.160  -0.169   0.054  0.00  0.00    -0.307 N 
ATOM     23  C   UNL     1       5.125  -0.994  -0.500  0.00  0.00    +0.264 C 
ATOM     35  H   UNL     1       4.451   0.646   0.587  0.00  0.00    +0.149 HD
BRANCH  23  24
ATOM      6  N   UNL     1       6.723   0.583   0.382  0.00  0.00    -0.247 NA
ATOM      7  N   UNL     1       8.866  -0.910  -0.640  0.00  0.00    -0.259 NA
ATOM     24  C   UNL     1       6.532  -0.561  -0.306  0.00  0.00    +0.143 A 
ATOM     26  C   UNL     1       7.585  -1.294  -0.808  0.00  0.00    +0.143 A 
ATOM     28  C   UNL     1       8.004   0.967   0.549  0.00  0.00    +0.131 A 
ATOM     31  C   UNL     1       9.057   0.233   0.047  0.00  0.00    +0.130 A 
ENDBRANCH  23  24
ENDBRANCH  15   4
BRANCH  11   1
ATOM      1  O   UNL     1      -0.417   2.295  -1.471  0.00  0.00    -0.391 OA
ATOM     36  H   UNL     1      -0.590   1.635  -2.163  0.00  0.00    +0.210 HD
ENDBRANCH  11   1
BRANCH  14  19
ATOM     19  C   UNL     1      -3.042   2.457  -0.160  0.00  0.00    +0.077 C 
ATOM     21  C   UNL     1      -2.753   3.358   1.036  0.00  0.00    +0.017 C 
BRANCH  19  22
ATOM      2  O   UNL     1      -5.297   2.303   0.709  0.00  0.00    -0.276 OA
ATOM      5  N   UNL     1      -4.787   1.180  -1.255  0.00  0.00    -0.311 N 
ATOM     22  C   UNL     1      -4.493   1.988  -0.166  0.00  0.00    +0.216 C 
ATOM     37  H   UNL     1      -4.080   1.008  -1.963  0.00  0.00    +0.149 HD
BRANCH   5  25
ATOM     25  C   UNL     1      -6.096   0.613  -1.477  0.00  0.00    +0.139 C 
BRANCH  25  27
ATOM     27  C   UNL     1      -6.244  -0.732  -0.826  0.00  0.00    -0.030 A 
ATOM     29  C   UNL     1      -5.912  -1.888  -1.532  0.00  0.00    +0.005 A 
ATOM     30  C   UNL     1      -6.713  -0.825   0.484  0.00  0.00    +0.005 A 
ATOM     32  C   UNL     1      -6.049  -3.138  -0.927  0.00  0.00    +0.000 A 
ATOM     33  C   UNL     1      -6.851  -2.074   1.089  0.00  0.00    +0.000 A 
ATOM     34  C   UNL     1      -6.519  -3.231   0.383  0.00  0.00    +0.000 A 
ENDBRANCH  25  27
ENDBRANCH   5  25
ENDBRANCH  19  22
ENDBRANCH  14  19
TORSDOF 7
