REMARK  Name = 28959952
REMARK  8 active torsions:
REMARK  status: ('A' for Active; 'I' for Inactive)
REMARK    1  A    between atoms: O_2  and  C_22
REMARK    2  A    between atoms: N_7  and  C_15
REMARK    3  A    between atoms: N_8  and  C_24
REMARK    4  A    between atoms: C_9  and  C_12
REMARK    5  A    between atoms: C_10  and  C_16
REMARK    6  A    between atoms: C_12  and  C_15
REMARK    7  A    between atoms: C_16  and  C_22
REMARK    8  A    between atoms: C_21  and  C_23
REMARK                            x       y       z     vdW  Elec       q    Type
REMARK                         _______ _______ _______ _____ _____    ______ ____
ROOT
ATOM      3  O   UNL     1      -4.093   2.530  -2.163  0.00  0.00    -0.267 OA
ATOM      6  N   UNL     1      -4.056   1.043  -0.357  0.00  0.00    -0.295 N 
ATOM      9  C   UNL     1      -2.905  -0.738   0.938  0.00  0.00    +0.011 C 
ATOM     10  C   UNL     1      -3.874  -1.770   0.305  0.00  0.00    +0.006 C 
ATOM     11  C   UNL     1      -3.568   0.651   0.973  0.00  0.00    +0.112 C 
ATOM     13  C   UNL     1      -4.394  -1.293  -1.061  0.00  0.00    +0.023 C 
ATOM     14  C   UNL     1      -4.997   0.105  -0.966  0.00  0.00    +0.108 C 
ATOM     21  C   UNL     1      -3.691   2.201  -1.048  0.00  0.00    +0.282 C 
ENDROOT
BRANCH  21  23
ATOM      5  O   UNL     1      -3.098   3.663   0.789  0.00  0.00    -0.458 OA
ATOM     23  C   UNL     1      -2.744   3.119  -0.405  0.00  0.00    +0.189 A 
ATOM     25  C   UNL     1      -1.500   3.562  -0.789  0.00  0.00    +0.054 A 
ATOM     28  C   UNL     1      -1.061   4.435   0.235  0.00  0.00    +0.042 A 
ATOM     31  C   UNL     1      -2.068   4.462   1.172  0.00  0.00    +0.196 A 
ENDBRANCH  21  23
BRANCH   9  12
ATOM     12  C   UNL     1      -1.539  -0.659   0.244  0.00  0.00    +0.020 C 
BRANCH  12  15
ATOM     15  C   UNL     1      -0.469  -0.167   1.207  0.00  0.00    +0.085 C 
BRANCH  15   7
ATOM      7  N   UNL     1       0.819  -0.084   0.518  0.00  0.00    -0.299 NA
ATOM      8  N   UNL     1       3.654  -0.311   0.253  0.00  0.00    -0.327 N 
ATOM     17  C   UNL     1       1.456  -1.405   0.456  0.00  0.00    +0.103 C 
ATOM     18  C   UNL     1       1.706   0.868   1.198  0.00  0.00    +0.103 C 
ATOM     19  C   UNL     1       2.779  -1.343  -0.312  0.00  0.00    +0.120 C 
ATOM     20  C   UNL     1       3.036   1.006   0.453  0.00  0.00    +0.120 C 
BRANCH   8  24
ATOM      1  F   UNL     1       9.096  -0.510  -0.700  0.00  0.00    -0.205 F 
ATOM     24  C   UNL     1       5.031  -0.362   0.012  0.00  0.00    +0.030 A 
ATOM     26  C   UNL     1       5.512  -0.921  -1.172  0.00  0.00    +0.026 A 
ATOM     27  C   UNL     1       5.924   0.148   0.955  0.00  0.00    +0.026 A 
ATOM     29  C   UNL     1       6.885  -0.971  -1.413  0.00  0.00    +0.040 A 
ATOM     30  C   UNL     1       7.297   0.097   0.715  0.00  0.00    +0.040 A 
ATOM     32  C   UNL     1       7.777  -0.462  -0.469  0.00  0.00    +0.124 A 
ENDBRANCH   8  24
ENDBRANCH  15   7
ENDBRANCH  12  15
ENDBRANCH   9  12
BRANCH  10  16
ATOM     16  C   UNL     1      -3.272  -3.170   0.195  0.00  0.00    +0.124 C 
BRANCH  16  22
ATOM      4  O   UNL     1      -5.546  -4.045   0.116  0.00  0.00    -0.251 OA
ATOM     22  C   UNL     1      -4.338  -4.227   0.108  0.00  0.00    +0.305 C 
BRANCH  22   2
ATOM      2  O   UNL     1      -3.760  -5.453   0.016  0.00  0.00    -0.481 OA
ATOM     33  H   UNL     1      -4.429  -6.168  -0.042  0.00  0.00    +0.295 HD
ENDBRANCH  22   2
ENDBRANCH  16  22
ENDBRANCH  10  16
TORSDOF 8
