REMARK  Name = 11912450
REMARK  5 active torsions:
REMARK  status: ('A' for Active; 'I' for Inactive)
REMARK    1  A    between atoms: N_5  and  C_15
REMARK    2  A    between atoms: C_8  and  C_13
REMARK    3  A    between atoms: C_9  and  C_14
REMARK    4  A    between atoms: C_13  and  C_22
REMARK    5  A    between atoms: C_14  and  C_23
REMARK                            x       y       z     vdW  Elec       q    Type
REMARK                         _______ _______ _______ _____ _____    ______ ____
ROOT
ATOM      2  O   UNL     1      -2.983   2.118   1.298  0.00  0.00    -0.253 OA
ATOM      4  N   UNL     1      -1.628   1.006  -0.220  0.00  0.00    -0.285 N 
ATOM      5  N   UNL     1      -3.820   0.256   0.253  0.00  0.00    -0.296 N 
ATOM      8  C   UNL     1      -0.136  -0.901  -0.749  0.00  0.00    +0.010 C 
ATOM      9  C   UNL     1       1.081   0.029  -0.505  0.00  0.00    +0.004 C 
ATOM     10  C   UNL     1       0.732   1.190   0.444  0.00  0.00    +0.023 C 
ATOM     11  C   UNL     1      -1.346  -0.061  -1.191  0.00  0.00    +0.113 C 
ATOM     12  C   UNL     1      -0.517   1.937  -0.022  0.00  0.00    +0.109 C 
ATOM     18  C   UNL     1      -2.822   1.192   0.496  0.00  0.00    +0.302 C 
ATOM     27  H   UNL     1      -3.737  -0.399  -0.510  0.00  0.00    +0.151 HD
ENDROOT
BRANCH   5  15
ATOM     15  C   UNL     1      -5.102   0.308   0.920  0.00  0.00    +0.074 C 
ATOM     16  C   UNL     1      -6.086   1.197   0.152  0.00  0.00    +0.022 C 
ATOM     17  C   UNL     1      -5.671  -1.099   1.130  0.00  0.00    +0.022 C 
ATOM     19  C   UNL     1      -6.561   0.554  -1.151  0.00  0.00    +0.002 C 
ATOM     20  C   UNL     1      -6.147  -1.738  -0.175  0.00  0.00    +0.002 C 
ATOM     21  C   UNL     1      -7.133  -0.840  -0.915  0.00  0.00    +0.000 C 
ENDBRANCH   5  15
BRANCH   8  13
ATOM     13  C   UNL     1      -0.503  -1.778   0.453  0.00  0.00    +0.002 C 
ATOM     22  C   UNL     1      -1.635  -2.725   0.115  0.00  0.00    +0.004 C 
ENDBRANCH   8  13
BRANCH   9  14
ATOM     14  C   UNL     1       2.318  -0.719  -0.008  0.00  0.00    +0.100 C 
BRANCH  14  23
ATOM      1  S   UNL     1       7.164  -1.381   0.821  0.00  0.00    -0.061 S 
ATOM      3  O   UNL     1       3.612   1.118  -0.869  0.00  0.00    -0.275 OA
ATOM      6  N   UNL     1       4.692  -0.679   0.201  0.00  0.00    -0.265 N 
ATOM      7  N   UNL     1       6.526   0.799  -0.414  0.00  0.00    -0.233 NA
ATOM     23  C   UNL     1       3.604   0.037  -0.289  0.00  0.00    +0.219 C 
ATOM     24  C   UNL     1       6.033  -0.294   0.125  0.00  0.00    +0.164 A 
ATOM     25  C   UNL     1       8.429  -0.314   0.371  0.00  0.00    +0.068 A 
ATOM     26  C   UNL     1       7.900   0.786  -0.271  0.00  0.00    +0.120 A 
ATOM     28  H   UNL     1       4.530  -1.570   0.664  0.00  0.00    +0.157 HD
ENDBRANCH  14  23
ENDBRANCH   9  14
TORSDOF 4
