MODEL 1
REMARK VINA RESULT:      -6.4      0.000      0.000
REMARK  Name = 51136926
REMARK  3 active torsions:
REMARK  status: ('A' for Active; 'I' for Inactive)
REMARK    1  A    between atoms: N_3  and  C_12
REMARK    2  A    between atoms: C_7  and  C_11
REMARK    3  A    between atoms: C_13  and  C_14
REMARK                            x       y       z     vdW  Elec       q    Type
REMARK                         _______ _______ _______ _____ _____    ______ ____
ROOT
ATOM      2  O   UNL     1      12.911   7.907  18.672  0.00  0.00    -0.336 OA
ATOM      4  N   UNL     1      14.047   7.904  20.603  0.00  0.00    -0.189 NA
ATOM      5  N   UNL     1      14.152   7.320  18.394  0.00  0.00    -0.054 NA
ATOM     11  C   UNL     1      12.932   8.221  19.994  0.00  0.00    +0.245 A 
ATOM     13  C   UNL     1      14.764   7.354  19.582  0.00  0.00    +0.220 A 
ENDROOT
BRANCH  13  14
ATOM      1  F   UNL     1      19.836   5.316  20.192  0.00  0.00    -0.204 F 
ATOM      6  N   UNL     1      16.522   5.953  18.863  0.00  0.00    -0.249 NA
ATOM     14  C   UNL     1      16.092   6.849  19.780  0.00  0.00    +0.111 A 
ATOM     15  C   UNL     1      16.850   7.279  20.857  0.00  0.00    +0.034 A 
ATOM     16  C   UNL     1      18.130   6.757  21.003  0.00  0.00    +0.042 A 
ATOM     17  C   UNL     1      17.772   5.468  19.037  0.00  0.00    +0.149 A 
ATOM     18  C   UNL     1      18.607   5.833  20.079  0.00  0.00    +0.141 A 
ENDBRANCH  13  14
BRANCH  11   7
ATOM      3  N   UNL     1      11.325   8.365  21.888  0.00  0.00    -0.294 NA
ATOM      7  C   UNL     1      11.687   8.878  20.551  0.00  0.00    +0.146 C 
ATOM      8  C   UNL     1      11.851  10.397  20.745  0.00  0.00    +0.030 C 
ATOM      9  C   UNL     1      11.503  10.651  22.205  0.00  0.00    +0.017 C 
ATOM     10  C   UNL     1      10.643   9.460  22.579  0.00  0.00    +0.085 C 
ATOM     12  C   UNL     1      10.512   7.157  21.840  0.00  0.00    +0.105 C 
ENDBRANCH  11   7
TORSDOF 2
ENDMDL
MODEL 2
REMARK VINA RESULT:      -5.8     29.798     31.014
REMARK  Name = 51136926
REMARK  3 active torsions:
REMARK  status: ('A' for Active; 'I' for Inactive)
REMARK    1  A    between atoms: N_3  and  C_12
REMARK    2  A    between atoms: C_7  and  C_11
REMARK    3  A    between atoms: C_13  and  C_14
REMARK                            x       y       z     vdW  Elec       q    Type
REMARK                         _______ _______ _______ _____ _____    ______ ____
ROOT
ATOM      2  O   UNL     1       2.423   2.190  -5.385  0.00  0.00    -0.336 OA
ATOM      4  N   UNL     1       0.665   2.795  -6.635  0.00  0.00    -0.189 NA
ATOM      5  N   UNL     1       1.606   1.056  -5.482  0.00  0.00    -0.054 NA
ATOM     11  C   UNL     1       1.796   3.167  -6.091  0.00  0.00    +0.245 A 
ATOM     13  C   UNL     1       0.590   1.493  -6.234  0.00  0.00    +0.220 A 
ENDROOT
BRANCH  13  14
ATOM      1  F   UNL     1      -3.703  -1.593  -7.750  0.00  0.00    -0.204 F 
ATOM      6  N   UNL     1      -1.381   1.183  -7.493  0.00  0.00    -0.249 NA
ATOM     14  C   UNL     1      -0.514   0.654  -6.601  0.00  0.00    +0.111 A 
ATOM     15  C   UNL     1      -0.644  -0.611  -6.050  0.00  0.00    +0.034 A 
ATOM     16  C   UNL     1      -1.733  -1.382  -6.439  0.00  0.00    +0.042 A 
ATOM     17  C   UNL     1      -2.428   0.403  -7.848  0.00  0.00    +0.149 A 
ATOM     18  C   UNL     1      -2.647  -0.873  -7.355  0.00  0.00    +0.141 A 
ENDBRANCH  13  14
BRANCH  11   7
ATOM      3  N   UNL     1       1.609   5.620  -5.719  0.00  0.00    -0.294 NA
ATOM      7  C   UNL     1       2.489   4.512  -6.141  0.00  0.00    +0.146 C 
ATOM      8  C   UNL     1       3.701   4.593  -5.194  0.00  0.00    +0.030 C 
ATOM      9  C   UNL     1       3.441   5.810  -4.318  0.00  0.00    +0.017 C 
ATOM     10  C   UNL     1       2.481   6.644  -5.142  0.00  0.00    +0.085 C 
ATOM     12  C   UNL     1       0.787   6.146  -6.801  0.00  0.00    +0.105 C 
ENDBRANCH  11   7
TORSDOF 2
ENDMDL
MODEL 3
REMARK VINA RESULT:      -5.7      2.675      3.848
REMARK  Name = 51136926
REMARK  3 active torsions:
REMARK  status: ('A' for Active; 'I' for Inactive)
REMARK    1  A    between atoms: N_3  and  C_12
REMARK    2  A    between atoms: C_7  and  C_11
REMARK    3  A    between atoms: C_13  and  C_14
REMARK                            x       y       z     vdW  Elec       q    Type
REMARK                         _______ _______ _______ _____ _____    ______ ____
ROOT
ATOM      2  O   UNL     1      16.154   6.008  18.614  0.00  0.00    -0.336 OA
ATOM      4  N   UNL     1      16.964   7.070  20.412  0.00  0.00    -0.189 NA
ATOM      5  N   UNL     1      17.452   5.519  18.803  0.00  0.00    -0.054 NA
ATOM     11  C   UNL     1      15.947   6.916  19.604  0.00  0.00    +0.245 A 
ATOM     13  C   UNL     1      17.864   6.193  19.882  0.00  0.00    +0.220 A 
ENDROOT
BRANCH  13  14
ATOM      1  F   UNL     1      22.879   5.351  21.977  0.00  0.00    -0.204 F 
ATOM      6  N   UNL     1      19.819   4.887  20.086  0.00  0.00    -0.249 NA
ATOM     14  C   UNL     1      19.168   6.014  20.452  0.00  0.00    +0.111 A 
ATOM     15  C   UNL     1      19.688   6.962  21.320  0.00  0.00    +0.034 A 
ATOM     16  C   UNL     1      20.956   6.738  21.844  0.00  0.00    +0.042 A 
ATOM     17  C   UNL     1      21.049   4.704  20.616  0.00  0.00    +0.149 A 
ATOM     18  C   UNL     1      21.656   5.590  21.490  0.00  0.00    +0.141 A 
ENDBRANCH  13  14
BRANCH  11   7
ATOM      3  N   UNL     1      13.909   7.529  18.314  0.00  0.00    -0.294 NA
ATOM      7  C   UNL     1      14.595   7.598  19.620  0.00  0.00    +0.146 C 
ATOM      8  C   UNL     1      13.613   6.949  20.613  0.00  0.00    +0.030 C 
ATOM      9  C   UNL     1      12.383   6.602  19.787  0.00  0.00    +0.017 C 
ATOM     10  C   UNL     1      12.473   7.541  18.601  0.00  0.00    +0.085 C 
ATOM     12  C   UNL     1      14.295   8.599  17.404  0.00  0.00    +0.105 C 
ENDBRANCH  11   7
TORSDOF 2
ENDMDL
MODEL 4
REMARK VINA RESULT:      -5.7     15.796     17.415
REMARK  Name = 51136926
REMARK  3 active torsions:
REMARK  status: ('A' for Active; 'I' for Inactive)
REMARK    1  A    between atoms: N_3  and  C_12
REMARK    2  A    between atoms: C_7  and  C_11
REMARK    3  A    between atoms: C_13  and  C_14
REMARK                            x       y       z     vdW  Elec       q    Type
REMARK                         _______ _______ _______ _____ _____    ______ ____
ROOT
ATOM      2  O   UNL     1      11.051   6.222   3.358  0.00  0.00    -0.336 OA
ATOM      4  N   UNL     1      10.389   4.378   4.445  0.00  0.00    -0.189 NA
ATOM      5  N   UNL     1      10.737   6.629   4.661  0.00  0.00    -0.054 NA
ATOM     11  C   UNL     1      10.818   4.884   3.316  0.00  0.00    +0.245 A 
ATOM     13  C   UNL     1      10.355   5.486   5.240  0.00  0.00    +0.220 A 
ENDROOT
BRANCH  13  14
ATOM      1  F   UNL     1       8.780   5.051  10.492  0.00  0.00    -0.204 F 
ATOM      6  N   UNL     1      10.043   4.206   7.198  0.00  0.00    -0.249 NA
ATOM     14  C   UNL     1       9.933   5.418   6.609  0.00  0.00    +0.111 A 
ATOM     15  C   UNL     1       9.449   6.549   7.248  0.00  0.00    +0.034 A 
ATOM     16  C   UNL     1       9.053   6.427   8.575  0.00  0.00    +0.042 A 
ATOM     17  C   UNL     1       9.648   4.127   8.488  0.00  0.00    +0.149 A 
ATOM     18  C   UNL     1       9.151   5.197   9.214  0.00  0.00    +0.141 A 
ENDBRANCH  13  14
BRANCH  11   7
ATOM      3  N   UNL     1      11.245   5.149   0.879  0.00  0.00    -0.294 NA
ATOM      7  C   UNL     1      11.087   4.194   1.995  0.00  0.00    +0.146 C 
ATOM      8  C   UNL     1      12.395   3.381   2.003  0.00  0.00    +0.030 C 
ATOM      9  C   UNL     1      13.198   3.907   0.822  0.00  0.00    +0.017 C 
ATOM     10  C   UNL     1      12.144   4.512  -0.084  0.00  0.00    +0.085 C 
ATOM     12  C   UNL     1       9.979   5.539   0.273  0.00  0.00    +0.105 C 
ENDBRANCH  11   7
TORSDOF 2
ENDMDL
MODEL 5
REMARK VINA RESULT:      -5.6     26.016     27.304
REMARK  Name = 51136926
REMARK  3 active torsions:
REMARK  status: ('A' for Active; 'I' for Inactive)
REMARK    1  A    between atoms: N_3  and  C_12
REMARK    2  A    between atoms: C_7  and  C_11
REMARK    3  A    between atoms: C_13  and  C_14
REMARK                            x       y       z     vdW  Elec       q    Type
REMARK                         _______ _______ _______ _____ _____    ______ ____
ROOT
ATOM      2  O   UNL     1      -1.710 -10.748  14.004  0.00  0.00    -0.336 OA
ATOM      4  N   UNL     1      -3.947 -10.734  13.879  0.00  0.00    -0.189 NA
ATOM      5  N   UNL     1      -2.174 -10.675  15.324  0.00  0.00    -0.054 NA
ATOM     11  C   UNL     1      -2.818 -10.779  13.217  0.00  0.00    +0.245 A 
ATOM     13  C   UNL     1      -3.501 -10.671  15.167  0.00  0.00    +0.220 A 
ENDROOT
BRANCH  13  14
ATOM      1  F   UNL     1      -7.098 -10.323  19.313  0.00  0.00    -0.204 F 
ATOM      6  N   UNL     1      -5.577  -9.966  16.039  0.00  0.00    -0.249 NA
ATOM     14  C   UNL     1      -4.409 -10.603  16.275  0.00  0.00    +0.111 A 
ATOM     15  C   UNL     1      -4.067 -11.169  17.494  0.00  0.00    +0.034 A 
ATOM     16  C   UNL     1      -4.984 -11.074  18.535  0.00  0.00    +0.042 A 
ATOM     17  C   UNL     1      -6.443  -9.894  17.075  0.00  0.00    +0.149 A 
ATOM     18  C   UNL     1      -6.196 -10.426  18.330  0.00  0.00    +0.141 A 
ENDBRANCH  13  14
BRANCH  11   7
ATOM      3  N   UNL     1      -3.753 -11.385  10.993  0.00  0.00    -0.294 NA
ATOM      7  C   UNL     1      -2.582 -10.860  11.724  0.00  0.00    +0.146 C 
ATOM      8  C   UNL     1      -2.309  -9.483  11.089  0.00  0.00    +0.030 C 
ATOM      9  C   UNL     1      -3.336  -9.349   9.974  0.00  0.00    +0.017 C 
ATOM     10  C   UNL     1      -3.710 -10.783   9.659  0.00  0.00    +0.085 C 
ATOM     12  C   UNL     1      -3.790 -12.840  10.936  0.00  0.00    +0.105 C 
ENDBRANCH  11   7
TORSDOF 2
ENDMDL
MODEL 6
REMARK VINA RESULT:      -5.5     16.476     17.431
REMARK  Name = 51136926
REMARK  3 active torsions:
REMARK  status: ('A' for Active; 'I' for Inactive)
REMARK    1  A    between atoms: N_3  and  C_12
REMARK    2  A    between atoms: C_7  and  C_11
REMARK    3  A    between atoms: C_13  and  C_14
REMARK                            x       y       z     vdW  Elec       q    Type
REMARK                         _______ _______ _______ _____ _____    ______ ____
ROOT
ATOM      2  O   UNL     1      11.204   6.503   5.018  0.00  0.00    -0.336 OA
ATOM      4  N   UNL     1      10.074   4.884   3.959  0.00  0.00    -0.189 NA
ATOM      5  N   UNL     1      11.939   6.205   3.864  0.00  0.00    -0.054 NA
ATOM     11  C   UNL     1      10.122   5.681   4.997  0.00  0.00    +0.245 A 
ATOM     13  C   UNL     1      11.209   5.242   3.293  0.00  0.00    +0.220 A 
ENDROOT
BRANCH  13  14
ATOM      1  F   UNL     1      12.809   2.781  -1.358  0.00  0.00    -0.204 F 
ATOM      6  N   UNL     1      12.761   3.944   2.077  0.00  0.00    -0.249 NA
ATOM     14  C   UNL     1      11.587   4.616   2.059  0.00  0.00    +0.111 A 
ATOM     15  C   UNL     1      10.771   4.720   0.944  0.00  0.00    +0.034 A 
ATOM     16  C   UNL     1      11.186   4.095  -0.227  0.00  0.00    +0.042 A 
ATOM     17  C   UNL     1      13.130   3.350   0.921  0.00  0.00    +0.149 A 
ATOM     18  C   UNL     1      12.387   3.394  -0.247  0.00  0.00    +0.141 A 
ENDBRANCH  13  14
BRANCH  11   7
ATOM      3  N   UNL     1       9.825   5.723   7.467  0.00  0.00    -0.294 NA
ATOM      7  C   UNL     1       9.154   5.810   6.154  0.00  0.00    +0.146 C 
ATOM      8  C   UNL     1       8.429   7.169   6.175  0.00  0.00    +0.030 C 
ATOM      9  C   UNL     1       8.700   7.744   7.558  0.00  0.00    +0.017 C 
ATOM     10  C   UNL     1       9.023   6.522   8.395  0.00  0.00    +0.085 C 
ATOM     12  C   UNL     1      10.000   4.353   7.933  0.00  0.00    +0.105 C 
ENDBRANCH  11   7
TORSDOF 2
ENDMDL
MODEL 7
REMARK VINA RESULT:      -5.5      4.978      5.956
REMARK  Name = 51136926
REMARK  3 active torsions:
REMARK  status: ('A' for Active; 'I' for Inactive)
REMARK    1  A    between atoms: N_3  and  C_12
REMARK    2  A    between atoms: C_7  and  C_11
REMARK    3  A    between atoms: C_13  and  C_14
REMARK                            x       y       z     vdW  Elec       q    Type
REMARK                         _______ _______ _______ _____ _____    ______ ____
ROOT
ATOM      2  O   UNL     1      13.078   7.683  16.676  0.00  0.00    -0.336 OA
ATOM      4  N   UNL     1      13.323   9.739  17.532  0.00  0.00    -0.189 NA
ATOM      5  N   UNL     1      13.577   8.480  15.638  0.00  0.00    -0.054 NA
ATOM     11  C   UNL     1      12.958   8.502  17.754  0.00  0.00    +0.245 A 
ATOM     13  C   UNL     1      13.695   9.678  16.220  0.00  0.00    +0.220 A 
ENDROOT
BRANCH  13  14
ATOM      1  F   UNL     1      15.414  14.084  13.414  0.00  0.00    -0.204 F 
ATOM      6  N   UNL     1      13.477  11.187  14.419  0.00  0.00    -0.249 NA
ATOM     14  C   UNL     1      14.178  10.832  15.519  0.00  0.00    +0.111 A 
ATOM     15  C   UNL     1      15.298  11.509  15.977  0.00  0.00    +0.034 A 
ATOM     16  C   UNL     1      15.724  12.621  15.260  0.00  0.00    +0.042 A 
ATOM     17  C   UNL     1      13.922  12.273  13.748  0.00  0.00    +0.149 A 
ATOM     18  C   UNL     1      15.029  13.017  14.123  0.00  0.00    +0.141 A 
ENDBRANCH  13  14
BRANCH  11   7
ATOM      3  N   UNL     1      13.402   7.937  20.136  0.00  0.00    -0.294 NA
ATOM      7  C   UNL     1      12.431   7.870  19.026  0.00  0.00    +0.146 C 
ATOM      8  C   UNL     1      11.172   8.575  19.563  0.00  0.00    +0.030 C 
ATOM      9  C   UNL     1      11.508   8.949  20.999  0.00  0.00    +0.017 C 
ATOM     10  C   UNL     1      12.615   7.983  21.370  0.00  0.00    +0.085 C 
ATOM     12  C   UNL     1      14.355   6.835  20.135  0.00  0.00    +0.105 C 
ENDBRANCH  11   7
TORSDOF 2
ENDMDL
MODEL 8
REMARK VINA RESULT:      -5.3     27.565     28.877
REMARK  Name = 51136926
REMARK  3 active torsions:
REMARK  status: ('A' for Active; 'I' for Inactive)
REMARK    1  A    between atoms: N_3  and  C_12
REMARK    2  A    between atoms: C_7  and  C_11
REMARK    3  A    between atoms: C_13  and  C_14
REMARK                            x       y       z     vdW  Elec       q    Type
REMARK                         _______ _______ _______ _____ _____    ______ ____
ROOT
ATOM      2  O   UNL     1     -10.290  -9.158  17.567  0.00  0.00    -0.336 OA
ATOM      4  N   UNL     1      -8.229  -8.885  16.733  0.00  0.00    -0.189 NA
ATOM      5  N   UNL     1      -9.442  -9.940  18.360  0.00  0.00    -0.054 NA
ATOM     11  C   UNL     1      -9.496  -8.571  16.633  0.00  0.00    +0.245 A 
ATOM     13  C   UNL     1      -8.244  -9.727  17.806  0.00  0.00    +0.220 A 
ENDROOT
BRANCH  13  14
ATOM      1  F   UNL     1      -3.731 -12.112  19.854  0.00  0.00    -0.204 F 
ATOM      6  N   UNL     1      -7.101 -10.800  19.569  0.00  0.00    -0.249 NA
ATOM     14  C   UNL     1      -7.046 -10.341  18.299  0.00  0.00    +0.111 A 
ATOM     15  C   UNL     1      -5.924 -10.435  17.489  0.00  0.00    +0.034 A 
ATOM     16  C   UNL     1      -4.789 -11.039  18.018  0.00  0.00    +0.042 A 
ATOM     17  C   UNL     1      -5.978 -11.381  20.048  0.00  0.00    +0.149 A 
ATOM     18  C   UNL     1      -4.808 -11.524  19.321  0.00  0.00    +0.141 A 
ENDBRANCH  13  14
BRANCH  11   7
ATOM      3  N   UNL     1     -11.286  -8.332  14.922  0.00  0.00    -0.294 NA
ATOM      7  C   UNL     1     -10.185  -7.659  15.639  0.00  0.00    +0.146 C 
ATOM      8  C   UNL     1     -10.841  -6.438  16.309  0.00  0.00    +0.030 C 
ATOM      9  C   UNL     1     -12.296  -6.473  15.862  0.00  0.00    +0.017 C 
ATOM     10  C   UNL     1     -12.257  -7.289  14.585  0.00  0.00    +0.085 C 
ATOM     12  C   UNL     1     -10.842  -9.067  13.745  0.00  0.00    +0.105 C 
ENDBRANCH  11   7
TORSDOF 2
ENDMDL
MODEL 9
REMARK VINA RESULT:      -5.3      2.510      3.564
REMARK  Name = 51136926
REMARK  3 active torsions:
REMARK  status: ('A' for Active; 'I' for Inactive)
REMARK    1  A    between atoms: N_3  and  C_12
REMARK    2  A    between atoms: C_7  and  C_11
REMARK    3  A    between atoms: C_13  and  C_14
REMARK                            x       y       z     vdW  Elec       q    Type
REMARK                         _______ _______ _______ _____ _____    ______ ____
ROOT
ATOM      2  O   UNL     1      15.983   6.103  18.688  0.00  0.00    -0.336 OA
ATOM      4  N   UNL     1      15.856   7.839  20.099  0.00  0.00    -0.189 NA
ATOM      5  N   UNL     1      17.204   6.139  19.374  0.00  0.00    -0.054 NA
ATOM     11  C   UNL     1      15.248   7.138  19.175  0.00  0.00    +0.245 A 
ATOM     13  C   UNL     1      17.052   7.189  20.187  0.00  0.00    +0.220 A 
ENDROOT
BRANCH  13  14
ATOM      1  F   UNL     1      20.923   8.992  23.653  0.00  0.00    -0.204 F 
ATOM      6  N   UNL     1      18.141   8.946  21.325  0.00  0.00    -0.249 NA
ATOM     14  C   UNL     1      18.076   7.615  21.096  0.00  0.00    +0.111 A 
ATOM     15  C   UNL     1      18.922   6.686  21.681  0.00  0.00    +0.034 A 
ATOM     16  C   UNL     1      19.897   7.152  22.555  0.00  0.00    +0.042 A 
ATOM     17  C   UNL     1      19.102   9.362  22.180  0.00  0.00    +0.149 A 
ATOM     18  C   UNL     1      19.996   8.515  22.815  0.00  0.00    +0.141 A 
ENDBRANCH  13  14
BRANCH  11   7
ATOM      3  N   UNL     1      12.896   7.847  19.568  0.00  0.00    -0.294 NA
ATOM      7  C   UNL     1      13.865   7.318  18.587  0.00  0.00    +0.146 C 
ATOM      8  C   UNL     1      13.839   8.329  17.426  0.00  0.00    +0.030 C 
ATOM      9  C   UNL     1      12.785   9.356  17.816  0.00  0.00    +0.017 C 
ATOM     10  C   UNL     1      11.909   8.610  18.803  0.00  0.00    +0.085 C 
ATOM     12  C   UNL     1      12.276   6.809  20.381  0.00  0.00    +0.105 C 
ENDBRANCH  11   7
TORSDOF 2
ENDMDL
MODEL 10
REMARK VINA RESULT:      -5.3     26.620     27.437
REMARK  Name = 51136926
REMARK  3 active torsions:
REMARK  status: ('A' for Active; 'I' for Inactive)
REMARK    1  A    between atoms: N_3  and  C_12
REMARK    2  A    between atoms: C_7  and  C_11
REMARK    3  A    between atoms: C_13  and  C_14
REMARK                            x       y       z     vdW  Elec       q    Type
REMARK                         _______ _______ _______ _____ _____    ______ ____
ROOT
ATOM      2  O   UNL     1      -4.480 -11.988  16.611  0.00  0.00    -0.336 OA
ATOM      4  N   UNL     1      -5.084 -10.114  15.543  0.00  0.00    -0.189 NA
ATOM      5  N   UNL     1      -3.917 -12.071  15.331  0.00  0.00    -0.054 NA
ATOM     11  C   UNL     1      -5.149 -10.806  16.652  0.00  0.00    +0.245 A 
ATOM     13  C   UNL     1      -4.319 -10.929  14.761  0.00  0.00    +0.220 A 
ENDROOT
BRANCH  13  14
ATOM      1  F   UNL     1      -3.166  -9.532   9.569  0.00  0.00    -0.204 F 
ATOM      6  N   UNL     1      -4.997 -10.159  12.637  0.00  0.00    -0.249 NA
ATOM     14  C   UNL     1      -3.973 -10.576  13.415  0.00  0.00    +0.111 A 
ATOM     15  C   UNL     1      -2.659 -10.670  12.983  0.00  0.00    +0.034 A 
ATOM     16  C   UNL     1      -2.380 -10.315  11.668  0.00  0.00    +0.042 A 
ATOM     17  C   UNL     1      -4.686  -9.823  11.365  0.00  0.00    +0.149 A 
ATOM     18  C   UNL     1      -3.407  -9.882  10.837  0.00  0.00    +0.141 A 
ENDBRANCH  13  14
BRANCH  11   7
ATOM      3  N   UNL     1      -7.325 -10.562  17.835  0.00  0.00    -0.294 NA
ATOM      7  C   UNL     1      -5.855 -10.476  17.950  0.00  0.00    +0.146 C 
ATOM      8  C   UNL     1      -5.494 -11.450  19.087  0.00  0.00    +0.030 C 
ATOM      9  C   UNL     1      -6.826 -11.988  19.589  0.00  0.00    +0.017 C 
ATOM     10  C   UNL     1      -7.822 -10.928  19.162  0.00  0.00    +0.085 C 
ATOM     12  C   UNL     1      -7.935  -9.336  17.339  0.00  0.00    +0.105 C 
ENDBRANCH  11   7
TORSDOF 2
ENDMDL
