REMARK  Name = 44716910
REMARK  12 active torsions:
REMARK  status: ('A' for Active; 'I' for Inactive)
REMARK    1  A    between atoms: O_1  and  C_15
REMARK    2  A    between atoms: O_1  and  C_25
REMARK    3  A    between atoms: O_2  and  C_16
REMARK    4  A    between atoms: O_3  and  C_21
REMARK    5  A    between atoms: O_6  and  C_29
REMARK    6  A    between atoms: N_8  and  C_30
REMARK    7  A    between atoms: C_9  and  C_19
REMARK    8  A    between atoms: C_11  and  C_21
REMARK    9  A    between atoms: C_11  and  C_22
REMARK   10  A    between atoms: C_12  and  C_20
REMARK   11  A    between atoms: C_20  and  C_23
REMARK   12  A    between atoms: C_24  and  C_29
REMARK                            x       y       z     vdW  Elec       q    Type
REMARK                         _______ _______ _______ _____ _____    ______ ____
ROOT
ATOM      9  C   UNL     1      -1.084  -1.131   0.455  0.00  0.00    -0.023 C 
ATOM     10  C   UNL     1      -0.260  -2.014  -0.560  0.00  0.00    +0.007 C 
ATOM     11  C   UNL     1       1.296  -2.103  -0.319  0.00  0.00    +0.031 C 
ATOM     12  C   UNL     1      -2.529  -0.936  -0.168  0.00  0.00    +0.032 C 
ATOM     13  C   UNL     1      -0.391   0.252   0.580  0.00  0.00    +0.011 C 
ATOM     14  C   UNL     1      -0.954  -3.372  -0.800  0.00  0.00    +0.007 C 
ATOM     15  C   UNL     1       1.860  -0.662  -0.130  0.00  0.00    +0.186 C 
ATOM     16  C   UNL     1      -3.236  -2.267  -0.511  0.00  0.00    +0.119 C 
ATOM     17  C   UNL     1       1.098   0.168   0.897  0.00  0.00    +0.046 C 
ATOM     18  C   UNL     1      -2.363  -3.184  -1.364  0.00  0.00    +0.032 C 
ATOM     19  C   UNL     1      -1.183  -1.746   1.873  0.00  0.00    +0.012 C 
ATOM     22  C   UNL     1       1.973  -2.706  -1.584  0.00  0.00    +0.017 C 
ENDROOT
BRANCH  16   2
ATOM      2  O   UNL     1      -3.637  -2.950   0.672  0.00  0.00    -0.391 OA
ATOM     36  H   UNL     1      -4.096  -3.764   0.404  0.00  0.00    +0.210 HD
ENDBRANCH  16   2
BRANCH  15   1
ATOM      1  O   UNL     1       3.229  -0.678   0.276  0.00  0.00    -0.446 OA
BRANCH   1  25
ATOM      5  O   UNL     1       3.557   1.311  -0.803  0.00  0.00    -0.226 OA
ATOM      8  N   UNL     1       5.281   0.218   0.343  0.00  0.00    -0.251 N 
ATOM     25  C   UNL     1       3.994   0.386  -0.130  0.00  0.00    +0.405 C 
ATOM     38  H   UNL     1       5.453  -0.623   0.889  0.00  0.00    +0.158 HD
BRANCH   8  30
ATOM     30  C   UNL     1       6.393   1.071   0.162  0.00  0.00    +0.036 A 
ATOM     31  C   UNL     1       7.627   0.736   0.718  0.00  0.00    +0.023 A 
ATOM     32  C   UNL     1       6.256   2.248  -0.574  0.00  0.00    +0.023 A 
ATOM     33  C   UNL     1       8.725   1.578   0.539  0.00  0.00    +0.002 A 
ATOM     34  C   UNL     1       7.353   3.091  -0.752  0.00  0.00    +0.002 A 
ATOM     35  C   UNL     1       8.588   2.755  -0.196  0.00  0.00    +0.000 A 
ENDBRANCH   8  30
ENDBRANCH   1  25
ENDBRANCH  15   1
BRANCH  12  20
ATOM     20  C   UNL     1      -3.471  -0.041   0.652  0.00  0.00    +0.102 C 
BRANCH  20  23
ATOM      4  O   UNL     1      -4.563   0.247  -1.444  0.00  0.00    -0.276 OA
ATOM      7  N   UNL     1      -5.469   1.348   0.378  0.00  0.00    -0.296 N 
ATOM     23  C   UNL     1      -4.546   0.523  -0.243  0.00  0.00    +0.216 C 
ATOM     24  C   UNL     1      -6.631   1.900  -0.322  0.00  0.00    +0.101 C 
ATOM     26  C   UNL     1      -5.488   1.702   1.795  0.00  0.00    +0.108 C 
ATOM     27  C   UNL     1      -7.561   2.345   0.810  0.00  0.00    +0.026 C 
ATOM     28  C   UNL     1      -6.597   2.735   1.925  0.00  0.00    +0.021 C 
BRANCH  24  29
ATOM     29  C   UNL     1      -6.234   3.061  -1.233  0.00  0.00    +0.178 C 
BRANCH  29   6
ATOM      6  O   UNL     1      -5.779   2.530  -2.463  0.00  0.00    -0.393 OA
ATOM     39  H   UNL     1      -5.537   3.283  -3.029  0.00  0.00    +0.209 HD
ENDBRANCH  29   6
ENDBRANCH  24  29
ENDBRANCH  20  23
ENDBRANCH  12  20
BRANCH  11  21
ATOM     21  C   UNL     1       1.700  -3.024   0.851  0.00  0.00    +0.166 C 
BRANCH  21   3
ATOM      3  O   UNL     1       3.050  -3.389   0.669  0.00  0.00    -0.394 OA
ATOM     37  H   UNL     1       3.294  -3.973   1.407  0.00  0.00    +0.209 HD
ENDBRANCH  21   3
ENDBRANCH  11  21
TORSDOF 10
