MODEL 1
REMARK VINA RESULT:      -6.0      0.000      0.000
REMARK  Name = 75537002
REMARK  2 active torsions:
REMARK  status: ('A' for Active; 'I' for Inactive)
REMARK    1  A    between atoms: N_6  and  C_14
REMARK    2  A    between atoms: C_15  and  C_16
REMARK                            x       y       z     vdW  Elec       q    Type
REMARK                         _______ _______ _______ _____ _____    ______ ____
ROOT
ATOM      1  O   UNL     1      16.809   5.675  18.593  0.00  0.00    -0.252 OA
ATOM      2  O   UNL     1      10.532   8.644  19.371  0.00  0.00    -0.267 OA
ATOM      4  N   UNL     1      15.049   6.879  19.580  0.00  0.00    -0.278 N 
ATOM      5  N   UNL     1      12.845   8.566  19.703  0.00  0.00    -0.292 N 
ATOM      6  N   UNL     1      17.082   6.992  20.530  0.00  0.00    -0.287 N 
ATOM      8  C   UNL     1      14.846   7.656  20.790  0.00  0.00    +0.112 C 
ATOM      9  C   UNL     1      14.049   8.919  20.478  0.00  0.00    +0.132 C 
ATOM     10  C   UNL     1      16.260   7.903  21.307  0.00  0.00    +0.133 C 
ATOM     11  C   UNL     1      13.922   6.579  18.715  0.00  0.00    +0.128 C 
ATOM     12  C   UNL     1      13.112   7.848  18.449  0.00  0.00    +0.127 C 
ATOM     13  C   UNL     1      16.368   6.419  19.460  0.00  0.00    +0.305 C 
ATOM     14  C   UNL     1      18.496   6.831  20.784  0.00  0.00    +0.133 C 
ATOM     15  C   UNL     1      11.532   8.900  20.041  0.00  0.00    +0.285 C 
ENDROOT
BRANCH  15  16
ATOM      3  O   UNL     1      11.457  10.956  21.327  0.00  0.00    -0.350 OA
ATOM      7  N   UNL     1      11.198  11.429  22.607  0.00  0.00    -0.086 NA
ATOM     16  C   UNL     1      11.303   9.607  21.307  0.00  0.00    +0.222 A 
ATOM     17  C   UNL     1      10.946   9.166  22.554  0.00  0.00    +0.077 A 
ATOM     18  C   UNL     1      10.896  10.343  23.323  0.00  0.00    +0.157 A 
ENDBRANCH  15  16
TORSDOF 1
ENDMDL
MODEL 2
REMARK VINA RESULT:      -5.6      2.786      5.556
REMARK  Name = 75537002
REMARK  2 active torsions:
REMARK  status: ('A' for Active; 'I' for Inactive)
REMARK    1  A    between atoms: N_6  and  C_14
REMARK    2  A    between atoms: C_15  and  C_16
REMARK                            x       y       z     vdW  Elec       q    Type
REMARK                         _______ _______ _______ _____ _____    ______ ____
ROOT
ATOM      1  O   UNL     1      12.123  11.930  25.580  0.00  0.00    -0.252 OA
ATOM      2  O   UNL     1      10.442   8.427  19.773  0.00  0.00    -0.267 OA
ATOM      4  N   UNL     1      12.354  10.928  23.468  0.00  0.00    -0.278 N 
ATOM      5  N   UNL     1      11.939   9.060  21.453  0.00  0.00    -0.292 N 
ATOM      6  N   UNL     1      14.213  11.590  24.544  0.00  0.00    -0.287 N 
ATOM      8  C   UNL     1      13.431  10.686  22.523  0.00  0.00    +0.112 C 
ATOM      9  C   UNL     1      13.315   9.282  21.939  0.00  0.00    +0.132 C 
ATOM     10  C   UNL     1      14.696  10.937  23.339  0.00  0.00    +0.133 C 
ATOM     11  C   UNL     1      10.982  10.636  23.091  0.00  0.00    +0.128 C 
ATOM     12  C   UNL     1      10.894   9.243  22.470  0.00  0.00    +0.127 C 
ATOM     13  C   UNL     1      12.809  11.535  24.647  0.00  0.00    +0.305 C 
ATOM     14  C   UNL     1      15.115  12.098  25.552  0.00  0.00    +0.133 C 
ATOM     15  C   UNL     1      11.586   8.656  20.164  0.00  0.00    +0.285 C 
ENDROOT
BRANCH  15  16
ATOM      3  O   UNL     1      13.087   9.597  18.507  0.00  0.00    -0.350 OA
ATOM      7  N   UNL     1      14.095   9.235  17.621  0.00  0.00    -0.086 NA
ATOM     16  C   UNL     1      12.657   8.495  19.173  0.00  0.00    +0.222 A 
ATOM     17  C   UNL     1      13.359   7.397  18.749  0.00  0.00    +0.077 A 
ATOM     18  C   UNL     1      14.240   7.916  17.783  0.00  0.00    +0.157 A 
ENDBRANCH  15  16
TORSDOF 1
ENDMDL
MODEL 3
REMARK VINA RESULT:      -5.5      2.581      5.612
REMARK  Name = 75537002
REMARK  2 active torsions:
REMARK  status: ('A' for Active; 'I' for Inactive)
REMARK    1  A    between atoms: N_6  and  C_14
REMARK    2  A    between atoms: C_15  and  C_16
REMARK                            x       y       z     vdW  Elec       q    Type
REMARK                         _______ _______ _______ _____ _____    ______ ____
ROOT
ATOM      1  O   UNL     1      14.137  11.153  23.975  0.00  0.00    -0.252 OA
ATOM      2  O   UNL     1      14.398   7.528  18.007  0.00  0.00    -0.267 OA
ATOM      4  N   UNL     1      13.487  10.306  21.881  0.00  0.00    -0.278 N 
ATOM      5  N   UNL     1      13.790   9.396  19.274  0.00  0.00    -0.292 N 
ATOM      6  N   UNL     1      12.318  12.019  22.749  0.00  0.00    -0.287 N 
ATOM      8  C   UNL     1      12.390  10.511  20.951  0.00  0.00    +0.112 C 
ATOM      9  C   UNL     1      12.916  10.559  19.519  0.00  0.00    +0.132 C 
ATOM     10  C   UNL     1      11.737  11.802  21.436  0.00  0.00    +0.133 C 
ATOM     11  C   UNL     1      14.446   9.241  21.647  0.00  0.00    +0.128 C 
ATOM     12  C   UNL     1      14.927   9.279  20.197  0.00  0.00    +0.127 C 
ATOM     13  C   UNL     1      13.405  11.156  22.993  0.00  0.00    +0.305 C 
ATOM     14  C   UNL     1      11.885  13.097  23.609  0.00  0.00    +0.133 C 
ATOM     15  C   UNL     1      13.643   8.471  18.238  0.00  0.00    +0.285 C 
ENDROOT
BRANCH  15  16
ATOM      3  O   UNL     1      11.340   7.965  17.668  0.00  0.00    -0.350 OA
ATOM      7  N   UNL     1      10.376   8.226  16.702  0.00  0.00    -0.086 NA
ATOM     16  C   UNL     1      12.488   8.614  17.343  0.00  0.00    +0.222 A 
ATOM     17  C   UNL     1      12.311   9.304  16.174  0.00  0.00    +0.077 A 
ATOM     18  C   UNL     1      10.979   9.028  15.819  0.00  0.00    +0.157 A 
ENDBRANCH  15  16
TORSDOF 1
ENDMDL
MODEL 4
REMARK VINA RESULT:      -5.4      3.673      6.345
REMARK  Name = 75537002
REMARK  2 active torsions:
REMARK  status: ('A' for Active; 'I' for Inactive)
REMARK    1  A    between atoms: N_6  and  C_14
REMARK    2  A    between atoms: C_15  and  C_16
REMARK                            x       y       z     vdW  Elec       q    Type
REMARK                         _______ _______ _______ _____ _____    ______ ____
ROOT
ATOM      1  O   UNL     1      11.403  13.269  24.610  0.00  0.00    -0.252 OA
ATOM      2  O   UNL     1      10.679   7.357  20.957  0.00  0.00    -0.267 OA
ATOM      4  N   UNL     1      11.320  11.815  22.766  0.00  0.00    -0.278 N 
ATOM      5  N   UNL     1      11.645   9.450  21.344  0.00  0.00    -0.292 N 
ATOM      6  N   UNL     1      12.155  13.879  22.460  0.00  0.00    -0.287 N 
ATOM      8  C   UNL     1      11.572  11.901  21.337  0.00  0.00    +0.112 C 
ATOM      9  C   UNL     1      12.327  10.665  20.860  0.00  0.00    +0.132 C 
ATOM     10  C   UNL     1      12.331  13.216  21.180  0.00  0.00    +0.133 C 
ATOM     11  C   UNL     1      10.741  10.607  23.326  0.00  0.00    +0.128 C 
ATOM     12  C   UNL     1      11.483   9.378  22.803  0.00  0.00    +0.127 C 
ATOM     13  C   UNL     1      11.598  13.020  23.427  0.00  0.00    +0.305 C 
ATOM     14  C   UNL     1      12.638  15.220  22.700  0.00  0.00    +0.133 C 
ATOM     15  C   UNL     1      11.208   8.390  20.548  0.00  0.00    +0.285 C 
ENDROOT
BRANCH  15  16
ATOM      3  O   UNL     1      10.262   8.503  18.317  0.00  0.00    -0.350 OA
ATOM      7  N   UNL     1      10.632   8.617  16.983  0.00  0.00    -0.086 NA
ATOM     16  C   UNL     1      11.375   8.503  19.094  0.00  0.00    +0.222 A 
ATOM     17  C   UNL     1      12.488   8.614  18.303  0.00  0.00    +0.077 A 
ATOM     18  C   UNL     1      11.967   8.681  16.999  0.00  0.00    +0.157 A 
ENDBRANCH  15  16
TORSDOF 1
ENDMDL
MODEL 5
REMARK VINA RESULT:      -5.3     30.791     31.633
REMARK  Name = 75537002
REMARK  2 active torsions:
REMARK  status: ('A' for Active; 'I' for Inactive)
REMARK    1  A    between atoms: N_6  and  C_14
REMARK    2  A    between atoms: C_15  and  C_16
REMARK                            x       y       z     vdW  Elec       q    Type
REMARK                         _______ _______ _______ _____ _____    ______ ____
ROOT
ATOM      1  O   UNL     1     -15.443  -0.534  30.213  0.00  0.00    -0.252 OA
ATOM      2  O   UNL     1     -14.171   4.388  35.007  0.00  0.00    -0.267 OA
ATOM      4  N   UNL     1     -15.104   1.595  31.148  0.00  0.00    -0.278 N 
ATOM      5  N   UNL     1     -15.210   3.603  33.065  0.00  0.00    -0.292 N 
ATOM      6  N   UNL     1     -15.927   1.465  29.061  0.00  0.00    -0.287 N 
ATOM      8  C   UNL     1     -15.175   2.974  30.695  0.00  0.00    +0.112 C 
ATOM      9  C   UNL     1     -15.845   3.843  31.755  0.00  0.00    +0.132 C 
ATOM     10  C   UNL     1     -15.929   2.884  29.371  0.00  0.00    +0.133 C 
ATOM     11  C   UNL     1     -14.583   1.293  32.469  0.00  0.00    +0.128 C 
ATOM     12  C   UNL     1     -15.234   2.203  33.511  0.00  0.00    +0.127 C 
ATOM     13  C   UNL     1     -15.483   0.688  30.148  0.00  0.00    +0.305 C 
ATOM     14  C   UNL     1     -16.457   0.953  27.817  0.00  0.00    +0.133 C 
ATOM     15  C   UNL     1     -14.660   4.583  33.894  0.00  0.00    +0.285 C 
ENDROOT
BRANCH  15  16
ATOM      3  O   UNL     1     -15.756   6.725  33.590  0.00  0.00    -0.350 OA
ATOM      7  N   UNL     1     -15.539   7.993  33.066  0.00  0.00    -0.086 NA
ATOM     16  C   UNL     1     -14.643   5.969  33.410  0.00  0.00    +0.222 A 
ATOM     17  C   UNL     1     -13.682   6.707  32.772  0.00  0.00    +0.077 A 
ATOM     18  C   UNL     1     -14.294   7.959  32.582  0.00  0.00    +0.157 A 
ENDBRANCH  15  16
TORSDOF 1
ENDMDL
MODEL 6
REMARK VINA RESULT:      -5.3      2.901      4.260
REMARK  Name = 75537002
REMARK  2 active torsions:
REMARK  status: ('A' for Active; 'I' for Inactive)
REMARK    1  A    between atoms: N_6  and  C_14
REMARK    2  A    between atoms: C_15  and  C_16
REMARK                            x       y       z     vdW  Elec       q    Type
REMARK                         _______ _______ _______ _____ _____    ______ ____
ROOT
ATOM      1  O   UNL     1      12.046   6.334  19.549  0.00  0.00    -0.252 OA
ATOM      2  O   UNL     1      10.701  11.086  24.491  0.00  0.00    -0.267 OA
ATOM      4  N   UNL     1      12.186   8.328  20.784  0.00  0.00    -0.278 N 
ATOM      5  N   UNL     1      11.294  10.467  22.317  0.00  0.00    -0.292 N 
ATOM      6  N   UNL     1      13.213   8.236  18.787  0.00  0.00    -0.287 N 
ATOM      8  C   UNL     1      12.893   9.593  20.676  0.00  0.00    +0.112 C 
ATOM      9  C   UNL     1      11.963  10.748  21.033  0.00  0.00    +0.132 C 
ATOM     10  C   UNL     1      13.404   9.603  19.238  0.00  0.00    +0.133 C 
ATOM     11  C   UNL     1      11.422   8.026  21.981  0.00  0.00    +0.128 C 
ATOM     12  C   UNL     1      10.530   9.212  22.347  0.00  0.00    +0.127 C 
ATOM     13  C   UNL     1      12.435   7.486  19.690  0.00  0.00    +0.305 C 
ATOM     14  C   UNL     1      13.671   7.786  17.491  0.00  0.00    +0.133 C 
ATOM     15  C   UNL     1      11.297  11.301  23.436  0.00  0.00    +0.285 C 
ENDROOT
BRANCH  15  16
ATOM      3  O   UNL     1      13.399  12.483  23.692  0.00  0.00    -0.350 OA
ATOM      7  N   UNL     1      13.957  13.750  23.571  0.00  0.00    -0.086 NA
ATOM     16  C   UNL     1      12.081  12.540  23.373  0.00  0.00    +0.222 A 
ATOM     17  C   UNL     1      11.743  13.825  23.040  0.00  0.00    +0.077 A 
ATOM     18  C   UNL     1      12.949  14.536  23.181  0.00  0.00    +0.157 A 
ENDBRANCH  15  16
TORSDOF 1
ENDMDL
MODEL 7
REMARK VINA RESULT:      -5.2     14.735     17.134
REMARK  Name = 75537002
REMARK  2 active torsions:
REMARK  status: ('A' for Active; 'I' for Inactive)
REMARK    1  A    between atoms: N_6  and  C_14
REMARK    2  A    between atoms: C_15  and  C_16
REMARK                            x       y       z     vdW  Elec       q    Type
REMARK                         _______ _______ _______ _____ _____    ______ ____
ROOT
ATOM      1  O   UNL     1       8.481   7.531   8.460  0.00  0.00    -0.252 OA
ATOM      2  O   UNL     1      10.544   7.148   1.796  0.00  0.00    -0.267 OA
ATOM      4  N   UNL     1       9.568   6.740   6.533  0.00  0.00    -0.278 N 
ATOM      5  N   UNL     1       9.929   6.184   3.835  0.00  0.00    -0.292 N 
ATOM      6  N   UNL     1       9.513   5.414   8.346  0.00  0.00    -0.287 N 
ATOM      8  C   UNL     1      10.379   5.590   6.171  0.00  0.00    +0.112 C 
ATOM      9  C   UNL     1       9.969   5.068   4.798  0.00  0.00    +0.132 C 
ATOM     10  C   UNL     1      10.157   4.612   7.321  0.00  0.00    +0.133 C 
ATOM     11  C   UNL     1       9.402   7.834   5.592  0.00  0.00    +0.128 C 
ATOM     12  C   UNL     1       9.034   7.288   4.213  0.00  0.00    +0.127 C 
ATOM     13  C   UNL     1       9.111   6.672   7.857  0.00  0.00    +0.305 C 
ATOM     14  C   UNL     1       9.221   4.886   9.660  0.00  0.00    +0.133 C 
ATOM     15  C   UNL     1      10.614   6.236   2.619  0.00  0.00    +0.285 C 
ENDROOT
BRANCH  15  16
ATOM      3  O   UNL     1      12.834   5.377   2.154  0.00  0.00    -0.350 OA
ATOM      7  N   UNL     1      13.500   4.201   1.834  0.00  0.00    -0.086 NA
ATOM     16  C   UNL     1      11.507   5.121   2.281  0.00  0.00    +0.222 A 
ATOM     17  C   UNL     1      11.270   3.792   2.050  0.00  0.00    +0.077 A 
ATOM     18  C   UNL     1      12.546   3.267   1.777  0.00  0.00    +0.157 A 
ENDBRANCH  15  16
TORSDOF 1
ENDMDL
MODEL 8
REMARK VINA RESULT:      -5.1     27.262     28.480
REMARK  Name = 75537002
REMARK  2 active torsions:
REMARK  status: ('A' for Active; 'I' for Inactive)
REMARK    1  A    between atoms: N_6  and  C_14
REMARK    2  A    between atoms: C_15  and  C_16
REMARK                            x       y       z     vdW  Elec       q    Type
REMARK                         _______ _______ _______ _____ _____    ______ ____
ROOT
ATOM      1  O   UNL     1      -4.179 -11.584  18.758  0.00  0.00    -0.252 OA
ATOM      2  O   UNL     1     -10.908  -9.761  19.216  0.00  0.00    -0.267 OA
ATOM      4  N   UNL     1      -6.217 -10.534  18.242  0.00  0.00    -0.278 N 
ATOM      5  N   UNL     1      -8.970 -10.249  18.004  0.00  0.00    -0.292 N 
ATOM      6  N   UNL     1      -4.560 -10.453  16.725  0.00  0.00    -0.287 N 
ATOM      8  C   UNL     1      -6.730  -9.681  17.184  0.00  0.00    +0.112 C 
ATOM      9  C   UNL     1      -8.138 -10.116  16.793  0.00  0.00    +0.132 C 
ATOM     10  C   UNL     1      -5.689  -9.809  16.075  0.00  0.00    +0.133 C 
ATOM     11  C   UNL     1      -7.025 -10.790  19.421  0.00  0.00    +0.128 C 
ATOM     12  C   UNL     1      -8.443 -11.183  19.009  0.00  0.00    +0.127 C 
ATOM     13  C   UNL     1      -4.894 -10.936  18.005  0.00  0.00    +0.305 C 
ATOM     14  C   UNL     1      -3.305 -10.668  16.042  0.00  0.00    +0.133 C 
ATOM     15  C   UNL     1     -10.194  -9.615  18.225  0.00  0.00    +0.285 C 
ENDROOT
BRANCH  15  16
ATOM      3  O   UNL     1     -10.225  -7.402  17.231  0.00  0.00    -0.350 OA
ATOM      7  N   UNL     1     -10.803  -6.685  16.191  0.00  0.00    -0.086 NA
ATOM     16  C   UNL     1     -10.682  -8.680  17.203  0.00  0.00    +0.222 A 
ATOM     17  C   UNL     1     -11.558  -8.833  16.162  0.00  0.00    +0.077 A 
ATOM     18  C   UNL     1     -11.596  -7.560  15.566  0.00  0.00    +0.157 A 
ENDBRANCH  15  16
TORSDOF 1
ENDMDL
MODEL 9
REMARK VINA RESULT:      -5.1     29.936     31.688
REMARK  Name = 75537002
REMARK  2 active torsions:
REMARK  status: ('A' for Active; 'I' for Inactive)
REMARK    1  A    between atoms: N_6  and  C_14
REMARK    2  A    between atoms: C_15  and  C_16
REMARK                            x       y       z     vdW  Elec       q    Type
REMARK                         _______ _______ _______ _____ _____    ______ ____
ROOT
ATOM      1  O   UNL     1     -17.566   3.153  21.903  0.00  0.00    -0.252 OA
ATOM      2  O   UNL     1     -18.309   0.038  28.113  0.00  0.00    -0.267 OA
ATOM      4  N   UNL     1     -17.074   2.467  24.096  0.00  0.00    -0.278 N 
ATOM      5  N   UNL     1     -17.568   1.781  26.743  0.00  0.00    -0.292 N 
ATOM      6  N   UNL     1     -15.804   4.074  23.171  0.00  0.00    -0.287 N 
ATOM      8  C   UNL     1     -16.033   2.721  25.076  0.00  0.00    +0.112 C 
ATOM      9  C   UNL     1     -16.647   2.899  26.462  0.00  0.00    +0.132 C 
ATOM     10  C   UNL     1     -15.313   3.952  24.533  0.00  0.00    +0.133 C 
ATOM     11  C   UNL     1     -18.076   1.447  24.352  0.00  0.00    +0.128 C 
ATOM     12  C   UNL     1     -18.647   1.615  25.759  0.00  0.00    +0.127 C 
ATOM     13  C   UNL     1     -16.897   3.220  22.926  0.00  0.00    +0.305 C 
ATOM     14  C   UNL     1     -15.286   5.067  22.257  0.00  0.00    +0.133 C 
ATOM     15  C   UNL     1     -17.513   0.941  27.857  0.00  0.00    +0.285 C 
ENDROOT
BRANCH  15  16
ATOM      3  O   UNL     1     -15.372   0.259  28.770  0.00  0.00    -0.350 OA
ATOM      7  N   UNL     1     -14.445   0.606  29.745  0.00  0.00    -0.086 NA
ATOM     16  C   UNL     1     -16.413   1.129  28.810  0.00  0.00    +0.222 A 
ATOM     17  C   UNL     1     -16.202   2.055  29.798  0.00  0.00    +0.077 A 
ATOM     18  C   UNL     1     -14.962   1.681  30.347  0.00  0.00    +0.157 A 
ENDBRANCH  15  16
TORSDOF 1
ENDMDL
MODEL 10
REMARK VINA RESULT:      -5.1      3.456      5.272
REMARK  Name = 75537002
REMARK  2 active torsions:
REMARK  status: ('A' for Active; 'I' for Inactive)
REMARK    1  A    between atoms: N_6  and  C_14
REMARK    2  A    between atoms: C_15  and  C_16
REMARK                            x       y       z     vdW  Elec       q    Type
REMARK                         _______ _______ _______ _____ _____    ______ ____
ROOT
ATOM      1  O   UNL     1      13.902   7.468  21.878  0.00  0.00    -0.252 OA
ATOM      2  O   UNL     1      13.085  14.259  23.303  0.00  0.00    -0.267 OA
ATOM      4  N   UNL     1      12.857   9.559  22.111  0.00  0.00    -0.278 N 
ATOM      5  N   UNL     1      12.320  12.052  23.215  0.00  0.00    -0.292 N 
ATOM      6  N   UNL     1      11.563   7.751  21.782  0.00  0.00    -0.287 N 
ATOM      8  C   UNL     1      11.510  10.090  21.987  0.00  0.00    +0.112 C 
ATOM      9  C   UNL     1      11.223  11.070  23.120  0.00  0.00    +0.132 C 
ATOM     10  C   UNL     1      10.627   8.844  21.979  0.00  0.00    +0.133 C 
ATOM     11  C   UNL     1      13.975  10.464  22.308  0.00  0.00    +0.128 C 
ATOM     12  C   UNL     1      13.652  11.465  23.417  0.00  0.00    +0.127 C 
ATOM     13  C   UNL     1      12.901   8.171  21.916  0.00  0.00    +0.305 C 
ATOM     14  C   UNL     1      11.120   6.387  21.608  0.00  0.00    +0.133 C 
ATOM     15  C   UNL     1      12.175  13.440  23.179  0.00  0.00    +0.285 C 
ENDROOT
BRANCH  15  16
ATOM      3  O   UNL     1      10.371  14.082  21.689  0.00  0.00    -0.350 OA
ATOM      7  N   UNL     1       9.091  14.623  21.701  0.00  0.00    -0.086 NA
ATOM     16  C   UNL     1      10.831  13.989  22.963  0.00  0.00    +0.222 A 
ATOM     17  C   UNL     1       9.881  14.460  23.831  0.00  0.00    +0.077 A 
ATOM     18  C   UNL     1       8.819  14.841  22.991  0.00  0.00    +0.157 A 
ENDBRANCH  15  16
TORSDOF 1
ENDMDL
