MODEL 1
REMARK VINA RESULT:      -6.3      0.000      0.000
REMARK  Name = 45783407
REMARK  9 active torsions:
REMARK  status: ('A' for Active; 'I' for Inactive)
REMARK    1  A    between atoms: O_2  and  C_22
REMARK    2  A    between atoms: O_2  and  C_26
REMARK    3  A    between atoms: O_3  and  C_27
REMARK    4  A    between atoms: O_3  and  C_28
REMARK    5  A    between atoms: N_4  and  C_12
REMARK    6  A    between atoms: C_8  and  C_13
REMARK    7  A    between atoms: C_12  and  C_14
REMARK    8  A    between atoms: C_17  and  C_18
REMARK    9  A    between atoms: C_26  and  C_27
REMARK                            x       y       z     vdW  Elec       q    Type
REMARK                         _______ _______ _______ _____ _____    ______ ____
ROOT
ATOM      1  O   UNL     1      13.978   6.698  20.121  0.00  0.00    -0.336 OA
ATOM      5  N   UNL     1      15.727   7.509  18.981  0.00  0.00    -0.190 NA
ATOM      6  N   UNL     1      15.096   6.521  20.946  0.00  0.00    -0.056 NA
ATOM     13  C   UNL     1      14.438   7.284  18.984  0.00  0.00    +0.245 A 
ATOM     17  C   UNL     1      16.088   7.023  20.204  0.00  0.00    +0.207 A 
ENDROOT
BRANCH  17  18
ATOM      7  N   UNL     1      19.200   8.128  21.932  0.00  0.00    -0.221 NA
ATOM     18  C   UNL     1      17.449   7.056  20.656  0.00  0.00    +0.084 A 
ATOM     22  C   UNL     1      17.927   8.059  21.483  0.00  0.00    +0.226 A 
ATOM     23  C   UNL     1      18.335   6.058  20.265  0.00  0.00    +0.018 A 
ATOM     24  C   UNL     1      19.654   6.095  20.706  0.00  0.00    +0.021 A 
ATOM     25  C   UNL     1      20.032   7.142  21.530  0.00  0.00    +0.114 A 
BRANCH  22   2
ATOM      2  O   UNL     1      17.090   9.065  21.896  0.00  0.00    -0.474 OA
BRANCH   2  26
ATOM     26  C   UNL     1      17.579  10.395  21.764  0.00  0.00    +0.258 C 
BRANCH  26  27
ATOM     27  C   UNL     1      17.124  10.960  20.433  0.00  0.00    +0.200 C 
BRANCH  27   3
ATOM      3  O   UNL     1      15.739  10.687  20.261  0.00  0.00    -0.380 OA
ATOM     28  C   UNL     1      15.281  11.100  18.982  0.00  0.00    +0.194 C 
ENDBRANCH  27   3
ENDBRANCH  26  27
ENDBRANCH   2  26
ENDBRANCH  22   2
ENDBRANCH  17  18
BRANCH  13   8
ATOM      4  N   UNL     1      12.548   8.735  18.264  0.00  0.00    -0.287 NA
ATOM      8  C   UNL     1      13.407   7.585  17.916  0.00  0.00    +0.146 C 
ATOM      9  C   UNL     1      14.044   7.967  16.567  0.00  0.00    +0.030 C 
ATOM     10  C   UNL     1      13.437   9.316  16.208  0.00  0.00    +0.017 C 
ATOM     11  C   UNL     1      12.145   9.346  16.998  0.00  0.00    +0.085 C 
BRANCH   4  12
ATOM     12  C   UNL     1      11.403   8.368  19.086  0.00  0.00    +0.120 C 
BRANCH  12  14
ATOM     14  C   UNL     1      11.417   9.072  20.416  0.00  0.00    -0.033 A 
ATOM     15  C   UNL     1      10.761   8.509  21.510  0.00  0.00    +0.005 A 
ATOM     16  C   UNL     1      12.088  10.287  20.555  0.00  0.00    +0.005 A 
ATOM     19  C   UNL     1      10.775   9.162  22.743  0.00  0.00    +0.000 A 
ATOM     20  C   UNL     1      12.101  10.940  21.788  0.00  0.00    +0.000 A 
ATOM     21  C   UNL     1      11.445  10.377  22.882  0.00  0.00    +0.000 A 
ENDBRANCH  12  14
ENDBRANCH   4  12
ENDBRANCH  13   8
TORSDOF 8
ENDMDL
MODEL 2
REMARK VINA RESULT:      -6.2      1.804      6.762
REMARK  Name = 45783407
REMARK  9 active torsions:
REMARK  status: ('A' for Active; 'I' for Inactive)
REMARK    1  A    between atoms: O_2  and  C_22
REMARK    2  A    between atoms: O_2  and  C_26
REMARK    3  A    between atoms: O_3  and  C_27
REMARK    4  A    between atoms: O_3  and  C_28
REMARK    5  A    between atoms: N_4  and  C_12
REMARK    6  A    between atoms: C_8  and  C_13
REMARK    7  A    between atoms: C_12  and  C_14
REMARK    8  A    between atoms: C_17  and  C_18
REMARK    9  A    between atoms: C_26  and  C_27
REMARK                            x       y       z     vdW  Elec       q    Type
REMARK                         _______ _______ _______ _____ _____    ______ ____
ROOT
ATOM      1  O   UNL     1      14.998  11.124  20.547  0.00  0.00    -0.336 OA
ATOM      5  N   UNL     1      14.892   9.367  21.932  0.00  0.00    -0.190 NA
ATOM      6  N   UNL     1      13.718  10.579  20.387  0.00  0.00    -0.056 NA
ATOM     13  C   UNL     1      15.624  10.351  21.473  0.00  0.00    +0.245 A 
ATOM     17  C   UNL     1      13.732   9.548  21.237  0.00  0.00    +0.207 A 
ENDROOT
BRANCH  17  18
ATOM      7  N   UNL     1      11.384   6.689  20.785  0.00  0.00    -0.221 NA
ATOM     18  C   UNL     1      12.605   8.679  21.414  0.00  0.00    +0.084 A 
ATOM     22  C   UNL     1      12.429   7.535  20.652  0.00  0.00    +0.226 A 
ATOM     23  C   UNL     1      11.645   8.972  22.377  0.00  0.00    +0.018 A 
ATOM     24  C   UNL     1      10.554   8.125  22.543  0.00  0.00    +0.021 A 
ATOM     25  C   UNL     1      10.471   7.007  21.730  0.00  0.00    +0.114 A 
BRANCH  22   2
ATOM      2  O   UNL     1      13.349   7.204  19.689  0.00  0.00    -0.474 OA
BRANCH   2  26
ATOM     26  C   UNL     1      12.942   7.363  18.335  0.00  0.00    +0.258 C 
BRANCH  26  27
ATOM     27  C   UNL     1      14.117   7.869  17.522  0.00  0.00    +0.200 C 
BRANCH  27   3
ATOM      3  O   UNL     1      13.696   8.080  16.180  0.00  0.00    -0.380 OA
ATOM     28  C   UNL     1      13.136   9.374  16.006  0.00  0.00    +0.194 C 
ENDBRANCH  27   3
ENDBRANCH  26  27
ENDBRANCH   2  26
ENDBRANCH  22   2
ENDBRANCH  17  18
BRANCH  13   8
ATOM      4  N   UNL     1      18.049   9.901  21.142  0.00  0.00    -0.287 NA
ATOM      8  C   UNL     1      17.044  10.738  21.828  0.00  0.00    +0.146 C 
ATOM      9  C   UNL     1      17.388  12.181  21.413  0.00  0.00    +0.030 C 
ATOM     10  C   UNL     1      18.633  12.059  20.546  0.00  0.00    +0.017 C 
ATOM     11  C   UNL     1      19.237  10.737  20.974  0.00  0.00    +0.085 C 
BRANCH   4  12
ATOM     12  C   UNL     1      18.345   8.663  21.850  0.00  0.00    +0.120 C 
BRANCH  12  14
ATOM     14  C   UNL     1      18.262   7.464  20.944  0.00  0.00    -0.033 A 
ATOM     15  C   UNL     1      19.319   6.556  20.891  0.00  0.00    +0.005 A 
ATOM     16  C   UNL     1      17.128   7.261  20.158  0.00  0.00    +0.005 A 
ATOM     19  C   UNL     1      19.243   5.445  20.050  0.00  0.00    +0.000 A 
ATOM     20  C   UNL     1      17.052   6.150  19.317  0.00  0.00    +0.000 A 
ATOM     21  C   UNL     1      18.109   5.242  19.264  0.00  0.00    +0.000 A 
ENDBRANCH  12  14
ENDBRANCH   4  12
ENDBRANCH  13   8
TORSDOF 8
ENDMDL
MODEL 3
REMARK VINA RESULT:      -6.1     25.878     28.835
REMARK  Name = 45783407
REMARK  9 active torsions:
REMARK  status: ('A' for Active; 'I' for Inactive)
REMARK    1  A    between atoms: O_2  and  C_22
REMARK    2  A    between atoms: O_2  and  C_26
REMARK    3  A    between atoms: O_3  and  C_27
REMARK    4  A    between atoms: O_3  and  C_28
REMARK    5  A    between atoms: N_4  and  C_12
REMARK    6  A    between atoms: C_8  and  C_13
REMARK    7  A    between atoms: C_12  and  C_14
REMARK    8  A    between atoms: C_17  and  C_18
REMARK    9  A    between atoms: C_26  and  C_27
REMARK                            x       y       z     vdW  Elec       q    Type
REMARK                         _______ _______ _______ _____ _____    ______ ____
ROOT
ATOM      1  O   UNL     1      -5.339 -12.364  15.180  0.00  0.00    -0.336 OA
ATOM      5  N   UNL     1      -5.349 -10.133  15.378  0.00  0.00    -0.190 NA
ATOM      6  N   UNL     1      -6.658 -12.007  15.487  0.00  0.00    -0.056 NA
ATOM     13  C   UNL     1      -4.635 -11.202  15.136  0.00  0.00    +0.245 A 
ATOM     17  C   UNL     1      -6.584 -10.677  15.588  0.00  0.00    +0.207 A 
ENDROOT
BRANCH  17  18
ATOM      7  N   UNL     1      -9.018  -8.613  17.513  0.00  0.00    -0.221 NA
ATOM     18  C   UNL     1      -7.722  -9.862  15.898  0.00  0.00    +0.084 A 
ATOM     22  C   UNL     1      -7.959  -9.383  17.177  0.00  0.00    +0.226 A 
ATOM     23  C   UNL     1      -8.631  -9.527  14.900  0.00  0.00    +0.018 A 
ATOM     24  C   UNL     1      -9.734  -8.737  15.208  0.00  0.00    +0.021 A 
ATOM     25  C   UNL     1      -9.880  -8.310  16.517  0.00  0.00    +0.114 A 
BRANCH  22   2
ATOM      2  O   UNL     1      -7.091  -9.686  18.195  0.00  0.00    -0.474 OA
BRANCH   2  26
ATOM     26  C   UNL     1      -7.491 -10.718  19.089  0.00  0.00    +0.258 C 
BRANCH  26  27
ATOM     27  C   UNL     1      -6.408 -11.778  19.136  0.00  0.00    +0.200 C 
BRANCH  27   3
ATOM      3  O   UNL     1      -5.168 -11.193  18.757  0.00  0.00    -0.380 OA
ATOM     28  C   UNL     1      -4.069 -12.007  19.140  0.00  0.00    +0.194 C 
ENDBRANCH  27   3
ENDBRANCH  26  27
ENDBRANCH   2  26
ENDBRANCH  22   2
ENDBRANCH  17  18
BRANCH  13   8
ATOM      4  N   UNL     1      -2.746 -10.431  13.711  0.00  0.00    -0.287 NA
ATOM      8  C   UNL     1      -3.159 -11.319  14.816  0.00  0.00    +0.146 C 
ATOM      9  C   UNL     1      -2.261 -10.915  16.000  0.00  0.00    +0.030 C 
ATOM     10  C   UNL     1      -1.337  -9.839  15.448  0.00  0.00    +0.017 C 
ATOM     11  C   UNL     1      -1.343 -10.094  13.955  0.00  0.00    +0.085 C 
BRANCH   4  12
ATOM     12  C   UNL     1      -2.947 -11.020  12.394  0.00  0.00    +0.120 C 
BRANCH  12  14
ATOM     14  C   UNL     1      -3.723 -10.107  11.483  0.00  0.00    -0.033 A 
ATOM     15  C   UNL     1      -3.159  -9.675  10.283  0.00  0.00    +0.005 A 
ATOM     16  C   UNL     1      -5.007  -9.693  11.839  0.00  0.00    +0.005 A 
ATOM     19  C   UNL     1      -3.878  -8.828   9.439  0.00  0.00    +0.000 A 
ATOM     20  C   UNL     1      -5.726  -8.846  10.995  0.00  0.00    +0.000 A 
ATOM     21  C   UNL     1      -5.161  -8.414   9.795  0.00  0.00    +0.000 A 
ENDBRANCH  12  14
ENDBRANCH   4  12
ENDBRANCH  13   8
TORSDOF 8
ENDMDL
MODEL 4
REMARK VINA RESULT:      -5.6     26.429     29.383
REMARK  Name = 45783407
REMARK  9 active torsions:
REMARK  status: ('A' for Active; 'I' for Inactive)
REMARK    1  A    between atoms: O_2  and  C_22
REMARK    2  A    between atoms: O_2  and  C_26
REMARK    3  A    between atoms: O_3  and  C_27
REMARK    4  A    between atoms: O_3  and  C_28
REMARK    5  A    between atoms: N_4  and  C_12
REMARK    6  A    between atoms: C_8  and  C_13
REMARK    7  A    between atoms: C_12  and  C_14
REMARK    8  A    between atoms: C_17  and  C_18
REMARK    9  A    between atoms: C_26  and  C_27
REMARK                            x       y       z     vdW  Elec       q    Type
REMARK                         _______ _______ _______ _____ _____    ______ ____
ROOT
ATOM      1  O   UNL     1      -5.245  -9.486  16.054  0.00  0.00    -0.336 OA
ATOM      5  N   UNL     1      -5.890 -11.504  16.781  0.00  0.00    -0.190 NA
ATOM      6  N   UNL     1      -6.496  -9.302  16.656  0.00  0.00    -0.056 NA
ATOM     13  C   UNL     1      -4.963 -10.811  16.171  0.00  0.00    +0.245 A 
ATOM     17  C   UNL     1      -6.811 -10.536  17.060  0.00  0.00    +0.207 A 
ENDROOT
BRANCH  17  18
ATOM      7  N   UNL     1     -10.450 -10.948  17.747  0.00  0.00    -0.221 NA
ATOM     18  C   UNL     1      -8.035 -10.835  17.744  0.00  0.00    +0.084 A 
ATOM     22  C   UNL     1      -9.273 -10.678  17.141  0.00  0.00    +0.226 A 
ATOM     23  C   UNL     1      -8.005 -11.301  19.054  0.00  0.00    +0.018 A 
ATOM     24  C   UNL     1      -9.196 -11.590  19.711  0.00  0.00    +0.021 A 
ATOM     25  C   UNL     1     -10.381 -11.397  19.020  0.00  0.00    +0.114 A 
BRANCH  22   2
ATOM      2  O   UNL     1      -9.355 -10.221  15.850  0.00  0.00    -0.474 OA
BRANCH   2  26
ATOM     26  C   UNL     1     -10.326  -9.214  15.589  0.00  0.00    +0.258 C 
BRANCH  26  27
ATOM     27  C   UNL     1      -9.769  -7.869  16.011  0.00  0.00    +0.200 C 
BRANCH  27   3
ATOM      3  O   UNL     1     -10.717  -7.214  16.845  0.00  0.00    -0.380 OA
ATOM     28  C   UNL     1     -11.287  -6.085  16.200  0.00  0.00    +0.194 C 
ENDBRANCH  27   3
ENDBRANCH  26  27
ENDBRANCH   2  26
ENDBRANCH  22   2
ENDBRANCH  17  18
BRANCH  13   8
ATOM      4  N   UNL     1      -3.322 -10.608  14.311  0.00  0.00    -0.287 NA
ATOM      8  C   UNL     1      -3.644 -11.274  15.589  0.00  0.00    +0.146 C 
ATOM      9  C   UNL     1      -2.447 -10.959  16.507  0.00  0.00    +0.030 C 
ATOM     10  C   UNL     1      -1.479 -10.167  15.639  0.00  0.00    +0.017 C 
ATOM     11  C   UNL     1      -1.862 -10.560  14.227  0.00  0.00    +0.085 C 
BRANCH   4  12
ATOM     12  C   UNL     1      -3.917 -11.266  13.155  0.00  0.00    +0.120 C 
BRANCH  12  14
ATOM     14  C   UNL     1      -4.183 -10.298  12.034  0.00  0.00    -0.033 A 
ATOM     15  C   UNL     1      -5.352  -9.537  12.033  0.00  0.00    +0.005 A 
ATOM     16  C   UNL     1      -3.262 -10.162  10.996  0.00  0.00    +0.005 A 
ATOM     19  C   UNL     1      -5.599  -8.640  10.994  0.00  0.00    +0.000 A 
ATOM     20  C   UNL     1      -3.509  -9.264   9.956  0.00  0.00    +0.000 A 
ATOM     21  C   UNL     1      -4.678  -8.503   9.956  0.00  0.00    +0.000 A 
ENDBRANCH  12  14
ENDBRANCH   4  12
ENDBRANCH  13   8
TORSDOF 8
ENDMDL
MODEL 5
REMARK VINA RESULT:      -5.6     26.296     29.110
REMARK  Name = 45783407
REMARK  9 active torsions:
REMARK  status: ('A' for Active; 'I' for Inactive)
REMARK    1  A    between atoms: O_2  and  C_22
REMARK    2  A    between atoms: O_2  and  C_26
REMARK    3  A    between atoms: O_3  and  C_27
REMARK    4  A    between atoms: O_3  and  C_28
REMARK    5  A    between atoms: N_4  and  C_12
REMARK    6  A    between atoms: C_8  and  C_13
REMARK    7  A    between atoms: C_12  and  C_14
REMARK    8  A    between atoms: C_17  and  C_18
REMARK    9  A    between atoms: C_26  and  C_27
REMARK                            x       y       z     vdW  Elec       q    Type
REMARK                         _______ _______ _______ _____ _____    ______ ____
ROOT
ATOM      1  O   UNL     1      -4.728 -12.939  14.912  0.00  0.00    -0.336 OA
ATOM      5  N   UNL     1      -4.560 -11.462  16.587  0.00  0.00    -0.190 NA
ATOM      6  N   UNL     1      -5.916 -13.047  15.646  0.00  0.00    -0.056 NA
ATOM     13  C   UNL     1      -3.986 -11.986  15.534  0.00  0.00    +0.245 A 
ATOM     17  C   UNL     1      -5.742 -12.145  16.616  0.00  0.00    +0.207 A 
ENDROOT
BRANCH  17  18
ATOM      7  N   UNL     1      -8.668 -10.687  18.405  0.00  0.00    -0.221 NA
ATOM     18  C   UNL     1      -6.727 -11.902  17.630  0.00  0.00    +0.084 A 
ATOM     22  C   UNL     1      -7.721 -10.949  17.477  0.00  0.00    +0.226 A 
ATOM     23  C   UNL     1      -6.705 -12.635  18.811  0.00  0.00    +0.018 A 
ATOM     24  C   UNL     1      -7.664 -12.394  19.790  0.00  0.00    +0.021 A 
ATOM     25  C   UNL     1      -8.614 -11.419  19.540  0.00  0.00    +0.114 A 
BRANCH  22   2
ATOM      2  O   UNL     1      -7.783 -10.200  16.329  0.00  0.00    -0.474 OA
BRANCH   2  26
ATOM     26  C   UNL     1      -8.492  -8.969  16.408  0.00  0.00    +0.258 C 
BRANCH  26  27
ATOM     27  C   UNL     1      -9.571  -8.951  15.343  0.00  0.00    +0.200 C 
BRANCH  27   3
ATOM      3  O   UNL     1     -10.680  -8.197  15.819  0.00  0.00    -0.380 OA
ATOM     28  C   UNL     1     -10.415  -7.627  17.092  0.00  0.00    +0.194 C 
ENDBRANCH  27   3
ENDBRANCH  26  27
ENDBRANCH   2  26
ENDBRANCH  22   2
ENDBRANCH  17  18
BRANCH  13   8
ATOM      4  N   UNL     1      -2.714 -10.672  13.846  0.00  0.00    -0.287 NA
ATOM      8  C   UNL     1      -2.634 -11.678  14.924  0.00  0.00    +0.146 C 
ATOM      9  C   UNL     1      -1.645 -11.082  15.943  0.00  0.00    +0.030 C 
ATOM     10  C   UNL     1      -1.176  -9.773  15.323  0.00  0.00    +0.017 C 
ATOM     11  C   UNL     1      -1.432  -9.968  13.842  0.00  0.00    +0.085 C 
BRANCH   4  12
ATOM     12  C   UNL     1      -3.028 -11.247  12.545  0.00  0.00    +0.120 C 
BRANCH  12  14
ATOM     14  C   UNL     1      -3.722 -10.259  11.646  0.00  0.00    -0.033 A 
ATOM     15  C   UNL     1      -4.965  -9.741  12.009  0.00  0.00    +0.005 A 
ATOM     16  C   UNL     1      -3.122  -9.861  10.452  0.00  0.00    +0.005 A 
ATOM     19  C   UNL     1      -5.608  -8.825  11.176  0.00  0.00    +0.000 A 
ATOM     20  C   UNL     1      -3.765  -8.945   9.619  0.00  0.00    +0.000 A 
ATOM     21  C   UNL     1      -5.008  -8.427   9.981  0.00  0.00    +0.000 A 
ENDBRANCH  12  14
ENDBRANCH   4  12
ENDBRANCH  13   8
TORSDOF 8
ENDMDL
MODEL 6
REMARK VINA RESULT:      -5.4     26.324     29.019
REMARK  Name = 45783407
REMARK  9 active torsions:
REMARK  status: ('A' for Active; 'I' for Inactive)
REMARK    1  A    between atoms: O_2  and  C_22
REMARK    2  A    between atoms: O_2  and  C_26
REMARK    3  A    between atoms: O_3  and  C_27
REMARK    4  A    between atoms: O_3  and  C_28
REMARK    5  A    between atoms: N_4  and  C_12
REMARK    6  A    between atoms: C_8  and  C_13
REMARK    7  A    between atoms: C_12  and  C_14
REMARK    8  A    between atoms: C_17  and  C_18
REMARK    9  A    between atoms: C_26  and  C_27
REMARK                            x       y       z     vdW  Elec       q    Type
REMARK                         _______ _______ _______ _____ _____    ______ ____
ROOT
ATOM      1  O   UNL     1      -8.383 -11.403  13.327  0.00  0.00    -0.336 OA
ATOM      5  N   UNL     1      -7.267  -9.468  13.490  0.00  0.00    -0.190 NA
ATOM      6  N   UNL     1      -7.402 -11.434  12.328  0.00  0.00    -0.056 NA
ATOM     13  C   UNL     1      -8.235 -10.212  13.963  0.00  0.00    +0.245 A 
ATOM     17  C   UNL     1      -6.785 -10.260  12.489  0.00  0.00    +0.207 A 
ENDROOT
BRANCH  17  18
ATOM      7  N   UNL     1      -3.307  -9.791  11.233  0.00  0.00    -0.221 NA
ATOM     18  C   UNL     1      -5.685  -9.847  11.665  0.00  0.00    +0.084 A 
ATOM     22  C   UNL     1      -4.372 -10.159  11.979  0.00  0.00    +0.226 A 
ATOM     23  C   UNL     1      -5.920  -9.110  10.510  0.00  0.00    +0.018 A 
ATOM     24  C   UNL     1      -4.849  -8.712   9.716  0.00  0.00    +0.021 A 
ATOM     25  C   UNL     1      -3.575  -9.075  10.118  0.00  0.00    +0.114 A 
BRANCH  22   2
ATOM      2  O   UNL     1      -4.091 -10.884  13.110  0.00  0.00    -0.474 OA
BRANCH   2  26
ATOM     26  C   UNL     1      -2.853 -10.607  13.754  0.00  0.00    +0.258 C 
BRANCH  26  27
ATOM     27  C   UNL     1      -2.418 -11.830  14.537  0.00  0.00    +0.200 C 
BRANCH  27   3
ATOM      3  O   UNL     1      -1.178 -11.556  15.176  0.00  0.00    -0.380 OA
ATOM     28  C   UNL     1      -1.134 -10.230  15.684  0.00  0.00    +0.194 C 
ENDBRANCH  27   3
ENDBRANCH  26  27
ENDBRANCH   2  26
ENDBRANCH  22   2
ENDBRANCH  17  18
BRANCH  13   8
ATOM      4  N   UNL     1      -8.501  -9.763  16.396  0.00  0.00    -0.287 NA
ATOM      8  C   UNL     1      -9.193  -9.931  15.102  0.00  0.00    +0.146 C 
ATOM      9  C   UNL     1      -9.982  -8.623  14.907  0.00  0.00    +0.030 C 
ATOM     10  C   UNL     1      -9.721  -7.810  16.168  0.00  0.00    +0.017 C 
ATOM     11  C   UNL     1      -9.329  -8.856  17.191  0.00  0.00    +0.085 C 
BRANCH   4  12
ATOM     12  C   UNL     1      -8.254 -11.024  17.083  0.00  0.00    +0.120 C 
BRANCH  12  14
ATOM     14  C   UNL     1      -6.800 -11.196  17.434  0.00  0.00    -0.033 A 
ATOM     15  C   UNL     1      -6.402 -12.248  18.258  0.00  0.00    +0.005 A 
ATOM     16  C   UNL     1      -5.852 -10.303  16.936  0.00  0.00    +0.005 A 
ATOM     19  C   UNL     1      -5.054 -12.408  18.584  0.00  0.00    +0.000 A 
ATOM     20  C   UNL     1      -4.504 -10.462  17.261  0.00  0.00    +0.000 A 
ATOM     21  C   UNL     1      -4.106 -11.515  18.085  0.00  0.00    +0.000 A 
ENDBRANCH  12  14
ENDBRANCH   4  12
ENDBRANCH  13   8
TORSDOF 8
ENDMDL
MODEL 7
REMARK VINA RESULT:      -5.3     14.554     18.047
REMARK  Name = 45783407
REMARK  9 active torsions:
REMARK  status: ('A' for Active; 'I' for Inactive)
REMARK    1  A    between atoms: O_2  and  C_22
REMARK    2  A    between atoms: O_2  and  C_26
REMARK    3  A    between atoms: O_3  and  C_27
REMARK    4  A    between atoms: O_3  and  C_28
REMARK    5  A    between atoms: N_4  and  C_12
REMARK    6  A    between atoms: C_8  and  C_13
REMARK    7  A    between atoms: C_12  and  C_14
REMARK    8  A    between atoms: C_17  and  C_18
REMARK    9  A    between atoms: C_26  and  C_27
REMARK                            x       y       z     vdW  Elec       q    Type
REMARK                         _______ _______ _______ _____ _____    ______ ____
ROOT
ATOM      1  O   UNL     1      11.218   6.936   3.892  0.00  0.00    -0.336 OA
ATOM      5  N   UNL     1      10.943   4.737   3.572  0.00  0.00    -0.190 NA
ATOM      6  N   UNL     1      11.800   6.648   2.651  0.00  0.00    -0.056 NA
ATOM     13  C   UNL     1      10.739   5.757   4.366  0.00  0.00    +0.245 A 
ATOM     17  C   UNL     1      11.598   5.332   2.533  0.00  0.00    +0.207 A 
ENDROOT
BRANCH  17  18
ATOM      7  N   UNL     1      11.591   3.667  -0.801  0.00  0.00    -0.221 NA
ATOM     18  C   UNL     1      12.037   4.583   1.391  0.00  0.00    +0.084 A 
ATOM     22  C   UNL     1      11.219   4.365   0.294  0.00  0.00    +0.226 A 
ATOM     23  C   UNL     1      13.321   4.051   1.361  0.00  0.00    +0.018 A 
ATOM     24  C   UNL     1      13.740   3.325   0.251  0.00  0.00    +0.021 A 
ATOM     25  C   UNL     1      12.845   3.163  -0.793  0.00  0.00    +0.114 A 
BRANCH  22   2
ATOM      2  O   UNL     1       9.943   4.871   0.278  0.00  0.00    -0.474 OA
BRANCH   2  26
ATOM     26  C   UNL     1       9.513   5.478  -0.934  0.00  0.00    +0.258 C 
BRANCH  26  27
ATOM     27  C   UNL     1       9.908   6.942  -0.922  0.00  0.00    +0.200 C 
BRANCH  27   3
ATOM      3  O   UNL     1       9.506   7.521   0.313  0.00  0.00    -0.380 OA
ATOM     28  C   UNL     1       9.976   8.856   0.440  0.00  0.00    +0.194 C 
ENDBRANCH  27   3
ENDBRANCH  26  27
ENDBRANCH   2  26
ENDBRANCH  22   2
ENDBRANCH  17  18
BRANCH  13   8
ATOM      4  N   UNL     1      10.528   6.916   6.559  0.00  0.00    -0.287 NA
ATOM      8  C   UNL     1      10.051   5.801   5.715  0.00  0.00    +0.146 C 
ATOM      9  C   UNL     1       8.531   6.019   5.601  0.00  0.00    +0.030 C 
ATOM     10  C   UNL     1       8.239   7.241   6.461  0.00  0.00    +0.017 C 
ATOM     11  C   UNL     1       9.408   7.287   7.423  0.00  0.00    +0.085 C 
BRANCH   4  12
ATOM     12  C   UNL     1      11.725   6.588   7.322  0.00  0.00    +0.120 C 
BRANCH  12  14
ATOM     14  C   UNL     1      12.884   7.477   6.958  0.00  0.00    -0.033 A 
ATOM     15  C   UNL     1      14.128   6.918   6.671  0.00  0.00    +0.005 A 
ATOM     16  C   UNL     1      12.712   8.860   6.908  0.00  0.00    +0.005 A 
ATOM     19  C   UNL     1      15.202   7.742   6.334  0.00  0.00    +0.000 A 
ATOM     20  C   UNL     1      13.787   9.685   6.571  0.00  0.00    +0.000 A 
ATOM     21  C   UNL     1      15.031   9.125   6.284  0.00  0.00    +0.000 A 
ENDBRANCH  12  14
ENDBRANCH   4  12
ENDBRANCH  13   8
TORSDOF 8
ENDMDL
MODEL 8
REMARK VINA RESULT:      -5.3     13.428     17.311
REMARK  Name = 45783407
REMARK  9 active torsions:
REMARK  status: ('A' for Active; 'I' for Inactive)
REMARK    1  A    between atoms: O_2  and  C_22
REMARK    2  A    between atoms: O_2  and  C_26
REMARK    3  A    between atoms: O_3  and  C_27
REMARK    4  A    between atoms: O_3  and  C_28
REMARK    5  A    between atoms: N_4  and  C_12
REMARK    6  A    between atoms: C_8  and  C_13
REMARK    7  A    between atoms: C_12  and  C_14
REMARK    8  A    between atoms: C_17  and  C_18
REMARK    9  A    between atoms: C_26  and  C_27
REMARK                            x       y       z     vdW  Elec       q    Type
REMARK                         _______ _______ _______ _____ _____    ______ ____
ROOT
ATOM      1  O   UNL     1      11.226   4.567   3.047  0.00  0.00    -0.336 OA
ATOM      5  N   UNL     1      11.238   6.786   2.742  0.00  0.00    -0.190 NA
ATOM      6  N   UNL     1      10.171   5.072   3.817  0.00  0.00    -0.056 NA
ATOM     13  C   UNL     1      11.802   5.642   2.448  0.00  0.00    +0.245 A 
ATOM     17  C   UNL     1      10.242   6.386   3.586  0.00  0.00    +0.207 A 
ENDROOT
BRANCH  17  18
ATOM      7  N   UNL     1       8.456   8.416   6.150  0.00  0.00    -0.221 NA
ATOM     18  C   UNL     1       9.336   7.325   4.181  0.00  0.00    +0.084 A 
ATOM     22  C   UNL     1       9.293   7.542   5.548  0.00  0.00    +0.226 A 
ATOM     23  C   UNL     1       8.464   8.053   3.379  0.00  0.00    +0.018 A 
ATOM     24  C   UNL     1       7.587   8.962   3.962  0.00  0.00    +0.021 A 
ATOM     25  C   UNL     1       7.623   9.104   5.339  0.00  0.00    +0.114 A 
BRANCH  22   2
ATOM      2  O   UNL     1      10.134   6.847   6.380  0.00  0.00    -0.474 OA
BRANCH   2  26
ATOM     26  C   UNL     1       9.532   5.880   7.233  0.00  0.00    +0.258 C 
BRANCH  26  27
ATOM     27  C   UNL     1      10.398   5.700   8.465  0.00  0.00    +0.200 C 
BRANCH  27   3
ATOM      3  O   UNL     1      10.096   4.447   9.066  0.00  0.00    -0.380 OA
ATOM     28  C   UNL     1       9.204   4.595  10.161  0.00  0.00    +0.194 C 
ENDBRANCH  27   3
ENDBRANCH  26  27
ENDBRANCH   2  26
ENDBRANCH  22   2
ENDBRANCH  17  18
BRANCH  13   8
ATOM      4  N   UNL     1      14.279   5.568   2.225  0.00  0.00    -0.287 NA
ATOM      8  C   UNL     1      12.985   5.359   1.546  0.00  0.00    +0.146 C 
ATOM      9  C   UNL     1      13.028   3.897   1.063  0.00  0.00    +0.030 C 
ATOM     10  C   UNL     1      14.405   3.388   1.462  0.00  0.00    +0.017 C 
ATOM     11  C   UNL     1      15.229   4.652   1.594  0.00  0.00    +0.085 C 
BRANCH   4  12
ATOM     12  C   UNL     1      14.736   6.951   2.177  0.00  0.00    +0.120 C 
BRANCH  12  14
ATOM     14  C   UNL     1      15.190   7.439   3.527  0.00  0.00    -0.033 A 
ATOM     15  C   UNL     1      14.332   7.353   4.623  0.00  0.00    +0.005 A 
ATOM     16  C   UNL     1      16.467   7.976   3.682  0.00  0.00    +0.005 A 
ATOM     19  C   UNL     1      14.752   7.806   5.875  0.00  0.00    +0.000 A 
ATOM     20  C   UNL     1      16.887   8.429   4.933  0.00  0.00    +0.000 A 
ATOM     21  C   UNL     1      16.029   8.343   6.029  0.00  0.00    +0.000 A 
ENDBRANCH  12  14
ENDBRANCH   4  12
ENDBRANCH  13   8
TORSDOF 8
ENDMDL
MODEL 9
REMARK VINA RESULT:      -5.3     26.558     29.573
REMARK  Name = 45783407
REMARK  9 active torsions:
REMARK  status: ('A' for Active; 'I' for Inactive)
REMARK    1  A    between atoms: O_2  and  C_22
REMARK    2  A    between atoms: O_2  and  C_26
REMARK    3  A    between atoms: O_3  and  C_27
REMARK    4  A    between atoms: O_3  and  C_28
REMARK    5  A    between atoms: N_4  and  C_12
REMARK    6  A    between atoms: C_8  and  C_13
REMARK    7  A    between atoms: C_12  and  C_14
REMARK    8  A    between atoms: C_17  and  C_18
REMARK    9  A    between atoms: C_26  and  C_27
REMARK                            x       y       z     vdW  Elec       q    Type
REMARK                         _______ _______ _______ _____ _____    ______ ____
ROOT
ATOM      1  O   UNL     1      -5.430 -12.241  16.068  0.00  0.00    -0.336 OA
ATOM      5  N   UNL     1      -5.546 -10.098  15.428  0.00  0.00    -0.190 NA
ATOM      6  N   UNL     1      -6.741 -11.826  16.334  0.00  0.00    -0.056 NA
ATOM     13  C   UNL     1      -4.794 -11.164  15.538  0.00  0.00    +0.245 A 
ATOM     17  C   UNL     1      -6.731 -10.552  15.930  0.00  0.00    +0.207 A 
ENDROOT
BRANCH  17  18
ATOM      7  N   UNL     1      -9.777  -8.643  14.945  0.00  0.00    -0.221 NA
ATOM     18  C   UNL     1      -7.887  -9.707  16.014  0.00  0.00    +0.084 A 
ATOM     22  C   UNL     1      -8.680  -9.433  14.911  0.00  0.00    +0.226 A 
ATOM     23  C   UNL     1      -8.243  -9.134  17.230  0.00  0.00    +0.018 A 
ATOM     24  C   UNL     1      -9.365  -8.315  17.304  0.00  0.00    +0.021 A 
ATOM     25  C   UNL     1     -10.090  -8.103  16.144  0.00  0.00    +0.114 A 
BRANCH  22   2
ATOM      2  O   UNL     1      -8.369  -9.975  13.690  0.00  0.00    -0.474 OA
BRANCH   2  26
ATOM     26  C   UNL     1      -9.336 -10.843  13.112  0.00  0.00    +0.258 C 
BRANCH  26  27
ATOM     27  C   UNL     1      -8.972 -12.277  13.439  0.00  0.00    +0.200 C 
BRANCH  27   3
ATOM      3  O   UNL     1      -9.754 -12.716  14.542  0.00  0.00    -0.380 OA
ATOM     28  C   UNL     1      -9.340 -13.995  15.000  0.00  0.00    +0.194 C 
ENDBRANCH  27   3
ENDBRANCH  26  27
ENDBRANCH   2  26
ENDBRANCH  22   2
ENDBRANCH  17  18
BRANCH  13   8
ATOM      4  N   UNL     1      -2.949 -10.552  13.984  0.00  0.00    -0.287 NA
ATOM      8  C   UNL     1      -3.341 -11.357  15.158  0.00  0.00    +0.146 C 
ATOM      9  C   UNL     1      -2.372 -10.919  16.273  0.00  0.00    +0.030 C 
ATOM     10  C   UNL     1      -1.437  -9.915  15.615  0.00  0.00    +0.017 C 
ATOM     11  C   UNL     1      -1.525 -10.257  14.142  0.00  0.00    +0.085 C 
BRANCH   4  12
ATOM     12  C   UNL     1      -3.235 -11.210  12.715  0.00  0.00    +0.120 C 
BRANCH  12  14
ATOM     14  C   UNL     1      -3.825 -10.257  11.710  0.00  0.00    -0.033 A 
ATOM     15  C   UNL     1      -5.090  -9.712  11.925  0.00  0.00    +0.005 A 
ATOM     16  C   UNL     1      -3.105  -9.920  10.564  0.00  0.00    +0.005 A 
ATOM     19  C   UNL     1      -5.636  -8.829  10.993  0.00  0.00    +0.000 A 
ATOM     20  C   UNL     1      -3.652  -9.037   9.631  0.00  0.00    +0.000 A 
ATOM     21  C   UNL     1      -4.917  -8.492   9.847  0.00  0.00    +0.000 A 
ENDBRANCH  12  14
ENDBRANCH   4  12
ENDBRANCH  13   8
TORSDOF 8
ENDMDL
MODEL 10
REMARK VINA RESULT:      -5.2     14.116     17.081
REMARK  Name = 45783407
REMARK  9 active torsions:
REMARK  status: ('A' for Active; 'I' for Inactive)
REMARK    1  A    between atoms: O_2  and  C_22
REMARK    2  A    between atoms: O_2  and  C_26
REMARK    3  A    between atoms: O_3  and  C_27
REMARK    4  A    between atoms: O_3  and  C_28
REMARK    5  A    between atoms: N_4  and  C_12
REMARK    6  A    between atoms: C_8  and  C_13
REMARK    7  A    between atoms: C_12  and  C_14
REMARK    8  A    between atoms: C_17  and  C_18
REMARK    9  A    between atoms: C_26  and  C_27
REMARK                            x       y       z     vdW  Elec       q    Type
REMARK                         _______ _______ _______ _____ _____    ______ ____
ROOT
ATOM      1  O   UNL     1      10.926   3.955   3.434  0.00  0.00    -0.336 OA
ATOM      5  N   UNL     1      11.284   6.069   4.081  0.00  0.00    -0.190 NA
ATOM      6  N   UNL     1      10.144   4.149   4.579  0.00  0.00    -0.056 NA
ATOM     13  C   UNL     1      11.565   5.133   3.211  0.00  0.00    +0.245 A 
ATOM     17  C   UNL     1      10.408   5.418   4.901  0.00  0.00    +0.207 A 
ENDROOT
BRANCH  17  18
ATOM      7  N   UNL     1       8.170   7.585   6.948  0.00  0.00    -0.221 NA
ATOM     18  C   UNL     1       9.815   6.066   6.035  0.00  0.00    +0.084 A 
ATOM     22  C   UNL     1       8.758   6.953   5.908  0.00  0.00    +0.226 A 
ATOM     23  C   UNL     1      10.299   5.811   7.314  0.00  0.00    +0.018 A 
ATOM     24  C   UNL     1       9.720   6.443   8.409  0.00  0.00    +0.021 A 
ATOM     25  C   UNL     1       8.668   7.313   8.174  0.00  0.00    +0.114 A 
BRANCH  22   2
ATOM      2  O   UNL     1       8.246   7.237   4.667  0.00  0.00    -0.474 OA
BRANCH   2  26
ATOM     26  C   UNL     1       7.917   8.596   4.408  0.00  0.00    +0.258 C 
BRANCH  26  27
ATOM     27  C   UNL     1       9.120   9.290   3.801  0.00  0.00    +0.200 C 
BRANCH  27   3
ATOM      3  O   UNL     1       9.820   9.987   4.825  0.00  0.00    -0.380 OA
ATOM     28  C   UNL     1      11.189   9.613   4.869  0.00  0.00    +0.194 C 
ENDBRANCH  27   3
ENDBRANCH  26  27
ENDBRANCH   2  26
ENDBRANCH  22   2
ENDBRANCH  17  18
BRANCH  13   8
ATOM      4  N   UNL     1      13.854   5.617   2.362  0.00  0.00    -0.287 NA
ATOM      8  C   UNL     1      12.487   5.184   2.010  0.00  0.00    +0.146 C 
ATOM      9  C   UNL     1      12.671   3.808   1.343  0.00  0.00    +0.030 C 
ATOM     10  C   UNL     1      14.176   3.581   1.311  0.00  0.00    +0.017 C 
ATOM     11  C   UNL     1      14.750   4.981   1.396  0.00  0.00    +0.085 C 
BRANCH   4  12
ATOM     12  C   UNL     1      14.010   7.065   2.383  0.00  0.00    +0.120 C 
BRANCH  12  14
ATOM     14  C   UNL     1      14.844   7.523   3.551  0.00  0.00    -0.033 A 
ATOM     15  C   UNL     1      14.335   7.437   4.846  0.00  0.00    +0.005 A 
ATOM     16  C   UNL     1      16.124   8.031   3.337  0.00  0.00    +0.005 A 
ATOM     19  C   UNL     1      15.107   7.861   5.928  0.00  0.00    +0.000 A 
ATOM     20  C   UNL     1      16.897   8.456   4.419  0.00  0.00    +0.000 A 
ATOM     21  C   UNL     1      16.388   8.370   5.714  0.00  0.00    +0.000 A 
ENDBRANCH  12  14
ENDBRANCH   4  12
ENDBRANCH  13   8
TORSDOF 8
ENDMDL
