MODEL 1
REMARK VINA RESULT:      -6.2      0.000      0.000
REMARK  Name = 51137154
REMARK  4 active torsions:
REMARK  status: ('A' for Active; 'I' for Inactive)
REMARK    1  A    between atoms: N_3  and  C_10
REMARK    2  A    between atoms: C_6  and  C_11
REMARK    3  A    between atoms: C_10  and  C_12
REMARK    4  A    between atoms: C_15  and  C_18
REMARK                            x       y       z     vdW  Elec       q    Type
REMARK                         _______ _______ _______ _____ _____    ______ ____
ROOT
ATOM      3  N   UNL     1      15.944   7.285  20.233  0.00  0.00    -0.297 NA
ATOM      6  C   UNL     1      13.679   6.701  20.418  0.00  0.00    +0.092 C 
ATOM      7  C   UNL     1      13.934   7.347  19.044  0.00  0.00    +0.029 C 
ATOM      8  C   UNL     1      14.916   7.063  21.252  0.00  0.00    +0.097 C 
ATOM      9  C   UNL     1      15.275   8.056  19.184  0.00  0.00    +0.085 C 
ENDROOT
BRANCH   6  11
ATOM      2  O   UNL     1      12.345   8.339  21.652  0.00  0.00    -0.425 OA
ATOM      4  N   UNL     1      11.256   6.442  21.188  0.00  0.00    -0.112 NA
ATOM      5  N   UNL     1      10.393   7.270  21.880  0.00  0.00    -0.113 NA
ATOM     11  C   UNL     1      12.383   7.106  21.079  0.00  0.00    +0.222 A 
ATOM     15  C   UNL     1      11.071   8.366  22.131  0.00  0.00    +0.214 A 
ATOM     18  C   UNL     1      10.652   9.585  22.834  0.00  0.00    +0.111 C 
ENDBRANCH   6  11
BRANCH   3  10
ATOM     10  C   UNL     1      17.112   7.970  20.763  0.00  0.00    +0.121 C 
BRANCH  10  12
ATOM      1 CL   UNL     1      19.486   8.776  22.567  0.00  0.00    -0.083 Cl
ATOM     12  C   UNL     1      18.326   7.077  20.779  0.00  0.00    -0.015 A 
ATOM     13  C   UNL     1      19.440   7.371  21.566  0.00  0.00    +0.045 A 
ATOM     14  C   UNL     1      18.317   5.934  19.980  0.00  0.00    +0.006 A 
ATOM     16  C   UNL     1      20.545   6.520  21.554  0.00  0.00    +0.020 A 
ATOM     17  C   UNL     1      19.423   5.083  19.968  0.00  0.00    +0.000 A 
ATOM     19  C   UNL     1      20.537   5.377  20.755  0.00  0.00    +0.001 A 
ENDBRANCH  10  12
ENDBRANCH   3  10
TORSDOF 3
ENDMDL
MODEL 2
REMARK VINA RESULT:      -6.1     17.310     19.867
REMARK  Name = 51137154
REMARK  4 active torsions:
REMARK  status: ('A' for Active; 'I' for Inactive)
REMARK    1  A    between atoms: N_3  and  C_10
REMARK    2  A    between atoms: C_6  and  C_11
REMARK    3  A    between atoms: C_10  and  C_12
REMARK    4  A    between atoms: C_15  and  C_18
REMARK                            x       y       z     vdW  Elec       q    Type
REMARK                         _______ _______ _______ _____ _____    ______ ____
ROOT
ATOM      3  N   UNL     1      -0.079   1.893  24.660  0.00  0.00    -0.297 NA
ATOM      6  C   UNL     1      -0.496  -0.390  25.008  0.00  0.00    +0.092 C 
ATOM      7  C   UNL     1       0.508  -0.219  23.854  0.00  0.00    +0.029 C 
ATOM      8  C   UNL     1      -1.113   1.003  25.193  0.00  0.00    +0.097 C 
ATOM      9  C   UNL     1       0.384   1.240  23.435  0.00  0.00    +0.085 C 
ENDROOT
BRANCH   6  11
ATOM      2  O   UNL     1      -2.733  -1.077  24.290  0.00  0.00    -0.425 OA
ATOM      4  N   UNL     1      -1.452  -2.760  25.019  0.00  0.00    -0.112 NA
ATOM      5  N   UNL     1      -2.676  -3.285  24.649  0.00  0.00    -0.113 NA
ATOM     11  C   UNL     1      -1.531  -1.470  24.793  0.00  0.00    +0.222 A 
ATOM     15  C   UNL     1      -3.391  -2.268  24.230  0.00  0.00    +0.214 A 
ATOM     18  C   UNL     1      -4.766  -2.239  23.716  0.00  0.00    +0.111 C 
ENDBRANCH   6  11
BRANCH   3  10
ATOM     10  C   UNL     1      -0.576   3.238  24.417  0.00  0.00    +0.121 C 
BRANCH  10  12
ATOM      1 CL   UNL     1      -2.623   2.120  22.394  0.00  0.00    -0.083 Cl
ATOM     12  C   UNL     1      -2.040   3.364  24.747  0.00  0.00    -0.015 A 
ATOM     13  C   UNL     1      -3.028   2.885  23.887  0.00  0.00    +0.045 A 
ATOM     14  C   UNL     1      -2.397   3.978  25.948  0.00  0.00    +0.006 A 
ATOM     16  C   UNL     1      -4.374   3.020  24.227  0.00  0.00    +0.020 A 
ATOM     17  C   UNL     1      -3.743   4.113  26.288  0.00  0.00    +0.000 A 
ATOM     19  C   UNL     1      -4.731   3.634  25.428  0.00  0.00    +0.001 A 
ENDBRANCH  10  12
ENDBRANCH   3  10
TORSDOF 3
ENDMDL
MODEL 3
REMARK VINA RESULT:      -6.1     31.515     32.467
REMARK  Name = 51137154
REMARK  4 active torsions:
REMARK  status: ('A' for Active; 'I' for Inactive)
REMARK    1  A    between atoms: N_3  and  C_10
REMARK    2  A    between atoms: C_6  and  C_11
REMARK    3  A    between atoms: C_10  and  C_12
REMARK    4  A    between atoms: C_15  and  C_18
REMARK                            x       y       z     vdW  Elec       q    Type
REMARK                         _______ _______ _______ _____ _____    ______ ____
ROOT
ATOM      3  N   UNL     1     -15.004   4.945  31.717  0.00  0.00    -0.297 NA
ATOM      6  C   UNL     1     -14.436   3.237  30.212  0.00  0.00    +0.092 C 
ATOM      7  C   UNL     1     -15.491   4.157  29.573  0.00  0.00    +0.029 C 
ATOM      8  C   UNL     1     -14.481   3.577  31.708  0.00  0.00    +0.097 C 
ATOM      9  C   UNL     1     -16.089   4.940  30.735  0.00  0.00    +0.085 C 
ENDROOT
BRANCH   6  11
ATOM      2  O   UNL     1     -13.501   1.014  29.793  0.00  0.00    -0.425 OA
ATOM      4  N   UNL     1     -15.737   1.074  29.811  0.00  0.00    -0.112 NA
ATOM      5  N   UNL     1     -15.347  -0.229  29.566  0.00  0.00    -0.113 NA
ATOM     11  C   UNL     1     -14.628   1.764  29.936  0.00  0.00    +0.222 A 
ATOM     15  C   UNL     1     -14.034  -0.217  29.564  0.00  0.00    +0.214 A 
ATOM     18  C   UNL     1     -13.089  -1.321  29.359  0.00  0.00    +0.111 C 
ENDBRANCH   6  11
BRANCH   3  10
ATOM     10  C   UNL     1     -15.454   5.359  33.036  0.00  0.00    +0.121 C 
BRANCH  10  12
ATOM      1 CL   UNL     1     -14.234   4.630  35.778  0.00  0.00    -0.083 Cl
ATOM     12  C   UNL     1     -14.502   6.338  33.672  0.00  0.00    -0.015 A 
ATOM     13  C   UNL     1     -13.908   6.085  34.908  0.00  0.00    +0.045 A 
ATOM     14  C   UNL     1     -14.220   7.523  32.991  0.00  0.00    +0.006 A 
ATOM     16  C   UNL     1     -13.032   7.016  35.465  0.00  0.00    +0.020 A 
ATOM     17  C   UNL     1     -13.343   8.455  33.549  0.00  0.00    +0.000 A 
ATOM     19  C   UNL     1     -12.749   8.201  34.785  0.00  0.00    +0.001 A 
ENDBRANCH  10  12
ENDBRANCH   3  10
TORSDOF 3
ENDMDL
MODEL 4
REMARK VINA RESULT:      -6.0      3.943      8.152
REMARK  Name = 51137154
REMARK  4 active torsions:
REMARK  status: ('A' for Active; 'I' for Inactive)
REMARK    1  A    between atoms: N_3  and  C_10
REMARK    2  A    between atoms: C_6  and  C_11
REMARK    3  A    between atoms: C_10  and  C_12
REMARK    4  A    between atoms: C_15  and  C_18
REMARK                            x       y       z     vdW  Elec       q    Type
REMARK                         _______ _______ _______ _____ _____    ______ ____
ROOT
ATOM      3  N   UNL     1      11.078  10.257  21.968  0.00  0.00    -0.297 NA
ATOM      6  C   UNL     1      11.211   8.873  20.078  0.00  0.00    +0.092 C 
ATOM      7  C   UNL     1      10.698   8.058  21.279  0.00  0.00    +0.029 C 
ATOM      8  C   UNL     1      11.800  10.147  20.698  0.00  0.00    +0.097 C 
ATOM      9  C   UNL     1      11.047   8.895  22.503  0.00  0.00    +0.085 C 
ENDROOT
BRANCH   6  11
ATOM      2  O   UNL     1      13.448   7.968  19.673  0.00  0.00    -0.425 OA
ATOM      4  N   UNL     1      12.013   7.637  17.990  0.00  0.00    -0.112 NA
ATOM      5  N   UNL     1      13.225   7.080  17.631  0.00  0.00    -0.113 NA
ATOM     11  C   UNL     1      12.189   8.143  19.188  0.00  0.00    +0.222 A 
ATOM     15  C   UNL     1      14.033   7.297  18.643  0.00  0.00    +0.214 A 
ATOM     18  C   UNL     1      15.442   6.921  18.813  0.00  0.00    +0.111 C 
ENDBRANCH   6  11
BRANCH   3  10
ATOM     10  C   UNL     1      11.706  11.197  22.883  0.00  0.00    +0.121 C 
BRANCH  10  12
ATOM      1 CL   UNL     1      10.789  12.273  25.630  0.00  0.00    -0.083 Cl
ATOM     12  C   UNL     1      10.976  12.515  22.921  0.00  0.00    -0.015 A 
ATOM     13  C   UNL     1      10.530  13.069  24.121  0.00  0.00    +0.045 A 
ATOM     14  C   UNL     1      10.753  13.182  21.717  0.00  0.00    +0.006 A 
ATOM     16  C   UNL     1       9.858  14.292  24.116  0.00  0.00    +0.020 A 
ATOM     17  C   UNL     1      10.081  14.405  21.712  0.00  0.00    +0.000 A 
ATOM     19  C   UNL     1       9.634  14.959  22.912  0.00  0.00    +0.001 A 
ENDBRANCH  10  12
ENDBRANCH   3  10
TORSDOF 3
ENDMDL
MODEL 5
REMARK VINA RESULT:      -6.0     25.983     27.599
REMARK  Name = 51137154
REMARK  4 active torsions:
REMARK  status: ('A' for Active; 'I' for Inactive)
REMARK    1  A    between atoms: N_3  and  C_10
REMARK    2  A    between atoms: C_6  and  C_11
REMARK    3  A    between atoms: C_10  and  C_12
REMARK    4  A    between atoms: C_15  and  C_18
REMARK                            x       y       z     vdW  Elec       q    Type
REMARK                         _______ _______ _______ _____ _____    ______ ____
ROOT
ATOM      3  N   UNL     1      -2.413 -10.861  13.929  0.00  0.00    -0.297 NA
ATOM      6  C   UNL     1      -3.462 -10.628  16.014  0.00  0.00    +0.092 C 
ATOM      7  C   UNL     1      -1.939 -10.725  16.212  0.00  0.00    +0.029 C 
ATOM      8  C   UNL     1      -3.698 -11.120  14.580  0.00  0.00    +0.097 C 
ATOM      9  C   UNL     1      -1.405 -11.288  14.900  0.00  0.00    +0.085 C 
ENDROOT
BRANCH   6  11
ATOM      2  O   UNL     1      -4.740 -10.661  18.100  0.00  0.00    -0.425 OA
ATOM      4  N   UNL     1      -4.637 -12.640  17.065  0.00  0.00    -0.112 NA
ATOM      5  N   UNL     1      -5.382 -12.801  18.218  0.00  0.00    -0.113 NA
ATOM     11  C   UNL     1      -4.283 -11.377  17.037  0.00  0.00    +0.222 A 
ATOM     15  C   UNL     1      -5.416 -11.620  18.790  0.00  0.00    +0.214 A 
ATOM     18  C   UNL     1      -6.069 -11.204  20.038  0.00  0.00    +0.111 C 
ENDBRANCH   6  11
BRANCH   3  10
ATOM     10  C   UNL     1      -2.284 -11.555  12.657  0.00  0.00    +0.121 C 
BRANCH  10  12
ATOM      1 CL   UNL     1      -0.917  -9.106  11.365  0.00  0.00    -0.083 Cl
ATOM     12  C   UNL     1      -3.013 -10.839  11.550  0.00  0.00    -0.015 A 
ATOM     13  C   UNL     1      -2.464  -9.724  10.915  0.00  0.00    +0.045 A 
ATOM     14  C   UNL     1      -4.265 -11.317  11.165  0.00  0.00    +0.006 A 
ATOM     16  C   UNL     1      -3.169  -9.087   9.894  0.00  0.00    +0.020 A 
ATOM     17  C   UNL     1      -4.970 -10.679  10.144  0.00  0.00    +0.000 A 
ATOM     19  C   UNL     1      -4.422  -9.565   9.508  0.00  0.00    +0.001 A 
ENDBRANCH  10  12
ENDBRANCH   3  10
TORSDOF 3
ENDMDL
MODEL 6
REMARK VINA RESULT:      -6.0      1.697      2.186
REMARK  Name = 51137154
REMARK  4 active torsions:
REMARK  status: ('A' for Active; 'I' for Inactive)
REMARK    1  A    between atoms: N_3  and  C_10
REMARK    2  A    between atoms: C_6  and  C_11
REMARK    3  A    between atoms: C_10  and  C_12
REMARK    4  A    between atoms: C_15  and  C_18
REMARK                            x       y       z     vdW  Elec       q    Type
REMARK                         _______ _______ _______ _____ _____    ______ ____
ROOT
ATOM      3  N   UNL     1      15.423   7.436  20.672  0.00  0.00    -0.297 NA
ATOM      6  C   UNL     1      13.324   7.553  21.713  0.00  0.00    +0.092 C 
ATOM      7  C   UNL     1      13.184   6.852  20.350  0.00  0.00    +0.029 C 
ATOM      8  C   UNL     1      14.696   8.238  21.658  0.00  0.00    +0.097 C 
ATOM      9  C   UNL     1      14.461   7.199  19.595  0.00  0.00    +0.085 C 
ENDROOT
BRANCH   6  11
ATOM      2  O   UNL     1      12.455   9.833  21.899  0.00  0.00    -0.425 OA
ATOM      4  N   UNL     1      10.989   8.249  22.486  0.00  0.00    -0.112 NA
ATOM      5  N   UNL     1      10.373   9.477  22.637  0.00  0.00    -0.113 NA
ATOM     11  C   UNL     1      12.202   8.505  22.054  0.00  0.00    +0.222 A 
ATOM     15  C   UNL     1      11.265  10.372  22.283  0.00  0.00    +0.214 A 
ATOM     18  C   UNL     1      11.157  11.836  22.243  0.00  0.00    +0.111 C 
ENDBRANCH   6  11
BRANCH   3  10
ATOM     10  C   UNL     1      16.630   8.095  20.200  0.00  0.00    +0.121 C 
BRANCH  10  12
ATOM      1 CL   UNL     1      17.567   5.557  18.711  0.00  0.00    -0.083 Cl
ATOM     12  C   UNL     1      17.875   7.404  20.692  0.00  0.00    -0.015 A 
ATOM     13  C   UNL     1      18.365   6.252  20.074  0.00  0.00    +0.045 A 
ATOM     14  C   UNL     1      18.542   7.944  21.791  0.00  0.00    +0.006 A 
ATOM     16  C   UNL     1      19.521   5.640  20.558  0.00  0.00    +0.020 A 
ATOM     17  C   UNL     1      19.698   7.331  22.275  0.00  0.00    +0.000 A 
ATOM     19  C   UNL     1      20.188   6.180  21.658  0.00  0.00    +0.001 A 
ENDBRANCH  10  12
ENDBRANCH   3  10
TORSDOF 3
ENDMDL
MODEL 7
REMARK VINA RESULT:      -5.9     27.131     28.097
REMARK  Name = 51137154
REMARK  4 active torsions:
REMARK  status: ('A' for Active; 'I' for Inactive)
REMARK    1  A    between atoms: N_3  and  C_10
REMARK    2  A    between atoms: C_6  and  C_11
REMARK    3  A    between atoms: C_10  and  C_12
REMARK    4  A    between atoms: C_15  and  C_18
REMARK                            x       y       z     vdW  Elec       q    Type
REMARK                         _______ _______ _______ _____ _____    ______ ____
ROOT
ATOM      3  N   UNL     1      -4.325 -10.733  14.718  0.00  0.00    -0.297 NA
ATOM      6  C   UNL     1      -4.792 -10.202  16.955  0.00  0.00    +0.092 C 
ATOM      7  C   UNL     1      -3.454 -10.959  16.873  0.00  0.00    +0.029 C 
ATOM      8  C   UNL     1      -5.462 -10.453  15.597  0.00  0.00    +0.097 C 
ATOM      9  C   UNL     1      -3.454 -11.613  15.497  0.00  0.00    +0.085 C 
ENDROOT
BRANCH   6  11
ATOM      2  O   UNL     1      -7.012 -10.499  17.940  0.00  0.00    -0.425 OA
ATOM      4  N   UNL     1      -5.328 -11.004  19.322  0.00  0.00    -0.112 NA
ATOM      5  N   UNL     1      -6.514 -11.215  20.000  0.00  0.00    -0.113 NA
ATOM     11  C   UNL     1      -5.667 -10.587  18.125  0.00  0.00    +0.222 A 
ATOM     15  C   UNL     1      -7.470 -10.908  19.155  0.00  0.00    +0.214 A 
ATOM     18  C   UNL     1      -8.927 -10.948  19.336  0.00  0.00    +0.111 C 
ENDBRANCH   6  11
BRANCH   3  10
ATOM     10  C   UNL     1      -4.733 -11.332  13.457  0.00  0.00    +0.121 C 
BRANCH  10  12
ATOM      1 CL   UNL     1      -1.908 -11.446  12.214  0.00  0.00    -0.083 Cl
ATOM     12  C   UNL     1      -4.437 -10.432  12.286  0.00  0.00    -0.015 A 
ATOM     13  C   UNL     1      -3.186 -10.423  11.668  0.00  0.00    +0.045 A 
ATOM     14  C   UNL     1      -5.451  -9.595  11.822  0.00  0.00    +0.006 A 
ATOM     16  C   UNL     1      -2.950  -9.576  10.585  0.00  0.00    +0.020 A 
ATOM     17  C   UNL     1      -5.215  -8.747  10.740  0.00  0.00    +0.000 A 
ATOM     19  C   UNL     1      -3.964  -8.738  10.121  0.00  0.00    +0.001 A 
ENDBRANCH  10  12
ENDBRANCH   3  10
TORSDOF 3
ENDMDL
MODEL 8
REMARK VINA RESULT:      -5.9     31.740     32.613
REMARK  Name = 51137154
REMARK  4 active torsions:
REMARK  status: ('A' for Active; 'I' for Inactive)
REMARK    1  A    between atoms: N_3  and  C_10
REMARK    2  A    between atoms: C_6  and  C_11
REMARK    3  A    between atoms: C_10  and  C_12
REMARK    4  A    between atoms: C_15  and  C_18
REMARK                            x       y       z     vdW  Elec       q    Type
REMARK                         _______ _______ _______ _____ _____    ______ ____
ROOT
ATOM      3  N   UNL     1     -14.976   2.523  30.576  0.00  0.00    -0.297 NA
ATOM      6  C   UNL     1     -16.337   2.299  28.679  0.00  0.00    +0.092 C 
ATOM      7  C   UNL     1     -16.194   0.933  29.374  0.00  0.00    +0.029 C 
ATOM      8  C   UNL     1     -15.217   3.159  29.280  0.00  0.00    +0.097 C 
ATOM      9  C   UNL     1     -14.994   1.086  30.300  0.00  0.00    +0.085 C 
ENDROOT
BRANCH   6  11
ATOM      2  O   UNL     1     -15.843   3.361  26.530  0.00  0.00    -0.425 OA
ATOM      4  N   UNL     1     -16.640   1.279  26.355  0.00  0.00    -0.112 NA
ATOM      5  N   UNL     1     -16.406   1.755  25.079  0.00  0.00    -0.113 NA
ATOM     11  C   UNL     1     -16.298   2.250  27.169  0.00  0.00    +0.222 A 
ATOM     15  C   UNL     1     -15.941   2.973  25.229  0.00  0.00    +0.214 A 
ATOM     18  C   UNL     1     -15.522   3.947  24.213  0.00  0.00    +0.111 C 
ENDBRANCH   6  11
BRANCH   3  10
ATOM     10  C   UNL     1     -13.726   2.954  31.183  0.00  0.00    +0.121 C 
BRANCH  10  12
ATOM      1 CL   UNL     1     -14.514   1.659  33.873  0.00  0.00    -0.083 Cl
ATOM     12  C   UNL     1     -13.959   3.859  32.364  0.00  0.00    -0.015 A 
ATOM     13  C   UNL     1     -14.318   3.354  33.614  0.00  0.00    +0.045 A 
ATOM     14  C   UNL     1     -13.807   5.234  32.184  0.00  0.00    +0.006 A 
ATOM     16  C   UNL     1     -14.525   4.223  34.684  0.00  0.00    +0.020 A 
ATOM     17  C   UNL     1     -14.015   6.104  33.256  0.00  0.00    +0.000 A 
ATOM     19  C   UNL     1     -14.373   5.598  34.505  0.00  0.00    +0.001 A 
ENDBRANCH  10  12
ENDBRANCH   3  10
TORSDOF 3
ENDMDL
MODEL 9
REMARK VINA RESULT:      -5.9      3.507      5.070
REMARK  Name = 51137154
REMARK  4 active torsions:
REMARK  status: ('A' for Active; 'I' for Inactive)
REMARK    1  A    between atoms: N_3  and  C_10
REMARK    2  A    between atoms: C_6  and  C_11
REMARK    3  A    between atoms: C_10  and  C_12
REMARK    4  A    between atoms: C_15  and  C_18
REMARK                            x       y       z     vdW  Elec       q    Type
REMARK                         _______ _______ _______ _____ _____    ______ ____
ROOT
ATOM      3  N   UNL     1      12.322   8.794  21.381  0.00  0.00    -0.297 NA
ATOM      6  C   UNL     1      11.274  10.751  22.139  0.00  0.00    +0.092 C 
ATOM      7  C   UNL     1      12.600  11.112  21.446  0.00  0.00    +0.029 C 
ATOM      8  C   UNL     1      11.372   9.242  22.401  0.00  0.00    +0.097 C 
ATOM      9  C   UNL     1      13.380   9.806  21.380  0.00  0.00    +0.085 C 
ENDROOT
BRANCH   6  11
ATOM      2  O   UNL     1      10.789  12.888  23.228  0.00  0.00    -0.425 OA
ATOM      4  N   UNL     1      10.854  11.146  24.629  0.00  0.00    -0.112 NA
ATOM      5  N   UNL     1      10.573  12.278  25.370  0.00  0.00    -0.113 NA
ATOM     11  C   UNL     1      10.972  11.549  23.386  0.00  0.00    +0.222 A 
ATOM     15  C   UNL     1      10.545  13.271  24.512  0.00  0.00    +0.214 A 
ATOM     18  C   UNL     1      10.289  14.698  24.741  0.00  0.00    +0.111 C 
ENDBRANCH   6  11
BRANCH   3  10
ATOM     10  C   UNL     1      12.834   7.459  21.647  0.00  0.00    +0.121 C 
BRANCH  10  12
ATOM      1 CL   UNL     1      12.765   7.173  18.573  0.00  0.00    -0.083 Cl
ATOM     12  C   UNL     1      14.133   7.203  20.930  0.00  0.00    -0.015 A 
ATOM     13  C   UNL     1      14.188   7.061  19.543  0.00  0.00    +0.045 A 
ATOM     14  C   UNL     1      15.300   7.109  21.688  0.00  0.00    +0.006 A 
ATOM     16  C   UNL     1      15.411   6.825  18.915  0.00  0.00    +0.020 A 
ATOM     17  C   UNL     1      16.523   6.872  21.060  0.00  0.00    +0.000 A 
ATOM     19  C   UNL     1      16.578   6.730  19.673  0.00  0.00    +0.001 A 
ENDBRANCH  10  12
ENDBRANCH   3  10
TORSDOF 3
ENDMDL
MODEL 10
REMARK VINA RESULT:      -5.7     16.602     18.234
REMARK  Name = 51137154
REMARK  4 active torsions:
REMARK  status: ('A' for Active; 'I' for Inactive)
REMARK    1  A    between atoms: N_3  and  C_10
REMARK    2  A    between atoms: C_6  and  C_11
REMARK    3  A    between atoms: C_10  and  C_12
REMARK    4  A    between atoms: C_15  and  C_18
REMARK                            x       y       z     vdW  Elec       q    Type
REMARK                         _______ _______ _______ _____ _____    ______ ____
ROOT
ATOM      3  N   UNL     1      10.389   5.888   3.239  0.00  0.00    -0.297 NA
ATOM      6  C   UNL     1       9.684   5.257   5.386  0.00  0.00    +0.092 C 
ATOM      7  C   UNL     1       8.768   6.372   4.850  0.00  0.00    +0.029 C 
ATOM      8  C   UNL     1      10.914   5.292   4.470  0.00  0.00    +0.097 C 
ATOM      9  C   UNL     1       9.536   6.989   3.688  0.00  0.00    +0.085 C 
ENDROOT
BRANCH   6  11
ATOM      2  O   UNL     1       9.191   4.777   7.735  0.00  0.00    -0.425 OA
ATOM      4  N   UNL     1      11.052   5.977   7.421  0.00  0.00    -0.112 NA
ATOM      5  N   UNL     1      10.896   5.780   8.780  0.00  0.00    -0.113 NA
ATOM     11  C   UNL     1      10.035   5.375   6.851  0.00  0.00    +0.222 A 
ATOM     15  C   UNL     1       9.798   5.075   8.917  0.00  0.00    +0.214 A 
ATOM     18  C   UNL     1       9.152   4.574  10.137  0.00  0.00    +0.111 C 
ENDBRANCH   6  11
BRANCH   3  10
ATOM     10  C   UNL     1      11.445   6.334   2.344  0.00  0.00    +0.121 C 
BRANCH  10  12
ATOM      1 CL   UNL     1       9.824   5.799  -0.230  0.00  0.00    -0.083 Cl
ATOM     12  C   UNL     1      11.909   5.231   1.430  0.00  0.00    -0.015 A 
ATOM     13  C   UNL     1      11.233   4.926   0.248  0.00  0.00    +0.045 A 
ATOM     14  C   UNL     1      13.046   4.508   1.791  0.00  0.00    +0.006 A 
ATOM     16  C   UNL     1      11.694   3.897  -0.573  0.00  0.00    +0.020 A 
ATOM     17  C   UNL     1      13.507   3.478   0.969  0.00  0.00    +0.000 A 
ATOM     19  C   UNL     1      12.831   3.173  -0.212  0.00  0.00    +0.001 A 
ENDBRANCH  10  12
ENDBRANCH   3  10
TORSDOF 3
ENDMDL
