REMARK  Name = 45783344
REMARK  9 active torsions:
REMARK  status: ('A' for Active; 'I' for Inactive)
REMARK    1  A    between atoms: O_2  and  C_24
REMARK    2  A    between atoms: O_2  and  C_26
REMARK    3  A    between atoms: O_3  and  C_27
REMARK    4  A    between atoms: O_3  and  C_28
REMARK    5  A    between atoms: N_4  and  C_9
REMARK    6  A    between atoms: C_8  and  C_9
REMARK    7  A    between atoms: C_10  and  C_19
REMARK    8  A    between atoms: C_20  and  C_21
REMARK    9  A    between atoms: C_26  and  C_27
REMARK                            x       y       z     vdW  Elec       q    Type
REMARK                         _______ _______ _______ _____ _____    ______ ____
ROOT
ATOM      1  O   UNL     1      -1.762  -3.261   0.534  0.00  0.00    -0.336 OA
ATOM      5  N   UNL     1      -0.700  -1.428  -0.194  0.00  0.00    -0.190 NA
ATOM      6  N   UNL     1      -0.434  -3.382   0.965  0.00  0.00    -0.056 NA
ATOM     19  C   UNL     1      -1.832  -2.083  -0.140  0.00  0.00    +0.245 A 
ATOM     20  C   UNL     1       0.128  -2.264   0.498  0.00  0.00    +0.202 A 
ENDROOT
BRANCH  20  21
ATOM      7  N   UNL     1       4.212  -1.346   1.103  0.00  0.00    -0.221 NA
ATOM     21  C   UNL     1       1.513  -1.952   0.703  0.00  0.00    +0.029 A 
ATOM     22  C   UNL     1       2.047  -0.774   0.192  0.00  0.00    +0.079 A 
ATOM     23  C   UNL     1       2.327  -2.827   1.413  0.00  0.00    +0.031 A 
ATOM     24  C   UNL     1       3.390  -0.520   0.417  0.00  0.00    +0.215 A 
ATOM     25  C   UNL     1       3.658  -2.481   1.583  0.00  0.00    +0.115 A 
BRANCH  24   2
ATOM      2  O   UNL     1       3.939   0.635  -0.075  0.00  0.00    -0.474 OA
BRANCH   2  26
ATOM     26  C   UNL     1       5.322   0.847   0.184  0.00  0.00    +0.258 C 
BRANCH  26  27
ATOM     27  C   UNL     1       5.751   2.154  -0.455  0.00  0.00    +0.200 C 
BRANCH  27   3
ATOM      3  O   UNL     1       5.547   2.072  -1.860  0.00  0.00    -0.380 OA
ATOM     28  C   UNL     1       5.912   3.281  -2.510  0.00  0.00    +0.194 C 
ENDBRANCH  27   3
ENDBRANCH  26  27
ENDBRANCH   2  26
ENDBRANCH  24   2
ENDBRANCH  20  21
BRANCH  19  10
ATOM      4  N   UNL     1      -3.368  -0.255  -0.839  0.00  0.00    -0.291 NA
ATOM     10  C   UNL     1      -3.183  -1.714  -0.715  0.00  0.00    +0.146 C 
ATOM     13  C   UNL     1      -4.277  -0.048  -1.967  0.00  0.00    +0.085 C 
ATOM     14  C   UNL     1      -3.392  -2.258  -2.140  0.00  0.00    +0.030 C 
ATOM     15  C   UNL     1      -3.748  -1.041  -2.982  0.00  0.00    +0.017 C 
BRANCH   4   9
ATOM      9  C   UNL     1      -3.860   0.369   0.383  0.00  0.00    +0.088 C 
BRANCH   9   8
ATOM      8  C   UNL     1      -3.543   1.863   0.397  0.00  0.00    +0.003 C 
ATOM     11  C   UNL     1      -4.040   2.510   1.697  0.00  0.00    +0.005 C 
ATOM     12  C   UNL     1      -2.038   2.099   0.210  0.00  0.00    +0.005 C 
ATOM     16  C   UNL     1      -3.687   3.994   1.759  0.00  0.00    +0.000 C 
ATOM     17  C   UNL     1      -1.689   3.585   0.275  0.00  0.00    +0.000 C 
ATOM     18  C   UNL     1      -2.192   4.226   1.564  0.00  0.00    +0.000 C 
ENDBRANCH   9   8
ENDBRANCH   4   9
ENDBRANCH  19  10
TORSDOF 8
