REMARK  Name = 51136964
REMARK  6 active torsions:
REMARK  status: ('A' for Active; 'I' for Inactive)
REMARK    1  A    between atoms: N_2  and  C_11
REMARK    2  A    between atoms: C_7  and  C_12
REMARK    3  A    between atoms: C_11  and  C_13
REMARK    4  A    between atoms: C_14  and  C_18
REMARK    5  A    between atoms: C_16  and  C_21
REMARK    6  A    between atoms: C_25  and  C_26
REMARK                            x       y       z     vdW  Elec       q    Type
REMARK                         _______ _______ _______ _____ _____    ______ ____
ROOT
ATOM      1  O   UNL     1      -2.173  -0.508   1.942  0.00  0.00    -0.336 OA
ATOM      3  N   UNL     1      -1.184  -1.235   0.069  0.00  0.00    -0.190 NA
ATOM      4  N   UNL     1      -0.817  -0.183   2.067  0.00  0.00    -0.056 NA
ATOM     12  C   UNL     1      -2.303  -1.125   0.739  0.00  0.00    +0.245 A 
ATOM     16  C   UNL     1      -0.300  -0.643   0.924  0.00  0.00    +0.204 A 
ENDROOT
BRANCH  16  21
ATOM      5  N   UNL     1       3.304   0.216   1.243  0.00  0.00    -0.254 NA
ATOM     21  C   UNL     1       1.094  -0.528   0.606  0.00  0.00    +0.041 A 
ATOM     22  C   UNL     1       1.598  -1.020  -0.593  0.00  0.00    +0.015 A 
ATOM     23  C   UNL     1       1.980   0.076   1.482  0.00  0.00    +0.123 A 
ATOM     24  C   UNL     1       2.954  -0.895  -0.875  0.00  0.00    +0.029 A 
ATOM     25  C   UNL     1       3.757  -0.274   0.068  0.00  0.00    +0.071 A 
BRANCH  25  26
ATOM      6  N   UNL     1       7.917   0.209  -0.588  0.00  0.00    -0.263 NA
ATOM     26  C   UNL     1       5.174  -0.109  -0.156  0.00  0.00    +0.003 A 
ATOM     27  C   UNL     1       5.628   0.618  -1.251  0.00  0.00    +0.030 A 
ATOM     28  C   UNL     1       6.089  -0.677   0.723  0.00  0.00    +0.030 A 
ATOM     29  C   UNL     1       6.997   0.746  -1.421  0.00  0.00    +0.111 A 
ATOM     30  C   UNL     1       7.438  -0.490   0.465  0.00  0.00    +0.111 A 
ENDBRANCH  25  26
ENDBRANCH  16  21
BRANCH  12   7
ATOM      2  N   UNL     1      -4.158  -1.001  -0.915  0.00  0.00    -0.287 NA
ATOM      7  C   UNL     1      -3.697  -1.582   0.361  0.00  0.00    +0.146 C 
ATOM      8  C   UNL     1      -3.787  -3.105   0.153  0.00  0.00    +0.030 C 
ATOM      9  C   UNL     1      -4.366  -3.281  -1.244  0.00  0.00    +0.017 C 
ATOM     10  C   UNL     1      -5.083  -1.971  -1.501  0.00  0.00    +0.085 C 
BRANCH   2  11
ATOM     11  C   UNL     1      -4.769   0.314  -0.760  0.00  0.00    +0.120 C 
BRANCH  11  13
ATOM     13  C   UNL     1      -3.735   1.400  -0.627  0.00  0.00    -0.030 A 
ATOM     14  C   UNL     1      -3.698   2.221   0.500  0.00  0.00    -0.046 A 
ATOM     15  C   UNL     1      -2.805   1.579  -1.651  0.00  0.00    +0.005 A 
ATOM     17  C   UNL     1      -2.731   3.221   0.602  0.00  0.00    +0.003 A 
ATOM     18  C   UNL     1      -4.683   2.049   1.609  0.00  0.00    +0.044 C 
ATOM     19  C   UNL     1      -1.838   2.579  -1.549  0.00  0.00    +0.000 A 
ATOM     20  C   UNL     1      -1.801   3.400  -0.422  0.00  0.00    +0.000 A 
ENDBRANCH  11  13
ENDBRANCH   2  11
ENDBRANCH  12   7
TORSDOF 5
