MODEL 1
REMARK VINA RESULT:      -6.4      0.000      0.000
REMARK  Name = 11884355
REMARK  5 active torsions:
REMARK  status: ('A' for Active; 'I' for Inactive)
REMARK    1  A    between atoms: O_3  and  C_11
REMARK    2  A    between atoms: O_5  and  C_20
REMARK    3  A    between atoms: O_5  and  C_21
REMARK    4  A    between atoms: N_6  and  C_10
REMARK    5  A    between atoms: N_7  and  C_15
REMARK                            x       y       z     vdW  Elec       q    Type
REMARK                         _______ _______ _______ _____ _____    ______ ____
ROOT
ATOM      4  O   UNL     1      16.400   8.474  20.473  0.00  0.00    -0.252 OA
ATOM      6  N   UNL     1      14.831   6.871  19.912  0.00  0.00    -0.292 N 
ATOM      7  N   UNL     1      16.987   6.205  20.343  0.00  0.00    -0.269 N 
ATOM     14  C   UNL     1      16.117   7.296  20.267  0.00  0.00    +0.304 C 
ATOM     22  H   UNL     1      14.660   5.874  19.825  0.00  0.00    +0.151 HD
ATOM     24  H   UNL     1      16.591   5.291  20.140  0.00  0.00    +0.156 HD
ENDROOT
BRANCH   6  10
ATOM      1  O   UNL     1      11.744   6.468  20.089  0.00  0.00    -0.369 OA
ATOM      2  O   UNL     1      12.294   9.345  20.958  0.00  0.00    -0.369 OA
ATOM      8  C   UNL     1      13.086   8.145  21.089  0.00  0.00    +0.172 C 
ATOM      9  C   UNL     1      12.119   7.012  21.367  0.00  0.00    +0.179 C 
ATOM     10  C   UNL     1      13.701   7.785  19.753  0.00  0.00    +0.131 C 
ATOM     11  C   UNL     1      10.965   7.724  22.031  0.00  0.00    +0.171 C 
ATOM     12  C   UNL     1      12.550   7.070  19.063  0.00  0.00    +0.185 C 
ATOM     13  C   UNL     1      10.930   9.039  21.285  0.00  0.00    +0.194 C 
BRANCH  11   3
ATOM      3  O   UNL     1       9.744   7.026  21.934  0.00  0.00    -0.387 OA
ATOM     23  H   UNL     1       9.056   7.659  21.666  0.00  0.00    +0.210 HD
ENDBRANCH  11   3
ENDBRANCH   6  10
BRANCH   7  15
ATOM     15  C   UNL     1      18.364   6.213  20.670  0.00  0.00    +0.035 A 
ATOM     16  C   UNL     1      19.214   5.312  20.049  0.00  0.00    +0.027 A 
ATOM     17  C   UNL     1      18.833   7.121  21.605  0.00  0.00    +0.027 A 
ATOM     18  C   UNL     1      20.570   5.320  20.373  0.00  0.00    +0.047 A 
ATOM     19  C   UNL     1      20.190   7.128  21.928  0.00  0.00    +0.047 A 
ATOM     20  C   UNL     1      21.059   6.227  21.312  0.00  0.00    +0.120 A 
BRANCH  20   5
ATOM      5  O   UNL     1      22.383   6.236  21.626  0.00  0.00    -0.495 OA
ATOM     21  C   UNL     1      23.257   5.498  20.774  0.00  0.00    +0.277 C 
ENDBRANCH  20   5
ENDBRANCH   7  15
TORSDOF 4
ENDMDL
MODEL 2
REMARK VINA RESULT:      -6.2      1.549      8.463
REMARK  Name = 11884355
REMARK  5 active torsions:
REMARK  status: ('A' for Active; 'I' for Inactive)
REMARK    1  A    between atoms: O_3  and  C_11
REMARK    2  A    between atoms: O_5  and  C_20
REMARK    3  A    between atoms: O_5  and  C_21
REMARK    4  A    between atoms: N_6  and  C_10
REMARK    5  A    between atoms: N_7  and  C_15
REMARK                            x       y       z     vdW  Elec       q    Type
REMARK                         _______ _______ _______ _____ _____    ______ ____
ROOT
ATOM      4  O   UNL     1      17.431   8.380  20.669  0.00  0.00    -0.252 OA
ATOM      6  N   UNL     1      18.338   6.726  22.006  0.00  0.00    -0.292 N 
ATOM      7  N   UNL     1      16.072   6.722  21.626  0.00  0.00    -0.269 N 
ATOM     14  C   UNL     1      17.278   7.376  21.362  0.00  0.00    +0.304 C 
ATOM     22  H   UNL     1      18.143   5.864  22.504  0.00  0.00    +0.151 HD
ATOM     24  H   UNL     1      16.121   5.900  22.223  0.00  0.00    +0.156 HD
ENDROOT
BRANCH   6  10
ATOM      1  O   UNL     1      21.057   5.343  22.655  0.00  0.00    -0.369 OA
ATOM      2  O   UNL     1      21.614   7.339  20.410  0.00  0.00    -0.369 OA
ATOM      8  C   UNL     1      20.433   6.570  20.726  0.00  0.00    +0.172 C 
ATOM      9  C   UNL     1      20.912   5.223  21.228  0.00  0.00    +0.179 C 
ATOM     10  C   UNL     1      19.726   7.178  21.918  0.00  0.00    +0.131 C 
ATOM     11  C   UNL     1      22.249   5.075  20.543  0.00  0.00    +0.171 C 
ATOM     12  C   UNL     1      20.529   6.609  23.079  0.00  0.00    +0.185 C 
ATOM     13  C   UNL     1      22.768   6.496  20.547  0.00  0.00    +0.194 C 
BRANCH  11   3
ATOM      3  O   UNL     1      23.125   4.189  21.202  0.00  0.00    -0.387 OA
ATOM     23  H   UNL     1      23.333   3.461  20.592  0.00  0.00    +0.210 HD
ENDBRANCH  11   3
ENDBRANCH   6  10
BRANCH   7  15
ATOM     15  C   UNL     1      14.780   7.062  21.162  0.00  0.00    +0.035 A 
ATOM     16  C   UNL     1      14.388   6.669  19.893  0.00  0.00    +0.027 A 
ATOM     17  C   UNL     1      13.933   7.784  21.988  0.00  0.00    +0.027 A 
ATOM     18  C   UNL     1      13.114   7.006  19.437  0.00  0.00    +0.047 A 
ATOM     19  C   UNL     1      12.658   8.120  21.531  0.00  0.00    +0.047 A 
ATOM     20  C   UNL     1      12.249   7.732  20.255  0.00  0.00    +0.120 A 
BRANCH  20   5
ATOM      5  O   UNL     1      11.005   8.059  19.810  0.00  0.00    -0.495 OA
ATOM     21  C   UNL     1      10.919   8.707  18.542  0.00  0.00    +0.277 C 
ENDBRANCH  20   5
ENDBRANCH   7  15
TORSDOF 4
ENDMDL
MODEL 3
REMARK VINA RESULT:      -6.1      5.973      8.080
REMARK  Name = 11884355
REMARK  5 active torsions:
REMARK  status: ('A' for Active; 'I' for Inactive)
REMARK    1  A    between atoms: O_3  and  C_11
REMARK    2  A    between atoms: O_5  and  C_20
REMARK    3  A    between atoms: O_5  and  C_21
REMARK    4  A    between atoms: N_6  and  C_10
REMARK    5  A    between atoms: N_7  and  C_15
REMARK                            x       y       z     vdW  Elec       q    Type
REMARK                         _______ _______ _______ _____ _____    ______ ____
ROOT
ATOM      4  O   UNL     1      12.918   8.959  15.244  0.00  0.00    -0.252 OA
ATOM      6  N   UNL     1      12.661   9.864  17.356  0.00  0.00    -0.292 N 
ATOM      7  N   UNL     1      13.546  11.176  15.691  0.00  0.00    -0.269 N 
ATOM     14  C   UNL     1      13.036   9.914  16.008  0.00  0.00    +0.304 C 
ATOM     22  H   UNL     1      12.725  10.714  17.907  0.00  0.00    +0.151 HD
ATOM     24  H   UNL     1      13.576  11.858  16.444  0.00  0.00    +0.156 HD
ENDROOT
BRANCH   6  10
ATOM      1  O   UNL     1      13.866   7.687  19.237  0.00  0.00    -0.369 OA
ATOM      2  O   UNL     1      10.902   7.905  19.949  0.00  0.00    -0.369 OA
ATOM      8  C   UNL     1      11.837   8.891  19.460  0.00  0.00    +0.172 C 
ATOM      9  C   UNL     1      13.170   8.591  20.114  0.00  0.00    +0.179 C 
ATOM     10  C   UNL     1      12.093   8.672  17.985  0.00  0.00    +0.131 C 
ATOM     11  C   UNL     1      12.758   7.913  21.399  0.00  0.00    +0.171 C 
ATOM     12  C   UNL     1      13.129   7.558  18.011  0.00  0.00    +0.185 C 
ATOM     13  C   UNL     1      11.545   7.121  20.967  0.00  0.00    +0.194 C 
BRANCH  11   3
ATOM      3  O   UNL     1      13.762   7.089  21.947  0.00  0.00    -0.387 OA
ATOM     23  H   UNL     1      13.339   6.276  22.275  0.00  0.00    +0.210 HD
ENDBRANCH  11   3
ENDBRANCH   6  10
BRANCH   7  15
ATOM     15  C   UNL     1      14.030  11.628  14.440  0.00  0.00    +0.035 A 
ATOM     16  C   UNL     1      13.180  12.322  13.595  0.00  0.00    +0.027 A 
ATOM     17  C   UNL     1      15.343  11.367  14.088  0.00  0.00    +0.027 A 
ATOM     18  C   UNL     1      13.657  12.766  12.362  0.00  0.00    +0.047 A 
ATOM     19  C   UNL     1      15.821  11.812  12.855  0.00  0.00    +0.047 A 
ATOM     20  C   UNL     1      14.977  12.512  11.991  0.00  0.00    +0.120 A 
BRANCH  20   5
ATOM      5  O   UNL     1      15.444  12.947  10.790  0.00  0.00    -0.495 OA
ATOM     21  C   UNL     1      16.755  12.528  10.412  0.00  0.00    +0.277 C 
ENDBRANCH  20   5
ENDBRANCH   7  15
TORSDOF 4
ENDMDL
MODEL 4
REMARK VINA RESULT:      -6.1      4.421      8.778
REMARK  Name = 11884355
REMARK  5 active torsions:
REMARK  status: ('A' for Active; 'I' for Inactive)
REMARK    1  A    between atoms: O_3  and  C_11
REMARK    2  A    between atoms: O_5  and  C_20
REMARK    3  A    between atoms: O_5  and  C_21
REMARK    4  A    between atoms: N_6  and  C_10
REMARK    5  A    between atoms: N_7  and  C_15
REMARK                            x       y       z     vdW  Elec       q    Type
REMARK                         _______ _______ _______ _____ _____    ______ ____
ROOT
ATOM      4  O   UNL     1      13.244  10.308  22.722  0.00  0.00    -0.252 OA
ATOM      6  N   UNL     1      11.754   8.813  21.778  0.00  0.00    -0.292 N 
ATOM      7  N   UNL     1      10.930  10.696  22.804  0.00  0.00    -0.269 N 
ATOM     14  C   UNL     1      12.086   9.985  22.468  0.00  0.00    +0.304 C 
ATOM     22  H   UNL     1      10.780   8.649  21.546  0.00  0.00    +0.151 HD
ATOM     24  H   UNL     1      10.045  10.287  22.518  0.00  0.00    +0.156 HD
ENDROOT
BRANCH   6  10
ATOM      1  O   UNL     1      12.010   7.179  19.134  0.00  0.00    -0.369 OA
ATOM      2  O   UNL     1      14.859   7.702  20.109  0.00  0.00    -0.369 OA
ATOM      8  C   UNL     1      13.649   8.480  20.245  0.00  0.00    +0.172 C 
ATOM      9  C   UNL     1      12.876   8.314  18.953  0.00  0.00    +0.179 C 
ATOM     10  C   UNL     1      12.752   7.859  21.294  0.00  0.00    +0.131 C 
ATOM     11  C   UNL     1      13.970   8.026  17.953  0.00  0.00    +0.171 C 
ATOM     12  C   UNL     1      12.070   6.752  20.504  0.00  0.00    +0.185 C 
ATOM     13  C   UNL     1      14.937   7.197  18.767  0.00  0.00    +0.194 C 
BRANCH  11   3
ATOM      3  O   UNL     1      13.519   7.341  16.807  0.00  0.00    -0.387 OA
ATOM     23  H   UNL     1      12.659   7.716  16.550  0.00  0.00    +0.210 HD
ENDBRANCH  11   3
ENDBRANCH   6  10
BRANCH   7  15
ATOM     15  C   UNL     1      10.838  11.924  23.499  0.00  0.00    +0.035 A 
ATOM     16  C   UNL     1      10.713  13.102  22.782  0.00  0.00    +0.027 A 
ATOM     17  C   UNL     1      10.876  11.923  24.884  0.00  0.00    +0.027 A 
ATOM     18  C   UNL     1      10.623  14.313  23.468  0.00  0.00    +0.047 A 
ATOM     19  C   UNL     1      10.785  13.135  25.570  0.00  0.00    +0.047 A 
ATOM     20  C   UNL     1      10.659  14.330  24.862  0.00  0.00    +0.120 A 
BRANCH  20   5
ATOM      5  O   UNL     1      10.569  15.511  25.531  0.00  0.00    -0.495 OA
ATOM     21  C   UNL     1      11.188  15.578  26.816  0.00  0.00    +0.277 C 
ENDBRANCH  20   5
ENDBRANCH   7  15
TORSDOF 4
ENDMDL
MODEL 5
REMARK VINA RESULT:      -6.0      1.993      2.615
REMARK  Name = 11884355
REMARK  5 active torsions:
REMARK  status: ('A' for Active; 'I' for Inactive)
REMARK    1  A    between atoms: O_3  and  C_11
REMARK    2  A    between atoms: O_5  and  C_20
REMARK    3  A    between atoms: O_5  and  C_21
REMARK    4  A    between atoms: N_6  and  C_10
REMARK    5  A    between atoms: N_7  and  C_15
REMARK                            x       y       z     vdW  Elec       q    Type
REMARK                         _______ _______ _______ _____ _____    ______ ____
ROOT
ATOM      4  O   UNL     1      15.415   9.280  19.843  0.00  0.00    -0.252 OA
ATOM      6  N   UNL     1      13.472   8.383  20.718  0.00  0.00    -0.292 N 
ATOM      7  N   UNL     1      15.396   7.130  20.784  0.00  0.00    -0.269 N 
ATOM     14  C   UNL     1      14.834   8.348  20.394  0.00  0.00    +0.304 C 
ATOM     22  H   UNL     1      13.079   7.602  21.234  0.00  0.00    +0.151 HD
ATOM     24  H   UNL     1      14.773   6.462  21.229  0.00  0.00    +0.156 HD
ENDROOT
BRANCH   6  10
ATOM      1  O   UNL     1      10.820   9.406  22.002  0.00  0.00    -0.369 OA
ATOM      2  O   UNL     1      12.282  11.874  20.948  0.00  0.00    -0.369 OA
ATOM      8  C   UNL     1      12.782  10.622  21.467  0.00  0.00    +0.172 C 
ATOM      9  C   UNL     1      11.853  10.215  22.592  0.00  0.00    +0.179 C 
ATOM     10  C   UNL     1      12.611   9.530  20.434  0.00  0.00    +0.131 C 
ATOM     11  C   UNL     1      11.316  11.543  23.070  0.00  0.00    +0.171 C 
ATOM     12  C   UNL     1      11.152   9.143  20.629  0.00  0.00    +0.185 C 
ATOM     13  C   UNL     1      11.200  12.323  21.780  0.00  0.00    +0.194 C 
BRANCH  11   3
ATOM      3  O   UNL     1      10.080  11.441  23.741  0.00  0.00    -0.387 OA
ATOM     23  H   UNL     1       9.641  12.308  23.695  0.00  0.00    +0.210 HD
ENDBRANCH  11   3
ENDBRANCH   6  10
BRANCH   7  15
ATOM     15  C   UNL     1      16.738   6.705  20.634  0.00  0.00    +0.035 A 
ATOM     16  C   UNL     1      17.084   5.919  19.548  0.00  0.00    +0.027 A 
ATOM     17  C   UNL     1      17.677   7.083  21.580  0.00  0.00    +0.027 A 
ATOM     18  C   UNL     1      18.406   5.501  19.402  0.00  0.00    +0.047 A 
ATOM     19  C   UNL     1      19.000   6.664  21.433  0.00  0.00    +0.047 A 
ATOM     20  C   UNL     1      19.364   5.872  20.344  0.00  0.00    +0.120 A 
BRANCH  20   5
ATOM      5  O   UNL     1      20.654   5.465  20.201  0.00  0.00    -0.495 OA
ATOM     21  C   UNL     1      21.641   6.150  20.972  0.00  0.00    +0.277 C 
ENDBRANCH  20   5
ENDBRANCH   7  15
TORSDOF 4
ENDMDL
MODEL 6
REMARK VINA RESULT:      -6.0      3.975      5.250
REMARK  Name = 11884355
REMARK  5 active torsions:
REMARK  status: ('A' for Active; 'I' for Inactive)
REMARK    1  A    between atoms: O_3  and  C_11
REMARK    2  A    between atoms: O_5  and  C_20
REMARK    3  A    between atoms: O_5  and  C_21
REMARK    4  A    between atoms: N_6  and  C_10
REMARK    5  A    between atoms: N_7  and  C_15
REMARK                            x       y       z     vdW  Elec       q    Type
REMARK                         _______ _______ _______ _____ _____    ______ ____
ROOT
ATOM      4  O   UNL     1      13.797  10.545  21.040  0.00  0.00    -0.252 OA
ATOM      6  N   UNL     1      12.840  10.342  23.135  0.00  0.00    -0.292 N 
ATOM      7  N   UNL     1      14.426   8.810  22.490  0.00  0.00    -0.269 N 
ATOM     14  C   UNL     1      13.709   9.947  22.110  0.00  0.00    +0.304 C 
ATOM     22  H   UNL     1      12.873   9.839  24.015  0.00  0.00    +0.151 HD
ATOM     24  H   UNL     1      14.231   8.437  23.415  0.00  0.00    +0.156 HD
ENDROOT
BRANCH   6  10
ATOM      1  O   UNL     1      10.787  11.618  25.105  0.00  0.00    -0.369 OA
ATOM      2  O   UNL     1      11.862  13.897  23.378  0.00  0.00    -0.369 OA
ATOM      8  C   UNL     1      12.482  12.675  23.831  0.00  0.00    +0.172 C 
ATOM      9  C   UNL     1      11.974  12.422  25.235  0.00  0.00    +0.179 C 
ATOM     10  C   UNL     1      11.956  11.502  23.032  0.00  0.00    +0.131 C 
ATOM     11  C   UNL     1      11.652  13.815  25.722  0.00  0.00    +0.171 C 
ATOM     12  C   UNL     1      10.638  11.213  23.736  0.00  0.00    +0.185 C 
ATOM     13  C   UNL     1      11.129  14.478  24.468  0.00  0.00    +0.194 C 
BRANCH  11   3
ATOM      3  O   UNL     1      10.709  13.841  26.769  0.00  0.00    -0.387 OA
ATOM     23  H   UNL     1      10.260  12.978  26.792  0.00  0.00    +0.210 HD
ENDBRANCH  11   3
ENDBRANCH   6  10
BRANCH   7  15
ATOM     15  C   UNL     1      15.398   8.105  21.741  0.00  0.00    +0.035 A 
ATOM     16  C   UNL     1      15.024   6.971  21.041  0.00  0.00    +0.027 A 
ATOM     17  C   UNL     1      16.705   8.564  21.726  0.00  0.00    +0.027 A 
ATOM     18  C   UNL     1      15.982   6.277  20.304  0.00  0.00    +0.047 A 
ATOM     19  C   UNL     1      17.664   7.869  20.989  0.00  0.00    +0.047 A 
ATOM     20  C   UNL     1      17.303   6.725  20.278  0.00  0.00    +0.120 A 
BRANCH  20   5
ATOM      5  O   UNL     1      18.237   6.048  19.557  0.00  0.00    -0.495 OA
ATOM     21  C   UNL     1      19.453   5.712  20.224  0.00  0.00    +0.277 C 
ENDBRANCH  20   5
ENDBRANCH   7  15
TORSDOF 4
ENDMDL
MODEL 7
REMARK VINA RESULT:      -5.9      2.741      9.992
REMARK  Name = 11884355
REMARK  5 active torsions:
REMARK  status: ('A' for Active; 'I' for Inactive)
REMARK    1  A    between atoms: O_3  and  C_11
REMARK    2  A    between atoms: O_5  and  C_20
REMARK    3  A    between atoms: O_5  and  C_21
REMARK    4  A    between atoms: N_6  and  C_10
REMARK    5  A    between atoms: N_7  and  C_15
REMARK                            x       y       z     vdW  Elec       q    Type
REMARK                         _______ _______ _______ _____ _____    ______ ____
ROOT
ATOM      4  O   UNL     1      21.206   6.934  20.503  0.00  0.00    -0.252 OA
ATOM      6  N   UNL     1      21.960   4.758  20.297  0.00  0.00    -0.292 N 
ATOM      7  N   UNL     1      19.705   5.168  20.131  0.00  0.00    -0.269 N 
ATOM     14  C   UNL     1      20.964   5.742  20.327  0.00  0.00    +0.304 C 
ATOM     22  H   UNL     1      21.689   3.805  20.079  0.00  0.00    +0.151 HD
ATOM     24  H   UNL     1      19.680   4.160  20.001  0.00  0.00    +0.156 HD
ENDROOT
BRANCH   6  10
ATOM      1  O   UNL     1      24.132   3.620  22.224  0.00  0.00    -0.369 OA
ATOM      2  O   UNL     1      25.590   4.462  19.674  0.00  0.00    -0.369 OA
ATOM      8  C   UNL     1      24.251   3.963  19.882  0.00  0.00    +0.172 C 
ATOM      9  C   UNL     1      24.338   2.924  20.981  0.00  0.00    +0.179 C 
ATOM     10  C   UNL     1      23.381   5.052  20.473  0.00  0.00    +0.131 C 
ATOM     11  C   UNL     1      25.758   2.428  20.849  0.00  0.00    +0.171 C 
ATOM     12  C   UNL     1      23.747   4.976  21.948  0.00  0.00    +0.185 C 
ATOM     13  C   UNL     1      26.502   3.689  20.469  0.00  0.00    +0.194 C 
BRANCH  11   3
ATOM      3  O   UNL     1      26.264   1.850  22.031  0.00  0.00    -0.387 OA
ATOM     23  H   UNL     1      26.591   0.960  21.815  0.00  0.00    +0.210 HD
ENDBRANCH  11   3
ENDBRANCH   6  10
BRANCH   7  15
ATOM     15  C   UNL     1      18.450   5.819  20.092  0.00  0.00    +0.035 A 
ATOM     16  C   UNL     1      18.056   6.598  21.168  0.00  0.00    +0.027 A 
ATOM     17  C   UNL     1      17.640   5.663  18.980  0.00  0.00    +0.027 A 
ATOM     18  C   UNL     1      16.818   7.239  21.129  0.00  0.00    +0.047 A 
ATOM     19  C   UNL     1      16.401   6.305  18.941  0.00  0.00    +0.047 A 
ATOM     20  C   UNL     1      15.990   7.093  20.017  0.00  0.00    +0.120 A 
BRANCH  20   5
ATOM      5  O   UNL     1      14.784   7.720  19.978  0.00  0.00    -0.495 OA
ATOM     21  C   UNL     1      13.624   6.907  20.156  0.00  0.00    +0.277 C 
ENDBRANCH  20   5
ENDBRANCH   7  15
TORSDOF 4
ENDMDL
MODEL 8
REMARK VINA RESULT:      -5.9     26.643     29.474
REMARK  Name = 11884355
REMARK  5 active torsions:
REMARK  status: ('A' for Active; 'I' for Inactive)
REMARK    1  A    between atoms: O_3  and  C_11
REMARK    2  A    between atoms: O_5  and  C_20
REMARK    3  A    between atoms: O_5  and  C_21
REMARK    4  A    between atoms: N_6  and  C_10
REMARK    5  A    between atoms: N_7  and  C_15
REMARK                            x       y       z     vdW  Elec       q    Type
REMARK                         _______ _______ _______ _____ _____    ______ ____
ROOT
ATOM      4  O   UNL     1     -14.296   8.271  19.713  0.00  0.00    -0.252 OA
ATOM      6  N   UNL     1     -13.646   7.039  21.559  0.00  0.00    -0.292 N 
ATOM      7  N   UNL     1     -12.028   8.047  20.276  0.00  0.00    -0.269 N 
ATOM     14  C   UNL     1     -13.400   7.837  20.434  0.00  0.00    +0.304 C 
ATOM     22  H   UNL     1     -12.859   6.775  22.144  0.00  0.00    +0.151 HD
ATOM     24  H   UNL     1     -11.418   7.613  20.964  0.00  0.00    +0.156 HD
ENDROOT
BRANCH   6  10
ATOM      1  O   UNL     1     -14.997   4.263  21.997  0.00  0.00    -0.369 OA
ATOM      2  O   UNL     1     -16.342   6.198  23.941  0.00  0.00    -0.369 OA
ATOM      8  C   UNL     1     -14.997   6.160  23.417  0.00  0.00    +0.172 C 
ATOM      9  C   UNL     1     -14.611   4.699  23.313  0.00  0.00    +0.179 C 
ATOM     10  C   UNL     1     -14.989   6.646  21.983  0.00  0.00    +0.131 C 
ATOM     11  C   UNL     1     -15.463   4.059  24.383  0.00  0.00    +0.171 C 
ATOM     12  C   UNL     1     -15.425   5.399  21.229  0.00  0.00    +0.185 C 
ATOM     13  C   UNL     1     -16.739   4.866  24.300  0.00  0.00    +0.194 C 
BRANCH  11   3
ATOM      3  O   UNL     1     -15.690   2.683  24.174  0.00  0.00    -0.387 OA
ATOM     23  H   UNL     1     -15.561   2.225  25.022  0.00  0.00    +0.210 HD
ENDBRANCH  11   3
ENDBRANCH   6  10
BRANCH   7  15
ATOM     15  C   UNL     1     -11.374   8.794  19.268  0.00  0.00    +0.035 A 
ATOM     16  C   UNL     1     -11.046  10.118  19.510  0.00  0.00    +0.027 A 
ATOM     17  C   UNL     1     -11.077   8.187  18.059  0.00  0.00    +0.027 A 
ATOM     18  C   UNL     1     -10.402  10.854  18.516  0.00  0.00    +0.047 A 
ATOM     19  C   UNL     1     -10.433   8.924  17.065  0.00  0.00    +0.047 A 
ATOM     20  C   UNL     1     -10.096  10.258  17.293  0.00  0.00    +0.120 A 
BRANCH  20   5
ATOM      5  O   UNL     1      -9.466  10.976  16.324  0.00  0.00    -0.495 OA
ATOM     21  C   UNL     1      -9.226  12.357  16.591  0.00  0.00    +0.277 C 
ENDBRANCH  20   5
ENDBRANCH   7  15
TORSDOF 4
ENDMDL
MODEL 9
REMARK VINA RESULT:      -5.8     27.523     29.113
REMARK  Name = 11884355
REMARK  5 active torsions:
REMARK  status: ('A' for Active; 'I' for Inactive)
REMARK    1  A    between atoms: O_3  and  C_11
REMARK    2  A    between atoms: O_5  and  C_20
REMARK    3  A    between atoms: O_5  and  C_21
REMARK    4  A    between atoms: N_6  and  C_10
REMARK    5  A    between atoms: N_7  and  C_15
REMARK                            x       y       z     vdW  Elec       q    Type
REMARK                         _______ _______ _______ _____ _____    ______ ____
ROOT
ATOM      4  O   UNL     1      -5.821 -12.404  15.554  0.00  0.00    -0.252 OA
ATOM      6  N   UNL     1      -5.308 -11.154  17.430  0.00  0.00    -0.292 N 
ATOM      7  N   UNL     1      -4.513 -10.462  15.389  0.00  0.00    -0.269 N 
ATOM     14  C   UNL     1      -5.263 -11.432  16.059  0.00  0.00    +0.304 C 
ATOM     22  H   UNL     1      -4.880 -10.296  17.762  0.00  0.00    +0.151 HD
ATOM     24  H   UNL     1      -4.116  -9.720  15.958  0.00  0.00    +0.156 HD
ENDROOT
BRANCH   6  10
ATOM      1  O   UNL     1      -6.994 -10.491  19.968  0.00  0.00    -0.369 OA
ATOM      2  O   UNL     1      -8.145 -13.075  18.813  0.00  0.00    -0.369 OA
ATOM      8  C   UNL     1      -7.516 -11.944  18.172  0.00  0.00    +0.172 C 
ATOM      9  C   UNL     1      -7.963 -10.710  18.927  0.00  0.00    +0.179 C 
ATOM     10  C   UNL     1      -6.020 -11.992  18.394  0.00  0.00    +0.131 C 
ATOM     11  C   UNL     1      -9.298 -11.136  19.489  0.00  0.00    +0.171 C 
ATOM     12  C   UNL     1      -5.894 -11.397  19.789  0.00  0.00    +0.185 C 
ATOM     13  C   UNL     1      -9.057 -12.593  19.812  0.00  0.00    +0.194 C 
BRANCH  11   3
ATOM      3  O   UNL     1      -9.692 -10.399  20.624  0.00  0.00    -0.387 OA
ATOM     23  H   UNL     1      -9.690  -9.456  20.386  0.00  0.00    +0.210 HD
ENDBRANCH  11   3
ENDBRANCH   6  10
BRANCH   7  15
ATOM     15  C   UNL     1      -4.232 -10.384  14.004  0.00  0.00    +0.035 A 
ATOM     16  C   UNL     1      -2.938 -10.602  13.561  0.00  0.00    +0.027 A 
ATOM     17  C   UNL     1      -5.258 -10.089  13.121  0.00  0.00    +0.027 A 
ATOM     18  C   UNL     1      -2.662 -10.524  12.196  0.00  0.00    +0.047 A 
ATOM     19  C   UNL     1      -4.981 -10.011  11.755  0.00  0.00    +0.047 A 
ATOM     20  C   UNL     1      -3.683 -10.228  11.293  0.00  0.00    +0.120 A 
BRANCH  20   5
ATOM      5  O   UNL     1      -3.415 -10.154   9.961  0.00  0.00    -0.495 OA
ATOM     21  C   UNL     1      -4.125  -9.171   9.209  0.00  0.00    +0.277 C 
ENDBRANCH  20   5
ENDBRANCH   7  15
TORSDOF 4
ENDMDL
MODEL 10
REMARK VINA RESULT:      -5.8     31.627     33.805
REMARK  Name = 11884355
REMARK  5 active torsions:
REMARK  status: ('A' for Active; 'I' for Inactive)
REMARK    1  A    between atoms: O_3  and  C_11
REMARK    2  A    between atoms: O_5  and  C_20
REMARK    3  A    between atoms: O_5  and  C_21
REMARK    4  A    between atoms: N_6  and  C_10
REMARK    5  A    between atoms: N_7  and  C_15
REMARK                            x       y       z     vdW  Elec       q    Type
REMARK                         _______ _______ _______ _____ _____    ______ ____
ROOT
ATOM      4  O   UNL     1     -15.888   1.417  28.177  0.00  0.00    -0.252 OA
ATOM      6  N   UNL     1     -14.638   3.123  29.111  0.00  0.00    -0.292 N 
ATOM      7  N   UNL     1     -15.757   3.521  27.144  0.00  0.00    -0.269 N 
ATOM     14  C   UNL     1     -15.477   2.575  28.134  0.00  0.00    +0.304 C 
ATOM     22  H   UNL     1     -14.396   4.107  29.042  0.00  0.00    +0.151 HD
ATOM     24  H   UNL     1     -15.334   4.438  27.258  0.00  0.00    +0.156 HD
ENDROOT
BRANCH   6  10
ATOM      1  O   UNL     1     -13.786   3.994  31.982  0.00  0.00    -0.369 OA
ATOM      2  O   UNL     1     -14.934   1.174  32.236  0.00  0.00    -0.369 OA
ATOM      8  C   UNL     1     -15.251   2.251  31.328  0.00  0.00    +0.172 C 
ATOM      9  C   UNL     1     -15.143   3.537  32.121  0.00  0.00    +0.179 C 
ATOM     10  C   UNL     1     -14.170   2.375  30.276  0.00  0.00    +0.131 C 
ATOM     11  C   UNL     1     -15.434   3.077  33.530  0.00  0.00    +0.171 C 
ATOM     12  C   UNL     1     -13.108   3.177  31.014  0.00  0.00    +0.185 C 
ATOM     13  C   UNL     1     -14.785   1.711  33.560  0.00  0.00    +0.194 C 
BRANCH  11   3
ATOM      3  O   UNL     1     -14.911   3.934  34.520  0.00  0.00    -0.387 OA
ATOM     23  H   UNL     1     -15.334   4.804  34.420  0.00  0.00    +0.210 HD
ENDBRANCH  11   3
ENDBRANCH   6  10
BRANCH   7  15
ATOM     15  C   UNL     1     -16.562   3.361  25.992  0.00  0.00    +0.035 A 
ATOM     16  C   UNL     1     -17.934   3.524  26.094  0.00  0.00    +0.027 A 
ATOM     17  C   UNL     1     -15.962   3.042  24.785  0.00  0.00    +0.027 A 
ATOM     18  C   UNL     1     -18.727   3.365  24.959  0.00  0.00    +0.047 A 
ATOM     19  C   UNL     1     -16.756   2.883  23.648  0.00  0.00    +0.047 A 
ATOM     20  C   UNL     1     -18.139   3.044  23.736  0.00  0.00    +0.120 A 
BRANCH  20   5
ATOM      5  O   UNL     1     -18.912   2.891  22.627  0.00  0.00    -0.495 OA
ATOM     21  C   UNL     1     -18.524   1.879  21.699  0.00  0.00    +0.277 C 
ENDBRANCH  20   5
ENDBRANCH   7  15
TORSDOF 4
ENDMDL
