REMARK  Name = 7049388
REMARK  9 active torsions:
REMARK  status: ('A' for Active; 'I' for Inactive)
REMARK    1  A    between atoms: S_1  and  C_24
REMARK    2  A    between atoms: S_1  and  C_28
REMARK    3  A    between atoms: N_7  and  C_11
REMARK    4  A    between atoms: N_8  and  C_15
REMARK    5  A    between atoms: N_9  and  C_25
REMARK    6  A    between atoms: N_9  and  C_26
REMARK    7  A    between atoms: C_12  and  C_21
REMARK    8  A    between atoms: C_22  and  C_24
REMARK    9  A    between atoms: C_25  and  C_27
REMARK                            x       y       z     vdW  Elec       q    Type
REMARK                         _______ _______ _______ _____ _____    ______ ____
ROOT
ATOM      3  O   UNL     1       3.879   0.847  -0.779  0.00  0.00    -0.275 OA
ATOM      6  N   UNL     1       2.021   1.137   0.570  0.00  0.00    -0.287 N 
ATOM     11  C   UNL     1       0.032   1.020   1.865  0.00  0.00    +0.094 C 
ATOM     12  C   UNL     1       1.792  -0.276   0.835  0.00  0.00    +0.164 C 
ATOM     13  C   UNL     1       0.786  -0.308   1.983  0.00  0.00    +0.056 C 
ATOM     14  C   UNL     1       1.085   1.978   1.317  0.00  0.00    +0.131 C 
ATOM     22  C   UNL     1       3.110   1.586  -0.161  0.00  0.00    +0.226 C 
ENDROOT
BRANCH  11   7
ATOM      4  O   UNL     1      -2.668   0.376   2.615  0.00  0.00    -0.253 OA
ATOM      7  N   UNL     1      -1.105   0.914   0.986  0.00  0.00    -0.295 N 
ATOM      8  N   UNL     1      -3.300   0.559   0.389  0.00  0.00    -0.297 N 
ATOM     23  C   UNL     1      -2.386   0.596   1.438  0.00  0.00    +0.300 C 
ATOM     29  H   UNL     1      -0.961   1.020  -0.014  0.00  0.00    +0.151 HD
ATOM     30  H   UNL     1      -2.946   0.684  -0.554  0.00  0.00    +0.151 HD
BRANCH   8  15
ATOM     15  C   UNL     1      -4.702   0.254   0.571  0.00  0.00    +0.074 C 
ATOM     16  C   UNL     1      -4.951  -1.256   0.497  0.00  0.00    +0.022 C 
ATOM     17  C   UNL     1      -5.566   1.010  -0.444  0.00  0.00    +0.022 C 
ATOM     18  C   UNL     1      -4.806  -1.804  -0.923  0.00  0.00    +0.002 C 
ATOM     19  C   UNL     1      -5.421   0.458  -1.862  0.00  0.00    +0.002 C 
ATOM     20  C   UNL     1      -5.684  -1.044  -1.912  0.00  0.00    +0.000 C 
ENDBRANCH   8  15
ENDBRANCH  11   7
BRANCH  12  21
ATOM      2  O   UNL     1       0.556  -0.235  -1.176  0.00  0.00    -0.274 OA
ATOM      9  N   UNL     1       1.534  -2.264  -0.598  0.00  0.00    -0.294 N 
ATOM     21  C   UNL     1       1.236  -0.914  -0.402  0.00  0.00    +0.236 C 
ATOM     26  C   UNL     1       1.057  -3.006  -1.758  0.00  0.00    +0.132 C 
BRANCH   9  25
ATOM     25  C   UNL     1       2.344  -3.030   0.345  0.00  0.00    +0.202 C 
BRANCH  25  27
ATOM      5  O   UNL     1       4.210  -2.346  -1.039  0.00  0.00    -0.274 OA
ATOM     10  N   UNL     1       4.620  -3.628   0.825  0.00  0.00    -0.328 N 
ATOM     27  C   UNL     1       3.802  -2.935  -0.041  0.00  0.00    +0.228 C 
ATOM     31  H   UNL     1       5.623  -3.663   0.680  0.00  0.00    +0.145 HD
ATOM     32  H   UNL     1       4.258  -4.120   1.636  0.00  0.00    +0.145 HD
ENDBRANCH  25  27
ENDBRANCH   9  25
ENDBRANCH  12  21
BRANCH  22  24
ATOM     24  C   UNL     1       3.312   3.080  -0.178  0.00  0.00    +0.164 C 
BRANCH  24   1
ATOM      1  S   UNL     1       2.407   3.738  -1.585  0.00  0.00    -0.155 S 
ATOM     28  C   UNL     1       2.805   5.492  -1.378  0.00  0.00    +0.085 C 
ENDBRANCH  24   1
ENDBRANCH  22  24
TORSDOF 7
