MODEL 1
REMARK VINA RESULT:      -6.7      0.000      0.000
REMARK  Name = 71694218
REMARK  4 active torsions:
REMARK  status: ('A' for Active; 'I' for Inactive)
REMARK    1  A    between atoms: N_3  and  C_9
REMARK    2  A    between atoms: C_6  and  C_9
REMARK    3  A    between atoms: C_10  and  C_14
REMARK    4  A    between atoms: C_15  and  C_17
REMARK                            x       y       z     vdW  Elec       q    Type
REMARK                         _______ _______ _______ _____ _____    ______ ____
ROOT
ATOM      4  N   UNL     1      15.670   7.631  19.085  0.00  0.00    -0.341 N 
ATOM      5  N   UNL     1      14.743   9.569  19.647  0.00  0.00    -0.238 NA
ATOM     14  C   UNL     1      14.655   8.518  18.862  0.00  0.00    +0.127 A 
ATOM     15  C   UNL     1      16.457   8.149  20.076  0.00  0.00    +0.066 A 
ATOM     16  C   UNL     1      15.865   9.345  20.406  0.00  0.00    +0.139 A 
ATOM     23  H   UNL     1      15.812   6.757  18.595  0.00  0.00    +0.167 HD
ENDROOT
BRANCH  15  17
ATOM      1  F   UNL     1      19.627   4.516  19.931  0.00  0.00    -0.205 F 
ATOM     17  C   UNL     1      17.630   7.487  20.583  0.00  0.00    +0.003 A 
ATOM     18  C   UNL     1      18.069   6.299  20.000  0.00  0.00    +0.048 A 
ATOM     19  C   UNL     1      18.329   8.036  21.658  0.00  0.00    +0.010 A 
ATOM     20  C   UNL     1      19.206   5.658  20.492  0.00  0.00    +0.124 A 
ATOM     21  C   UNL     1      19.467   7.396  22.151  0.00  0.00    +0.003 A 
ATOM     22  C   UNL     1      19.905   6.207  21.567  0.00  0.00    +0.038 A 
ENDBRANCH  15  17
BRANCH  14  10
ATOM      2  O   UNL     1      12.982   8.771  15.501  0.00  0.00    -0.377 OA
ATOM      3  N   UNL     1      12.215   8.612  18.254  0.00  0.00    -0.288 NA
ATOM     10  C   UNL     1      13.585   8.251  17.812  0.00  0.00    +0.149 C 
ATOM     11  C   UNL     1      11.256   8.424  17.151  0.00  0.00    +0.113 C 
ATOM     12  C   UNL     1      13.946   9.018  16.525  0.00  0.00    +0.186 C 
ATOM     13  C   UNL     1      11.691   9.204  15.918  0.00  0.00    +0.175 C 
BRANCH   3   9
ATOM      9  C   UNL     1      11.779   7.820  19.410  0.00  0.00    +0.088 C 
BRANCH   9   6
ATOM      6  C   UNL     1      10.883   8.611  20.305  0.00  0.00    +0.003 C 
ATOM      7  C   UNL     1      11.462   9.431  21.425  0.00  0.00    +0.005 C 
ATOM      8  C   UNL     1      10.674   8.189  21.733  0.00  0.00    +0.005 C 
ENDBRANCH   9   6
ENDBRANCH   3   9
ENDBRANCH  14  10
TORSDOF 4
ENDMDL
MODEL 2
REMARK VINA RESULT:      -6.3      1.887      3.241
REMARK  Name = 71694218
REMARK  4 active torsions:
REMARK  status: ('A' for Active; 'I' for Inactive)
REMARK    1  A    between atoms: N_3  and  C_9
REMARK    2  A    between atoms: C_6  and  C_9
REMARK    3  A    between atoms: C_10  and  C_14
REMARK    4  A    between atoms: C_15  and  C_17
REMARK                            x       y       z     vdW  Elec       q    Type
REMARK                         _______ _______ _______ _____ _____    ______ ____
ROOT
ATOM      4  N   UNL     1      15.954   7.701  20.709  0.00  0.00    -0.341 N 
ATOM      5  N   UNL     1      15.043   6.503  19.076  0.00  0.00    -0.238 NA
ATOM     14  C   UNL     1      14.831   7.438  19.976  0.00  0.00    +0.127 A 
ATOM     15  C   UNL     1      16.946   6.881  20.249  0.00  0.00    +0.066 A 
ATOM     16  C   UNL     1      16.360   6.151  19.241  0.00  0.00    +0.139 A 
ATOM     23  H   UNL     1      16.027   8.373  21.461  0.00  0.00    +0.167 HD
ENDROOT
BRANCH  15  17
ATOM      1  F   UNL     1      21.381   4.995  20.463  0.00  0.00    -0.205 F 
ATOM     17  C   UNL     1      18.281   6.875  20.784  0.00  0.00    +0.003 A 
ATOM     18  C   UNL     1      19.202   5.919  20.355  0.00  0.00    +0.048 A 
ATOM     19  C   UNL     1      18.656   7.827  21.732  0.00  0.00    +0.010 A 
ATOM     20  C   UNL     1      20.497   5.914  20.875  0.00  0.00    +0.124 A 
ATOM     21  C   UNL     1      19.951   7.823  22.252  0.00  0.00    +0.003 A 
ATOM     22  C   UNL     1      20.871   6.866  21.823  0.00  0.00    +0.038 A 
ENDBRANCH  15  17
BRANCH  14  10
ATOM      2  O   UNL     1      12.037   8.901  22.029  0.00  0.00    -0.377 OA
ATOM      3  N   UNL     1      12.369   7.621  19.489  0.00  0.00    -0.288 NA
ATOM     10  C   UNL     1      13.527   8.182  20.228  0.00  0.00    +0.149 C 
ATOM     11  C   UNL     1      11.132   8.327  19.867  0.00  0.00    +0.113 C 
ATOM     12  C   UNL     1      13.239   8.184  21.742  0.00  0.00    +0.186 C 
ATOM     13  C   UNL     1      10.928   8.291  21.375  0.00  0.00    +0.175 C 
BRANCH   3   9
ATOM      9  C   UNL     1      12.547   7.706  18.034  0.00  0.00    +0.088 C 
BRANCH   9   6
ATOM      6  C   UNL     1      12.178   9.058  17.520  0.00  0.00    +0.003 C 
ATOM      7  C   UNL     1      12.297   9.371  16.054  0.00  0.00    +0.005 C 
ATOM      8  C   UNL     1      13.244  10.001  17.036  0.00  0.00    +0.005 C 
ENDBRANCH   9   6
ENDBRANCH   3   9
ENDBRANCH  14  10
TORSDOF 4
ENDMDL
MODEL 3
REMARK VINA RESULT:      -6.1     13.759     16.681
REMARK  Name = 71694218
REMARK  4 active torsions:
REMARK  status: ('A' for Active; 'I' for Inactive)
REMARK    1  A    between atoms: N_3  and  C_9
REMARK    2  A    between atoms: C_6  and  C_9
REMARK    3  A    between atoms: C_10  and  C_14
REMARK    4  A    between atoms: C_15  and  C_17
REMARK                            x       y       z     vdW  Elec       q    Type
REMARK                         _______ _______ _______ _____ _____    ______ ____
ROOT
ATOM      4  N   UNL     1      11.280   5.508   4.156  0.00  0.00    -0.341 N 
ATOM      5  N   UNL     1      10.249   6.425   2.416  0.00  0.00    -0.238 NA
ATOM     14  C   UNL     1      11.296   5.734   2.808  0.00  0.00    +0.127 A 
ATOM     15  C   UNL     1      10.150   6.092   4.656  0.00  0.00    +0.066 A 
ATOM     16  C   UNL     1       9.530   6.652   3.564  0.00  0.00    +0.139 A 
ATOM     23  H   UNL     1      11.985   5.007   4.681  0.00  0.00    +0.167 HD
ENDROOT
BRANCH  15  17
ATOM      1  F   UNL     1       9.725   3.718   8.833  0.00  0.00    -0.205 F 
ATOM     17  C   UNL     1       9.792   6.060   6.049  0.00  0.00    +0.003 A 
ATOM     18  C   UNL     1       9.935   4.882   6.781  0.00  0.00    +0.048 A 
ATOM     19  C   UNL     1       9.303   7.210   6.670  0.00  0.00    +0.010 A 
ATOM     20  C   UNL     1       9.588   4.851   8.131  0.00  0.00    +0.124 A 
ATOM     21  C   UNL     1       8.955   7.181   8.020  0.00  0.00    +0.003 A 
ATOM     22  C   UNL     1       9.099   6.001   8.751  0.00  0.00    +0.038 A 
ENDBRANCH  15  17
BRANCH  14  10
ATOM      2  O   UNL     1      13.397   3.143   1.068  0.00  0.00    -0.377 OA
ATOM      3  N   UNL     1      13.772   5.669   2.362  0.00  0.00    -0.288 NA
ATOM     10  C   UNL     1      12.426   5.214   1.931  0.00  0.00    +0.149 C 
ATOM     11  C   UNL     1      14.814   5.041   1.529  0.00  0.00    +0.113 C 
ATOM     12  C   UNL     1      12.371   3.674   1.907  0.00  0.00    +0.186 C 
ATOM     13  C   UNL     1      14.682   3.524   1.552  0.00  0.00    +0.175 C 
BRANCH   3   9
ATOM      9  C   UNL     1      13.913   7.128   2.288  0.00  0.00    +0.088 C 
BRANCH   9   6
ATOM      6  C   UNL     1      14.286   7.706   3.613  0.00  0.00    +0.003 C 
ATOM      7  C   UNL     1      15.426   8.682   3.722  0.00  0.00    +0.005 C 
ATOM      8  C   UNL     1      15.567   7.295   4.284  0.00  0.00    +0.005 C 
ENDBRANCH   9   6
ENDBRANCH   3   9
ENDBRANCH  14  10
TORSDOF 4
ENDMDL
MODEL 4
REMARK VINA RESULT:      -6.1     26.120     27.899
REMARK  Name = 71694218
REMARK  4 active torsions:
REMARK  status: ('A' for Active; 'I' for Inactive)
REMARK    1  A    between atoms: N_3  and  C_9
REMARK    2  A    between atoms: C_6  and  C_9
REMARK    3  A    between atoms: C_10  and  C_14
REMARK    4  A    between atoms: C_15  and  C_17
REMARK                            x       y       z     vdW  Elec       q    Type
REMARK                         _______ _______ _______ _____ _____    ______ ____
ROOT
ATOM      4  N   UNL     1      -4.147 -10.404  15.134  0.00  0.00    -0.341 N 
ATOM      5  N   UNL     1      -4.468 -12.545  15.627  0.00  0.00    -0.238 NA
ATOM     14  C   UNL     1      -4.504 -11.315  16.089  0.00  0.00    +0.127 A 
ATOM     15  C   UNL     1      -3.865 -11.098  13.990  0.00  0.00    +0.066 A 
ATOM     16  C   UNL     1      -4.070 -12.417  14.320  0.00  0.00    +0.139 A 
ATOM     23  H   UNL     1      -4.093  -9.402  15.261  0.00  0.00    +0.167 HD
ENDROOT
BRANCH  15  17
ATOM      1  F   UNL     1      -0.410  -9.299  11.146  0.00  0.00    -0.205 F 
ATOM     17  C   UNL     1      -3.452 -10.469  12.764  0.00  0.00    +0.003 A 
ATOM     18  C   UNL     1      -2.104 -10.183  12.545  0.00  0.00    +0.048 A 
ATOM     19  C   UNL     1      -4.399 -10.146  11.793  0.00  0.00    +0.010 A 
ATOM     20  C   UNL     1      -1.704  -9.573  11.356  0.00  0.00    +0.124 A 
ATOM     21  C   UNL     1      -4.000  -9.536  10.603  0.00  0.00    +0.003 A 
ATOM     22  C   UNL     1      -2.652  -9.251  10.385  0.00  0.00    +0.038 A 
ENDBRANCH  15  17
BRANCH  14  10
ATOM      2  O   UNL     1      -4.639 -11.516  19.843  0.00  0.00    -0.377 OA
ATOM      3  N   UNL     1      -6.348 -10.715  17.691  0.00  0.00    -0.288 NA
ATOM     10  C   UNL     1      -4.886 -10.879  17.496  0.00  0.00    +0.149 C 
ATOM     11  C   UNL     1      -6.643 -10.396  19.100  0.00  0.00    +0.113 C 
ATOM     12  C   UNL     1      -4.329 -11.903  18.504  0.00  0.00    +0.186 C 
ATOM     13  C   UNL     1      -6.050 -11.448  20.027  0.00  0.00    +0.175 C 
BRANCH   3   9
ATOM      9  C   UNL     1      -6.907  -9.662  16.834  0.00  0.00    +0.088 C 
BRANCH   9   6
ATOM      6  C   UNL     1      -8.400  -9.669  16.867  0.00  0.00    +0.003 C 
ATOM      7  C   UNL     1      -9.187  -9.031  15.756  0.00  0.00    +0.005 C 
ATOM      8  C   UNL     1      -9.157  -8.394  17.117  0.00  0.00    +0.005 C 
ENDBRANCH   9   6
ENDBRANCH   3   9
ENDBRANCH  14  10
TORSDOF 4
ENDMDL
MODEL 5
REMARK VINA RESULT:      -6.0      2.141      3.505
REMARK  Name = 71694218
REMARK  4 active torsions:
REMARK  status: ('A' for Active; 'I' for Inactive)
REMARK    1  A    between atoms: N_3  and  C_9
REMARK    2  A    between atoms: C_6  and  C_9
REMARK    3  A    between atoms: C_10  and  C_14
REMARK    4  A    between atoms: C_15  and  C_17
REMARK                            x       y       z     vdW  Elec       q    Type
REMARK                         _______ _______ _______ _____ _____    ______ ____
ROOT
ATOM      4  N   UNL     1      15.134   8.270  20.904  0.00  0.00    -0.341 N 
ATOM      5  N   UNL     1      15.013  10.432  20.413  0.00  0.00    -0.238 NA
ATOM     14  C   UNL     1      14.325   9.359  20.738  0.00  0.00    +0.127 A 
ATOM     15  C   UNL     1      16.419   8.673  20.671  0.00  0.00    +0.066 A 
ATOM     16  C   UNL     1      16.319  10.011  20.370  0.00  0.00    +0.139 A 
ATOM     23  H   UNL     1      14.828   7.336  21.146  0.00  0.00    +0.167 HD
ENDROOT
BRANCH  15  17
ATOM      1  F   UNL     1      20.752   7.559  22.472  0.00  0.00    -0.205 F 
ATOM     17  C   UNL     1      17.553   7.791  20.755  0.00  0.00    +0.003 A 
ATOM     18  C   UNL     1      18.624   8.108  21.590  0.00  0.00    +0.048 A 
ATOM     19  C   UNL     1      17.581   6.618  20.000  0.00  0.00    +0.010 A 
ATOM     20  C   UNL     1      19.723   7.253  21.670  0.00  0.00    +0.124 A 
ATOM     21  C   UNL     1      18.680   5.763  20.080  0.00  0.00    +0.003 A 
ATOM     22  C   UNL     1      19.751   6.080  20.916  0.00  0.00    +0.038 A 
ENDBRANCH  15  17
BRANCH  14  10
ATOM      2  O   UNL     1      11.073   9.441  22.628  0.00  0.00    -0.377 OA
ATOM      3  N   UNL     1      12.242   7.975  20.464  0.00  0.00    -0.288 NA
ATOM     10  C   UNL     1      12.818   9.263  20.925  0.00  0.00    +0.149 C 
ATOM     11  C   UNL     1      10.802   7.920  20.775  0.00  0.00    +0.113 C 
ATOM     12  C   UNL     1      12.484   9.491  22.412  0.00  0.00    +0.186 C 
ATOM     13  C   UNL     1      10.559   8.165  22.257  0.00  0.00    +0.175 C 
BRANCH   3   9
ATOM      9  C   UNL     1      12.431   7.767  19.024  0.00  0.00    +0.088 C 
BRANCH   9   6
ATOM      6  C   UNL     1      11.789   8.855  18.228  0.00  0.00    +0.003 C 
ATOM      7  C   UNL     1      10.997   8.524  16.992  0.00  0.00    +0.005 C 
ATOM      8  C   UNL     1      12.325   9.218  16.871  0.00  0.00    +0.005 C 
ENDBRANCH   9   6
ENDBRANCH   3   9
ENDBRANCH  14  10
TORSDOF 4
ENDMDL
MODEL 6
REMARK VINA RESULT:      -5.8     13.684     16.918
REMARK  Name = 71694218
REMARK  4 active torsions:
REMARK  status: ('A' for Active; 'I' for Inactive)
REMARK    1  A    between atoms: N_3  and  C_9
REMARK    2  A    between atoms: C_6  and  C_9
REMARK    3  A    between atoms: C_10  and  C_14
REMARK    4  A    between atoms: C_15  and  C_17
REMARK                            x       y       z     vdW  Elec       q    Type
REMARK                         _______ _______ _______ _____ _____    ______ ____
ROOT
ATOM      4  N   UNL     1      11.516   5.853   4.274  0.00  0.00    -0.341 N 
ATOM      5  N   UNL     1      12.606   7.748   4.663  0.00  0.00    -0.238 NA
ATOM     14  C   UNL     1      11.747   6.878   5.148  0.00  0.00    +0.127 A 
ATOM     15  C   UNL     1      12.276   6.083   3.161  0.00  0.00    +0.066 A 
ATOM     16  C   UNL     1      12.940   7.258   3.425  0.00  0.00    +0.139 A 
ATOM     23  H   UNL     1      10.888   5.075   4.427  0.00  0.00    +0.167 HD
ENDROOT
BRANCH  15  17
ATOM      1  F   UNL     1      10.282   4.451  -0.916  0.00  0.00    -0.205 F 
ATOM     17  C   UNL     1      12.294   5.207   2.020  0.00  0.00    +0.003 A 
ATOM     18  C   UNL     1      11.259   5.254   1.087  0.00  0.00    +0.048 A 
ATOM     19  C   UNL     1      13.348   4.310   1.846  0.00  0.00    +0.010 A 
ATOM     20  C   UNL     1      11.277   4.405  -0.020  0.00  0.00    +0.124 A 
ATOM     21  C   UNL     1      13.367   3.460   0.741  0.00  0.00    +0.003 A 
ATOM     22  C   UNL     1      12.331   3.508  -0.193  0.00  0.00    +0.038 A 
ENDBRANCH  15  17
BRANCH  14  10
ATOM      2  O   UNL     1      10.938   5.785   8.656  0.00  0.00    -0.377 OA
ATOM      3  N   UNL     1       9.575   6.932   6.415  0.00  0.00    -0.288 NA
ATOM     10  C   UNL     1      11.056   6.937   6.503  0.00  0.00    +0.149 C 
ATOM     11  C   UNL     1       8.984   6.884   7.765  0.00  0.00    +0.113 C 
ATOM     12  C   UNL     1      11.540   5.752   7.361  0.00  0.00    +0.186 C 
ATOM     13  C   UNL     1       9.521   5.694   8.548  0.00  0.00    +0.175 C 
BRANCH   3   9
ATOM      9  C   UNL     1       9.057   8.108   5.706  0.00  0.00    +0.088 C 
BRANCH   9   6
ATOM      6  C   UNL     1       8.168   7.713   4.573  0.00  0.00    +0.003 C 
ATOM      7  C   UNL     1       8.660   7.806   3.154  0.00  0.00    +0.005 C 
ATOM      8  C   UNL     1       7.607   8.759   3.650  0.00  0.00    +0.005 C 
ENDBRANCH   9   6
ENDBRANCH   3   9
ENDBRANCH  14  10
TORSDOF 4
ENDMDL
MODEL 7
REMARK VINA RESULT:      -5.8     26.588     28.403
REMARK  Name = 71694218
REMARK  4 active torsions:
REMARK  status: ('A' for Active; 'I' for Inactive)
REMARK    1  A    between atoms: N_3  and  C_9
REMARK    2  A    between atoms: C_6  and  C_9
REMARK    3  A    between atoms: C_10  and  C_14
REMARK    4  A    between atoms: C_15  and  C_17
REMARK                            x       y       z     vdW  Elec       q    Type
REMARK                         _______ _______ _______ _____ _____    ______ ____
ROOT
ATOM      4  N   UNL     1      -5.910 -10.247  13.889  0.00  0.00    -0.341 N 
ATOM      5  N   UNL     1      -6.526 -12.357  14.204  0.00  0.00    -0.238 NA
ATOM     14  C   UNL     1      -6.767 -11.103  14.519  0.00  0.00    +0.127 A 
ATOM     15  C   UNL     1      -5.067 -11.001  13.121  0.00  0.00    +0.066 A 
ATOM     16  C   UNL     1      -5.467 -12.300  13.332  0.00  0.00    +0.139 A 
ATOM     23  H   UNL     1      -5.900  -9.240  13.986  0.00  0.00    +0.167 HD
ENDROOT
BRANCH  15  17
ATOM      1  F   UNL     1      -3.627  -8.654   9.161  0.00  0.00    -0.205 F 
ATOM     17  C   UNL     1      -4.022 -10.440  12.306  0.00  0.00    +0.003 A 
ATOM     18  C   UNL     1      -4.337  -9.807  11.104  0.00  0.00    +0.048 A 
ATOM     19  C   UNL     1      -2.692 -10.529  12.719  0.00  0.00    +0.010 A 
ATOM     20  C   UNL     1      -3.323  -9.263  10.315  0.00  0.00    +0.124 A 
ATOM     21  C   UNL     1      -1.678  -9.986  11.931  0.00  0.00    +0.003 A 
ATOM     22  C   UNL     1      -1.995  -9.352  10.729  0.00  0.00    +0.038 A 
ENDBRANCH  15  17
BRANCH  14  10
ATOM      2  O   UNL     1      -9.741  -9.048  15.562  0.00  0.00    -0.377 OA
ATOM      3  N   UNL     1      -7.318 -10.030  16.728  0.00  0.00    -0.288 NA
ATOM     10  C   UNL     1      -7.849 -10.592  15.461  0.00  0.00    +0.149 C 
ATOM     11  C   UNL     1      -8.414  -9.464  17.534  0.00  0.00    +0.113 C 
ATOM     12  C   UNL     1      -8.692  -9.533  14.724  0.00  0.00    +0.186 C 
ATOM     13  C   UNL     1      -9.201  -8.438  16.731  0.00  0.00    +0.175 C 
BRANCH   3   9
ATOM      9  C   UNL     1      -6.605 -11.036  17.524  0.00  0.00    +0.088 C 
BRANCH   9   6
ATOM      6  C   UNL     1      -5.218 -10.589  17.851  0.00  0.00    +0.003 C 
ATOM      7  C   UNL     1      -4.043 -11.145  17.094  0.00  0.00    +0.005 C 
ATOM      8  C   UNL     1      -4.260 -11.527  18.531  0.00  0.00    +0.005 C 
ENDBRANCH   9   6
ENDBRANCH   3   9
ENDBRANCH  14  10
TORSDOF 4
ENDMDL
MODEL 8
REMARK VINA RESULT:      -5.8     26.096     28.143
REMARK  Name = 71694218
REMARK  4 active torsions:
REMARK  status: ('A' for Active; 'I' for Inactive)
REMARK    1  A    between atoms: N_3  and  C_9
REMARK    2  A    between atoms: C_6  and  C_9
REMARK    3  A    between atoms: C_10  and  C_14
REMARK    4  A    between atoms: C_15  and  C_17
REMARK                            x       y       z     vdW  Elec       q    Type
REMARK                         _______ _______ _______ _____ _____    ______ ____
ROOT
ATOM      4  N   UNL     1      -3.915 -10.984  14.416  0.00  0.00    -0.341 N 
ATOM      5  N   UNL     1      -1.716 -10.692  14.328  0.00  0.00    -0.238 NA
ATOM     14  C   UNL     1      -2.803 -10.923  13.625  0.00  0.00    +0.127 A 
ATOM     15  C   UNL     1      -3.513 -10.778  15.706  0.00  0.00    +0.066 A 
ATOM     16  C   UNL     1      -2.152 -10.600  15.626  0.00  0.00    +0.139 A 
ATOM     23  H   UNL     1      -4.859 -11.161  14.099  0.00  0.00    +0.167 HD
ENDROOT
BRANCH  15  17
ATOM      1  F   UNL     1      -7.626  -9.346  17.779  0.00  0.00    -0.205 F 
ATOM     17  C   UNL     1      -4.417 -10.771  16.826  0.00  0.00    +0.003 A 
ATOM     18  C   UNL     1      -5.607 -10.048  16.759  0.00  0.00    +0.048 A 
ATOM     19  C   UNL     1      -4.102 -11.489  17.980  0.00  0.00    +0.010 A 
ATOM     20  C   UNL     1      -6.483 -10.041  17.845  0.00  0.00    +0.124 A 
ATOM     21  C   UNL     1      -4.977 -11.482  19.067  0.00  0.00    +0.003 A 
ATOM     22  C   UNL     1      -6.168 -10.759  18.998  0.00  0.00    +0.038 A 
ENDBRANCH  15  17
BRANCH  14  10
ATOM      2  O   UNL     1      -3.728 -10.034  10.088  0.00  0.00    -0.377 OA
ATOM      3  N   UNL     1      -3.538 -12.384  11.713  0.00  0.00    -0.288 NA
ATOM     10  C   UNL     1      -2.891 -11.111  12.117  0.00  0.00    +0.149 C 
ATOM     11  C   UNL     1      -3.680 -12.441  10.247  0.00  0.00    +0.113 C 
ATOM     12  C   UNL     1      -3.649  -9.914  11.509  0.00  0.00    +0.186 C 
ATOM     13  C   UNL     1      -4.428 -11.221   9.728  0.00  0.00    +0.175 C 
BRANCH   3   9
ATOM      9  C   UNL     1      -2.785 -13.558  12.169  0.00  0.00    +0.088 C 
BRANCH   9   6
ATOM      6  C   UNL     1      -3.617 -14.428  13.053  0.00  0.00    +0.003 C 
ATOM      7  C   UNL     1      -3.275 -14.577  14.510  0.00  0.00    +0.005 C 
ATOM      8  C   UNL     1      -3.069 -15.730  13.567  0.00  0.00    +0.005 C 
ENDBRANCH   9   6
ENDBRANCH   3   9
ENDBRANCH  14  10
TORSDOF 4
ENDMDL
MODEL 9
REMARK VINA RESULT:      -5.7     26.536     28.886
REMARK  Name = 71694218
REMARK  4 active torsions:
REMARK  status: ('A' for Active; 'I' for Inactive)
REMARK    1  A    between atoms: N_3  and  C_9
REMARK    2  A    between atoms: C_6  and  C_9
REMARK    3  A    between atoms: C_10  and  C_14
REMARK    4  A    between atoms: C_15  and  C_17
REMARK                            x       y       z     vdW  Elec       q    Type
REMARK                         _______ _______ _______ _____ _____    ______ ____
ROOT
ATOM      4  N   UNL     1      -6.186 -10.417  16.795  0.00  0.00    -0.341 N 
ATOM      5  N   UNL     1      -7.571 -12.111  16.422  0.00  0.00    -0.238 NA
ATOM     14  C   UNL     1      -7.382 -11.001  17.102  0.00  0.00    +0.127 A 
ATOM     15  C   UNL     1      -5.572 -11.203  15.861  0.00  0.00    +0.066 A 
ATOM     16  C   UNL     1      -6.446 -12.242  15.647  0.00  0.00    +0.139 A 
ATOM     23  H   UNL     1      -5.823  -9.563  17.199  0.00  0.00    +0.167 HD
ENDROOT
BRANCH  15  17
ATOM      1  F   UNL     1      -0.867 -10.270  16.376  0.00  0.00    -0.205 F 
ATOM     17  C   UNL     1      -4.284 -10.902  15.294  0.00  0.00    +0.003 A 
ATOM     18  C   UNL     1      -3.178 -10.729  16.126  0.00  0.00    +0.048 A 
ATOM     19  C   UNL     1      -4.141 -10.784  13.911  0.00  0.00    +0.010 A 
ATOM     20  C   UNL     1      -1.930 -10.437  15.576  0.00  0.00    +0.124 A 
ATOM     21  C   UNL     1      -2.893 -10.491  13.361  0.00  0.00    +0.003 A 
ATOM     22  C   UNL     1      -1.787 -10.319  14.194  0.00  0.00    +0.038 A 
ENDBRANCH  15  17
BRANCH  14  10
ATOM      2  O   UNL     1      -9.358 -10.797  20.297  0.00  0.00    -0.377 OA
ATOM      3  N   UNL     1      -9.658 -10.029  17.555  0.00  0.00    -0.288 NA
ATOM     10  C   UNL     1      -8.330 -10.381  18.118  0.00  0.00    +0.149 C 
ATOM     11  C   UNL     1     -10.549  -9.534  18.621  0.00  0.00    +0.113 C 
ATOM     12  C   UNL     1      -8.498 -11.354  19.302  0.00  0.00    +0.186 C 
ATOM     13  C   UNL     1     -10.651 -10.547  19.753  0.00  0.00    +0.175 C 
BRANCH   3   9
ATOM      9  C   UNL     1      -9.560  -9.013  16.500  0.00  0.00    +0.088 C 
BRANCH   9   6
ATOM      6  C   UNL     1     -10.554  -7.917  16.707  0.00  0.00    +0.003 C 
ATOM      7  C   UNL     1     -11.580  -7.615  15.650  0.00  0.00    +0.005 C 
ATOM      8  C   UNL     1     -10.458  -6.648  15.908  0.00  0.00    +0.005 C 
ENDBRANCH   9   6
ENDBRANCH   3   9
ENDBRANCH  14  10
TORSDOF 4
ENDMDL
MODEL 10
REMARK VINA RESULT:      -5.7     27.053     28.169
REMARK  Name = 71694218
REMARK  4 active torsions:
REMARK  status: ('A' for Active; 'I' for Inactive)
REMARK    1  A    between atoms: N_3  and  C_9
REMARK    2  A    between atoms: C_6  and  C_9
REMARK    3  A    between atoms: C_10  and  C_14
REMARK    4  A    between atoms: C_15  and  C_17
REMARK                            x       y       z     vdW  Elec       q    Type
REMARK                         _______ _______ _______ _____ _____    ______ ____
ROOT
ATOM      4  N   UNL     1      -4.899 -10.574  14.914  0.00  0.00    -0.341 N 
ATOM      5  N   UNL     1      -6.684 -10.150  13.663  0.00  0.00    -0.238 NA
ATOM     14  C   UNL     1      -5.381 -10.330  13.659  0.00  0.00    +0.127 A 
ATOM     15  C   UNL     1      -5.960 -10.549  15.774  0.00  0.00    +0.066 A 
ATOM     16  C   UNL     1      -7.051 -10.286  14.979  0.00  0.00    +0.139 A 
ATOM     23  H   UNL     1      -3.929 -10.733  15.156  0.00  0.00    +0.167 HD
ENDROOT
BRANCH  15  17
ATOM      1  F   UNL     1      -3.474 -12.168  19.577  0.00  0.00    -0.205 F 
ATOM     17  C   UNL     1      -5.837 -10.768  17.191  0.00  0.00    +0.003 A 
ATOM     18  C   UNL     1      -4.692 -11.374  17.708  0.00  0.00    +0.048 A 
ATOM     19  C   UNL     1      -6.864 -10.374  18.049  0.00  0.00    +0.010 A 
ATOM     20  C   UNL     1      -4.574 -11.586  19.082  0.00  0.00    +0.124 A 
ATOM     21  C   UNL     1      -6.747 -10.586  19.423  0.00  0.00    +0.003 A 
ATOM     22  C   UNL     1      -5.601 -11.191  19.939  0.00  0.00    +0.038 A 
ENDBRANCH  15  17
BRANCH  14  10
ATOM      2  O   UNL     1      -4.139  -9.147  10.310  0.00  0.00    -0.377 OA
ATOM      3  N   UNL     1      -4.299 -11.600  11.777  0.00  0.00    -0.288 NA
ATOM     10  C   UNL     1      -4.459 -10.287  12.449  0.00  0.00    +0.149 C 
ATOM     11  C   UNL     1      -3.479 -11.454  10.560  0.00  0.00    +0.113 C 
ATOM     12  C   UNL     1      -4.994  -9.242  11.451  0.00  0.00    +0.186 C 
ATOM     13  C   UNL     1      -4.070 -10.399   9.635  0.00  0.00    +0.175 C 
BRANCH   3   9
ATOM      9  C   UNL     1      -3.680 -12.601  12.655  0.00  0.00    +0.088 C 
BRANCH   9   6
ATOM      6  C   UNL     1      -2.240 -12.292  12.902  0.00  0.00    +0.003 C 
ATOM      7  C   UNL     1      -1.339 -13.321  13.527  0.00  0.00    +0.005 C 
ATOM      8  C   UNL     1      -1.737 -12.098  14.305  0.00  0.00    +0.005 C 
ENDBRANCH   9   6
ENDBRANCH   3   9
ENDBRANCH  14  10
TORSDOF 4
ENDMDL
