MODEL 1
REMARK VINA RESULT:      -6.5      0.000      0.000
REMARK  Name = 86769002
REMARK  11 active torsions:
REMARK  status: ('A' for Active; 'I' for Inactive)
REMARK    1  A    between atoms: O_3  and  C_8
REMARK    2  A    between atoms: N_5  and  C_7
REMARK    3  A    between atoms: N_5  and  C_14
REMARK    4  A    between atoms: N_6  and  C_11
REMARK    5  A    between atoms: C_9  and  C_11
REMARK    6  A    between atoms: C_12  and  C_13
REMARK    7  A    between atoms: C_12  and  C_16
REMARK    8  A    between atoms: C_12  and  C_17
REMARK    9  A    between atoms: C_12  and  C_18
REMARK   10  A    between atoms: C_13  and  C_15
REMARK   11  A    between atoms: C_14  and  C_19
REMARK                            x       y       z     vdW  Elec       q    Type
REMARK                         _______ _______ _______ _____ _____    ______ ____
ROOT
ATOM      2  O   UNL     1      11.109   8.768  20.205  0.00  0.00    -0.371 OA
ATOM      7  C   UNL     1      12.440   6.864  19.704  0.00  0.00    +0.111 C 
ATOM      8  C   UNL     1      12.112   6.863  21.185  0.00  0.00    +0.164 C 
ATOM      9  C   UNL     1      10.889   7.770  21.217  0.00  0.00    +0.165 C 
ATOM     10  C   UNL     1      12.161   8.313  19.336  0.00  0.00    +0.181 C 
ENDROOT
BRANCH   8   3
ATOM      3  O   UNL     1      11.822   5.569  21.679  0.00  0.00    -0.388 OA
ATOM     25  H   UNL     1      12.134   4.918  21.029  0.00  0.00    +0.210 HD
ENDBRANCH   8   3
BRANCH   7   5
ATOM      5  N   UNL     1      13.803   6.457  19.407  0.00  0.00    -0.304 NA
ATOM     23  H   UNL     1      13.826   6.029  18.481  0.00  0.00    +0.123 HD
BRANCH   5  14
ATOM     14  C   UNL     1      14.709   7.600  19.427  0.00  0.00    +0.124 C 
BRANCH  14  19
ATOM      1  S   UNL     1      16.960   8.087  20.985  0.00  0.00    -0.100 S 
ATOM     19  C   UNL     1      16.112   7.196  19.794  0.00  0.00    +0.004 A 
ATOM     20  C   UNL     1      16.866   6.159  19.291  0.00  0.00    +0.012 A 
ATOM     21  C   UNL     1      18.156   6.094  19.891  0.00  0.00    +0.008 A 
ATOM     22  C   UNL     1      18.341   7.086  20.829  0.00  0.00    +0.045 A 
ENDBRANCH  14  19
ENDBRANCH   5  14
ENDBRANCH   7   5
BRANCH   9  11
ATOM     11  C   UNL     1      10.674   8.442  22.562  0.00  0.00    +0.138 C 
BRANCH  11   6
ATOM      4  O   UNL     1      12.648  10.516  23.002  0.00  0.00    -0.276 OA
ATOM      6  N   UNL     1      10.494   9.868  22.417  0.00  0.00    -0.313 N 
ATOM     15  C   UNL     1      11.501  10.789  22.651  0.00  0.00    +0.214 C 
ATOM     24  H   UNL     1       9.580  10.196  22.120  0.00  0.00    +0.149 HD
BRANCH  15  13
ATOM     13  C   UNL     1      11.055  12.226  22.438  0.00  0.00    +0.102 C 
BRANCH  13  12
ATOM     12  C   UNL     1      11.005  13.083  23.725  0.00  0.00    -0.029 C 
ATOM     16  C   UNL     1      10.809  12.202  24.971  0.00  0.00    +0.011 C 
ATOM     17  C   UNL     1      12.350  13.823  23.858  0.00  0.00    +0.011 C 
ATOM     18  C   UNL     1       9.879  14.129  23.661  0.00  0.00    +0.011 C 
ENDBRANCH  13  12
ENDBRANCH  15  13
ENDBRANCH  11   6
ENDBRANCH   9  11
TORSDOF 8
ENDMDL
MODEL 2
REMARK VINA RESULT:      -6.0      1.504      2.019
REMARK  Name = 86769002
REMARK  11 active torsions:
REMARK  status: ('A' for Active; 'I' for Inactive)
REMARK    1  A    between atoms: O_3  and  C_8
REMARK    2  A    between atoms: N_5  and  C_7
REMARK    3  A    between atoms: N_5  and  C_14
REMARK    4  A    between atoms: N_6  and  C_11
REMARK    5  A    between atoms: C_9  and  C_11
REMARK    6  A    between atoms: C_12  and  C_13
REMARK    7  A    between atoms: C_12  and  C_16
REMARK    8  A    between atoms: C_12  and  C_17
REMARK    9  A    between atoms: C_12  and  C_18
REMARK   10  A    between atoms: C_13  and  C_15
REMARK   11  A    between atoms: C_14  and  C_19
REMARK                            x       y       z     vdW  Elec       q    Type
REMARK                         _______ _______ _______ _____ _____    ______ ____
ROOT
ATOM      2  O   UNL     1      10.654   8.637  20.027  0.00  0.00    -0.371 OA
ATOM      7  C   UNL     1      12.451   7.266  19.296  0.00  0.00    +0.111 C 
ATOM      8  C   UNL     1      12.411   7.263  20.813  0.00  0.00    +0.164 C 
ATOM      9  C   UNL     1      10.976   7.702  21.070  0.00  0.00    +0.165 C 
ATOM     10  C   UNL     1      11.627   8.503  18.976  0.00  0.00    +0.181 C 
ENDROOT
BRANCH   8   3
ATOM      3  O   UNL     1      12.680   5.988  21.364  0.00  0.00    -0.388 OA
ATOM     25  H   UNL     1      13.585   5.734  21.117  0.00  0.00    +0.210 HD
ENDBRANCH   8   3
BRANCH   7   5
ATOM      5  N   UNL     1      13.796   7.324  18.747  0.00  0.00    -0.304 NA
ATOM     23  H   UNL     1      13.738   7.545  17.753  0.00  0.00    +0.123 HD
BRANCH   5  14
ATOM     14  C   UNL     1      14.593   8.345  19.417  0.00  0.00    +0.124 C 
BRANCH  14  19
ATOM      1  S   UNL     1      16.452   6.279  19.317  0.00  0.00    -0.100 S 
ATOM     19  C   UNL     1      15.918   7.804  19.884  0.00  0.00    +0.004 A 
ATOM     20  C   UNL     1      16.822   8.379  20.749  0.00  0.00    +0.012 A 
ATOM     21  C   UNL     1      17.968   7.557  20.950  0.00  0.00    +0.008 A 
ATOM     22  C   UNL     1      17.896   6.384  20.230  0.00  0.00    +0.045 A 
ENDBRANCH  14  19
ENDBRANCH   5  14
ENDBRANCH   7   5
BRANCH   9  11
ATOM     11  C   UNL     1      10.782   8.358  22.426  0.00  0.00    +0.138 C 
BRANCH  11   6
ATOM      4  O   UNL     1      10.583  11.124  23.262  0.00  0.00    -0.276 OA
ATOM      6  N   UNL     1      11.868   9.261  22.735  0.00  0.00    -0.313 N 
ATOM     15  C   UNL     1      11.674  10.574  23.129  0.00  0.00    +0.214 C 
ATOM     24  H   UNL     1      12.813   8.897  22.665  0.00  0.00    +0.149 HD
BRANCH  15  13
ATOM     13  C   UNL     1      12.975  11.316  23.387  0.00  0.00    +0.102 C 
BRANCH  13  12
ATOM     12  C   UNL     1      13.394  12.295  22.264  0.00  0.00    -0.029 C 
ATOM     16  C   UNL     1      12.825  13.702  22.516  0.00  0.00    +0.011 C 
ATOM     17  C   UNL     1      14.932  12.386  22.259  0.00  0.00    +0.011 C 
ATOM     18  C   UNL     1      12.932  11.800  20.884  0.00  0.00    +0.011 C 
ENDBRANCH  13  12
ENDBRANCH  15  13
ENDBRANCH  11   6
ENDBRANCH   9  11
TORSDOF 8
ENDMDL
MODEL 3
REMARK VINA RESULT:      -6.0      4.418      7.040
REMARK  Name = 86769002
REMARK  11 active torsions:
REMARK  status: ('A' for Active; 'I' for Inactive)
REMARK    1  A    between atoms: O_3  and  C_8
REMARK    2  A    between atoms: N_5  and  C_7
REMARK    3  A    between atoms: N_5  and  C_14
REMARK    4  A    between atoms: N_6  and  C_11
REMARK    5  A    between atoms: C_9  and  C_11
REMARK    6  A    between atoms: C_12  and  C_13
REMARK    7  A    between atoms: C_12  and  C_16
REMARK    8  A    between atoms: C_12  and  C_17
REMARK    9  A    between atoms: C_12  and  C_18
REMARK   10  A    between atoms: C_13  and  C_15
REMARK   11  A    between atoms: C_14  and  C_19
REMARK                            x       y       z     vdW  Elec       q    Type
REMARK                         _______ _______ _______ _____ _____    ______ ____
ROOT
ATOM      2  O   UNL     1      18.511   7.314  21.672  0.00  0.00    -0.371 OA
ATOM      7  C   UNL     1      19.811   6.038  20.147  0.00  0.00    +0.111 C 
ATOM      8  C   UNL     1      18.351   5.655  19.994  0.00  0.00    +0.164 C 
ATOM      9  C   UNL     1      17.663   6.871  20.599  0.00  0.00    +0.165 C 
ATOM     10  C   UNL     1      19.805   6.707  21.513  0.00  0.00    +0.181 C 
ENDROOT
BRANCH   8   3
ATOM      3  O   UNL     1      17.977   5.453  18.645  0.00  0.00    -0.388 OA
ATOM     25  H   UNL     1      18.216   4.545  18.395  0.00  0.00    +0.210 HD
ENDBRANCH   8   3
BRANCH   7   5
ATOM      5  N   UNL     1      20.723   4.908  20.075  0.00  0.00    -0.304 NA
ATOM     23  H   UNL     1      21.031   4.794  19.108  0.00  0.00    +0.123 HD
BRANCH   5  14
ATOM     14  C   UNL     1      21.889   5.118  20.925  0.00  0.00    +0.124 C 
BRANCH  14  19
ATOM      1  S   UNL     1      24.395   4.289  20.050  0.00  0.00    -0.100 S 
ATOM     19  C   UNL     1      22.883   3.995  20.799  0.00  0.00    +0.004 A 
ATOM     20  C   UNL     1      22.759   2.689  21.218  0.00  0.00    +0.012 A 
ATOM     21  C   UNL     1      23.919   1.919  20.920  0.00  0.00    +0.008 A 
ATOM     22  C   UNL     1      24.887   2.666  20.284  0.00  0.00    +0.045 A 
ENDBRANCH  14  19
ENDBRANCH   5  14
ENDBRANCH   7   5
BRANCH   9  11
ATOM     11  C   UNL     1      16.273   6.570  21.134  0.00  0.00    +0.138 C 
BRANCH  11   6
ATOM      4  O   UNL     1      13.462   7.166  21.495  0.00  0.00    -0.276 OA
ATOM      6  N   UNL     1      15.269   6.713  20.105  0.00  0.00    -0.313 N 
ATOM     15  C   UNL     1      13.942   7.001  20.375  0.00  0.00    +0.214 C 
ATOM     24  H   UNL     1      15.568   6.605  19.141  0.00  0.00    +0.149 HD
BRANCH  15  13
ATOM     13  C   UNL     1      13.086   7.091  19.122  0.00  0.00    +0.102 C 
BRANCH  13  12
ATOM     12  C   UNL     1      12.417   8.467  18.894  0.00  0.00    -0.029 C 
ATOM     16  C   UNL     1      11.987   8.637  17.427  0.00  0.00    +0.011 C 
ATOM     17  C   UNL     1      11.160   8.540  19.782  0.00  0.00    +0.011 C 
ATOM     18  C   UNL     1      13.355   9.621  19.285  0.00  0.00    +0.011 C 
ENDBRANCH  13  12
ENDBRANCH  15  13
ENDBRANCH  11   6
ENDBRANCH   9  11
TORSDOF 8
ENDMDL
MODEL 4
REMARK VINA RESULT:      -5.8     33.358     35.246
REMARK  Name = 86769002
REMARK  11 active torsions:
REMARK  status: ('A' for Active; 'I' for Inactive)
REMARK    1  A    between atoms: O_3  and  C_8
REMARK    2  A    between atoms: N_5  and  C_7
REMARK    3  A    between atoms: N_5  and  C_14
REMARK    4  A    between atoms: N_6  and  C_11
REMARK    5  A    between atoms: C_9  and  C_11
REMARK    6  A    between atoms: C_12  and  C_13
REMARK    7  A    between atoms: C_12  and  C_16
REMARK    8  A    between atoms: C_12  and  C_17
REMARK    9  A    between atoms: C_12  and  C_18
REMARK   10  A    between atoms: C_13  and  C_15
REMARK   11  A    between atoms: C_14  and  C_19
REMARK                            x       y       z     vdW  Elec       q    Type
REMARK                         _______ _______ _______ _____ _____    ______ ____
ROOT
ATOM      2  O   UNL     1      -1.300 -15.618  -2.203  0.00  0.00    -0.371 OA
ATOM      7  C   UNL     1      -0.560 -14.327  -0.351  0.00  0.00    +0.111 C 
ATOM      8  C   UNL     1      -1.386 -13.447  -1.269  0.00  0.00    +0.164 C 
ATOM      9  C   UNL     1      -2.178 -14.491  -2.044  0.00  0.00    +0.165 C 
ATOM     10  C   UNL     1      -0.208 -15.481  -1.277  0.00  0.00    +0.181 C 
ENDROOT
BRANCH   8   3
ATOM      3  O   UNL     1      -2.232 -12.561  -0.561  0.00  0.00    -0.388 OA
ATOM     25  H   UNL     1      -3.067 -13.021  -0.374  0.00  0.00    +0.210 HD
ENDBRANCH   8   3
BRANCH   7   5
ATOM      5  N   UNL     1       0.612 -13.664   0.197  0.00  0.00    -0.304 NA
ATOM     23  H   UNL     1       0.307 -12.903   0.806  0.00  0.00    +0.123 HD
BRANCH   5  14
ATOM     14  C   UNL     1       1.429 -14.593   0.969  0.00  0.00    +0.124 C 
BRANCH  14  19
ATOM      1  S   UNL     1       3.943 -15.772   1.119  0.00  0.00    -0.100 S 
ATOM     19  C   UNL     1       2.863 -14.591   0.509  0.00  0.00    +0.004 A 
ATOM     20  C   UNL     1       3.479 -13.737  -0.378  0.00  0.00    +0.012 A 
ATOM     21  C   UNL     1       4.855 -14.055  -0.560  0.00  0.00    +0.008 A 
ATOM     22  C   UNL     1       5.240 -15.141   0.196  0.00  0.00    +0.045 A 
ENDBRANCH  14  19
ENDBRANCH   5  14
ENDBRANCH   7   5
BRANCH   9  11
ATOM     11  C   UNL     1      -2.641 -14.004  -3.406  0.00  0.00    +0.138 C 
BRANCH  11   6
ATOM      4  O   UNL     1      -0.580 -14.214  -5.429  0.00  0.00    -0.276 OA
ATOM      6  N   UNL     1      -1.793 -12.946  -3.905  0.00  0.00    -0.313 N 
ATOM     15  C   UNL     1      -0.830 -13.142  -4.880  0.00  0.00    +0.214 C 
ATOM     24  H   UNL     1      -1.929 -12.017  -3.520  0.00  0.00    +0.149 HD
BRANCH  15  13
ATOM     13  C   UNL     1      -0.066 -11.874  -5.225  0.00  0.00    +0.102 C 
BRANCH  13  12
ATOM     12  C   UNL     1       1.387 -11.831  -4.695  0.00  0.00    -0.029 C 
ATOM     16  C   UNL     1       2.368 -12.423  -5.722  0.00  0.00    +0.011 C 
ATOM     17  C   UNL     1       1.763 -10.356  -4.455  0.00  0.00    +0.011 C 
ATOM     18  C   UNL     1       1.524 -12.590  -3.366  0.00  0.00    +0.011 C 
ENDBRANCH  13  12
ENDBRANCH  15  13
ENDBRANCH  11   6
ENDBRANCH   9  11
TORSDOF 8
ENDMDL
MODEL 5
REMARK VINA RESULT:      -5.8      2.978      7.022
REMARK  Name = 86769002
REMARK  11 active torsions:
REMARK  status: ('A' for Active; 'I' for Inactive)
REMARK    1  A    between atoms: O_3  and  C_8
REMARK    2  A    between atoms: N_5  and  C_7
REMARK    3  A    between atoms: N_5  and  C_14
REMARK    4  A    between atoms: N_6  and  C_11
REMARK    5  A    between atoms: C_9  and  C_11
REMARK    6  A    between atoms: C_12  and  C_13
REMARK    7  A    between atoms: C_12  and  C_16
REMARK    8  A    between atoms: C_12  and  C_17
REMARK    9  A    between atoms: C_12  and  C_18
REMARK   10  A    between atoms: C_13  and  C_15
REMARK   11  A    between atoms: C_14  and  C_19
REMARK                            x       y       z     vdW  Elec       q    Type
REMARK                         _______ _______ _______ _____ _____    ______ ____
ROOT
ATOM      2  O   UNL     1      13.244   8.638  21.796  0.00  0.00    -0.371 OA
ATOM      7  C   UNL     1      11.366   9.715  22.772  0.00  0.00    +0.111 C 
ATOM      8  C   UNL     1      10.880   8.630  21.831  0.00  0.00    +0.164 C 
ATOM      9  C   UNL     1      12.117   7.747  21.735  0.00  0.00    +0.165 C 
ATOM     10  C   UNL     1      12.796   9.910  22.293  0.00  0.00    +0.181 C 
ENDROOT
BRANCH   8   3
ATOM      3  O   UNL     1       9.766   7.922  22.341  0.00  0.00    -0.388 OA
ATOM     25  H   UNL     1       9.249   7.585  21.590  0.00  0.00    +0.210 HD
ENDBRANCH   8   3
BRANCH   7   5
ATOM      5  N   UNL     1      10.578  10.936  22.714  0.00  0.00    -0.304 NA
ATOM     23  H   UNL     1       9.854  10.896  23.432  0.00  0.00    +0.123 HD
BRANCH   5  14
ATOM     14  C   UNL     1      11.411  12.110  22.941  0.00  0.00    +0.124 C 
BRANCH  14  19
ATOM      1  S   UNL     1      12.146  13.515  20.656  0.00  0.00    -0.100 S 
ATOM     19  C   UNL     1      11.093  13.219  21.974  0.00  0.00    +0.004 A 
ATOM     20  C   UNL     1      10.022  14.085  21.984  0.00  0.00    +0.012 A 
ATOM     21  C   UNL     1      10.066  15.004  20.897  0.00  0.00    +0.008 A 
ATOM     22  C   UNL     1      11.170  14.806  20.096  0.00  0.00    +0.045 A 
ENDBRANCH  14  19
ENDBRANCH   5  14
ENDBRANCH   7   5
BRANCH   9  11
ATOM     11  C   UNL     1      12.175   6.932  20.455  0.00  0.00    +0.138 C 
BRANCH  11   6
ATOM      4  O   UNL     1      11.818   7.086  17.584  0.00  0.00    -0.276 OA
ATOM      6  N   UNL     1      13.073   7.526  19.490  0.00  0.00    -0.313 N 
ATOM     15  C   UNL     1      12.817   7.552  18.130  0.00  0.00    +0.214 C 
ATOM     24  H   UNL     1      13.925   7.949  19.844  0.00  0.00    +0.149 HD
BRANCH  15  13
ATOM     13  C   UNL     1      13.919   8.225  17.330  0.00  0.00    +0.102 C 
BRANCH  13  12
ATOM     12  C   UNL     1      13.541   9.605  16.741  0.00  0.00    -0.029 C 
ATOM     16  C   UNL     1      13.151  10.593  17.854  0.00  0.00    +0.011 C 
ATOM     17  C   UNL     1      14.772  10.164  16.004  0.00  0.00    +0.011 C 
ATOM     18  C   UNL     1      12.383   9.490  15.736  0.00  0.00    +0.011 C 
ENDBRANCH  13  12
ENDBRANCH  15  13
ENDBRANCH  11   6
ENDBRANCH   9  11
TORSDOF 8
ENDMDL
MODEL 6
REMARK VINA RESULT:      -5.6     26.412     28.559
REMARK  Name = 86769002
REMARK  11 active torsions:
REMARK  status: ('A' for Active; 'I' for Inactive)
REMARK    1  A    between atoms: O_3  and  C_8
REMARK    2  A    between atoms: N_5  and  C_7
REMARK    3  A    between atoms: N_5  and  C_14
REMARK    4  A    between atoms: N_6  and  C_11
REMARK    5  A    between atoms: C_9  and  C_11
REMARK    6  A    between atoms: C_12  and  C_13
REMARK    7  A    between atoms: C_12  and  C_16
REMARK    8  A    between atoms: C_12  and  C_17
REMARK    9  A    between atoms: C_12  and  C_18
REMARK   10  A    between atoms: C_13  and  C_15
REMARK   11  A    between atoms: C_14  and  C_19
REMARK                            x       y       z     vdW  Elec       q    Type
REMARK                         _______ _______ _______ _____ _____    ______ ____
ROOT
ATOM      2  O   UNL     1      -4.386 -11.985  17.648  0.00  0.00    -0.371 OA
ATOM      7  C   UNL     1      -6.372 -10.695  17.460  0.00  0.00    +0.111 C 
ATOM      8  C   UNL     1      -5.256  -9.999  16.705  0.00  0.00    +0.164 C 
ATOM      9  C   UNL     1      -4.287 -11.152  16.481  0.00  0.00    +0.165 C 
ATOM     10  C   UNL     1      -5.585 -11.634  18.360  0.00  0.00    +0.181 C 
ENDROOT
BRANCH   8   3
ATOM      3  O   UNL     1      -5.692  -9.431  15.485  0.00  0.00    -0.388 OA
ATOM     25  H   UNL     1      -6.526  -8.958  15.649  0.00  0.00    +0.210 HD
ENDBRANCH   8   3
BRANCH   7   5
ATOM      5  N   UNL     1      -7.232  -9.787  18.202  0.00  0.00    -0.304 NA
ATOM     23  H   UNL     1      -7.379  -8.944  17.647  0.00  0.00    +0.123 HD
BRANCH   5  14
ATOM     14  C   UNL     1      -8.523 -10.402  18.486  0.00  0.00    +0.124 C 
BRANCH  14  19
ATOM      1  S   UNL     1      -9.348  -8.366  16.781  0.00  0.00    -0.100 S 
ATOM     19  C   UNL     1      -9.664  -9.584  17.942  0.00  0.00    +0.004 A 
ATOM     20  C   UNL     1     -11.003  -9.667  18.252  0.00  0.00    +0.012 A 
ATOM     21  C   UNL     1     -11.781  -8.719  17.527  0.00  0.00    +0.008 A 
ATOM     22  C   UNL     1     -11.006  -7.946  16.690  0.00  0.00    +0.045 A 
ENDBRANCH  14  19
ENDBRANCH   5  14
ENDBRANCH   7   5
BRANCH   9  11
ATOM     11  C   UNL     1      -2.850 -10.701  16.292  0.00  0.00    +0.138 C 
BRANCH  11   6
ATOM      4  O   UNL     1      -2.061 -12.305  14.013  0.00  0.00    -0.276 OA
ATOM      6  N   UNL     1      -2.611 -10.246  14.941  0.00  0.00    -0.313 N 
ATOM     15  C   UNL     1      -2.235 -11.092  13.912  0.00  0.00    +0.214 C 
ATOM     24  H   UNL     1      -2.739  -9.257  14.752  0.00  0.00    +0.149 HD
BRANCH  15  13
ATOM     13  C   UNL     1      -2.038 -10.369  12.590  0.00  0.00    +0.102 C 
BRANCH  13  12
ATOM     12  C   UNL     1      -3.202 -10.531  11.584  0.00  0.00    -0.029 C 
ATOM     16  C   UNL     1      -4.557 -10.251  12.256  0.00  0.00    +0.011 C 
ATOM     17  C   UNL     1      -3.000  -9.507  10.450  0.00  0.00    +0.011 C 
ATOM     18  C   UNL     1      -3.222 -11.940  10.969  0.00  0.00    +0.011 C 
ENDBRANCH  13  12
ENDBRANCH  15  13
ENDBRANCH  11   6
ENDBRANCH   9  11
TORSDOF 8
ENDMDL
MODEL 7
REMARK VINA RESULT:      -5.4     26.071     28.239
REMARK  Name = 86769002
REMARK  11 active torsions:
REMARK  status: ('A' for Active; 'I' for Inactive)
REMARK    1  A    between atoms: O_3  and  C_8
REMARK    2  A    between atoms: N_5  and  C_7
REMARK    3  A    between atoms: N_5  and  C_14
REMARK    4  A    between atoms: N_6  and  C_11
REMARK    5  A    between atoms: C_9  and  C_11
REMARK    6  A    between atoms: C_12  and  C_13
REMARK    7  A    between atoms: C_12  and  C_16
REMARK    8  A    between atoms: C_12  and  C_17
REMARK    9  A    between atoms: C_12  and  C_18
REMARK   10  A    between atoms: C_13  and  C_15
REMARK   11  A    between atoms: C_14  and  C_19
REMARK                            x       y       z     vdW  Elec       q    Type
REMARK                         _______ _______ _______ _____ _____    ______ ____
ROOT
ATOM      2  O   UNL     1      -1.846 -10.912  12.768  0.00  0.00    -0.371 OA
ATOM      7  C   UNL     1      -1.852 -11.425  15.088  0.00  0.00    +0.111 C 
ATOM      8  C   UNL     1      -2.553 -12.539  14.333  0.00  0.00    +0.164 C 
ATOM      9  C   UNL     1      -2.005 -12.332  12.928  0.00  0.00    +0.165 C 
ATOM     10  C   UNL     1      -1.893 -10.299  14.068  0.00  0.00    +0.181 C 
ENDROOT
BRANCH   8   3
ATOM      3  O   UNL     1      -2.241 -13.823  14.838  0.00  0.00    -0.388 OA
ATOM     25  H   UNL     1      -1.320 -14.027  14.601  0.00  0.00    +0.210 HD
ENDBRANCH   8   3
BRANCH   7   5
ATOM      5  N   UNL     1      -2.495 -11.076  16.344  0.00  0.00    -0.304 NA
ATOM     23  H   UNL     1      -1.967 -10.322  16.787  0.00  0.00    +0.123 HD
BRANCH   5  14
ATOM     14  C   UNL     1      -3.867 -10.633  16.127  0.00  0.00    +0.124 C 
BRANCH  14  19
ATOM      1  S   UNL     1      -6.346 -10.295  17.341  0.00  0.00    -0.100 S 
ATOM     19  C   UNL     1      -4.721 -10.836  17.350  0.00  0.00    +0.004 A 
ATOM     20  C   UNL     1      -4.378 -11.422  18.548  0.00  0.00    +0.012 A 
ATOM     21  C   UNL     1      -5.463 -11.429  19.471  0.00  0.00    +0.008 A 
ATOM     22  C   UNL     1      -6.595 -10.846  18.943  0.00  0.00    +0.045 A 
ENDBRANCH  14  19
ENDBRANCH   5  14
ENDBRANCH   7   5
BRANCH   9  11
ATOM     11  C   UNL     1      -2.919 -12.872  11.841  0.00  0.00    +0.138 C 
BRANCH  11   6
ATOM      4  O   UNL     1      -4.229 -12.589   9.274  0.00  0.00    -0.276 OA
ATOM      6  N   UNL     1      -3.931 -11.908  11.475  0.00  0.00    -0.313 N 
ATOM     15  C   UNL     1      -4.503 -11.848  10.216  0.00  0.00    +0.214 C 
ATOM     24  H   UNL     1      -4.235 -11.254  12.191  0.00  0.00    +0.149 HD
BRANCH  15  13
ATOM     13  C   UNL     1      -5.535 -10.741  10.083  0.00  0.00    +0.102 C 
BRANCH  13  12
ATOM     12  C   UNL     1      -5.058  -9.507   9.280  0.00  0.00    -0.029 C 
ATOM     16  C   UNL     1      -5.213  -9.738   7.767  0.00  0.00    +0.011 C 
ATOM     17  C   UNL     1      -5.937  -8.307   9.682  0.00  0.00    +0.011 C 
ATOM     18  C   UNL     1      -3.593  -9.163   9.593  0.00  0.00    +0.011 C 
ENDBRANCH  13  12
ENDBRANCH  15  13
ENDBRANCH  11   6
ENDBRANCH   9  11
TORSDOF 8
ENDMDL
MODEL 8
REMARK VINA RESULT:      -5.3     15.169     18.268
REMARK  Name = 86769002
REMARK  11 active torsions:
REMARK  status: ('A' for Active; 'I' for Inactive)
REMARK    1  A    between atoms: O_3  and  C_8
REMARK    2  A    between atoms: N_5  and  C_7
REMARK    3  A    between atoms: N_5  and  C_14
REMARK    4  A    between atoms: N_6  and  C_11
REMARK    5  A    between atoms: C_9  and  C_11
REMARK    6  A    between atoms: C_12  and  C_13
REMARK    7  A    between atoms: C_12  and  C_16
REMARK    8  A    between atoms: C_12  and  C_17
REMARK    9  A    between atoms: C_12  and  C_18
REMARK   10  A    between atoms: C_13  and  C_15
REMARK   11  A    between atoms: C_14  and  C_19
REMARK                            x       y       z     vdW  Elec       q    Type
REMARK                         _______ _______ _______ _____ _____    ______ ____
ROOT
ATOM      2  O   UNL     1      11.091   5.857   6.127  0.00  0.00    -0.371 OA
ATOM      7  C   UNL     1       9.208   6.675   7.322  0.00  0.00    +0.111 C 
ATOM      8  C   UNL     1       8.888   6.668   5.839  0.00  0.00    +0.164 C 
ATOM      9  C   UNL     1       9.915   5.671   5.321  0.00  0.00    +0.165 C 
ATOM     10  C   UNL     1      10.726   6.601   7.303  0.00  0.00    +0.181 C 
ENDROOT
BRANCH   8   3
ATOM      3  O   UNL     1       7.563   6.252   5.568  0.00  0.00    -0.388 OA
ATOM     25  H   UNL     1       7.082   7.002   5.179  0.00  0.00    +0.210 HD
ENDBRANCH   8   3
BRANCH   7   5
ATOM      5  N   UNL     1       8.707   7.846   8.023  0.00  0.00    -0.304 NA
ATOM     23  H   UNL     1       9.069   7.840   8.977  0.00  0.00    +0.123 HD
BRANCH   5  14
ATOM     14  C   UNL     1       9.130   9.075   7.361  0.00  0.00    +0.124 C 
BRANCH  14  19
ATOM      1  S   UNL     1      11.470  10.400   8.068  0.00  0.00    -0.100 S 
ATOM     19  C   UNL     1       9.819  10.015   8.313  0.00  0.00    +0.004 A 
ATOM     20  C   UNL     1       9.299  10.653   9.417  0.00  0.00    +0.012 A 
ATOM     21  C   UNL     1      10.267  11.467  10.071  0.00  0.00    +0.008 A 
ATOM     22  C   UNL     1      11.492  11.421   9.442  0.00  0.00    +0.045 A 
ENDBRANCH  14  19
ENDBRANCH   5  14
ENDBRANCH   7   5
BRANCH   9  11
ATOM     11  C   UNL     1      10.260   5.870   3.856  0.00  0.00    +0.138 C 
BRANCH  11   6
ATOM      4  O   UNL     1      10.219   4.088   1.573  0.00  0.00    -0.276 OA
ATOM      6  N   UNL     1      11.304   4.966   3.431  0.00  0.00    -0.313 N 
ATOM     15  C   UNL     1      11.194   4.148   2.320  0.00  0.00    +0.214 C 
ATOM     24  H   UNL     1      12.159   4.949   3.979  0.00  0.00    +0.149 HD
BRANCH  15  13
ATOM     13  C   UNL     1      12.425   3.286   2.092  0.00  0.00    +0.102 C 
BRANCH  13  12
ATOM     12  C   UNL     1      13.410   3.835   1.033  0.00  0.00    -0.029 C 
ATOM     16  C   UNL     1      13.147   3.206  -0.347  0.00  0.00    +0.011 C 
ATOM     17  C   UNL     1      13.196   5.356   0.923  0.00  0.00    +0.011 C 
ATOM     18  C   UNL     1      14.871   3.577   1.437  0.00  0.00    +0.011 C 
ENDBRANCH  13  12
ENDBRANCH  15  13
ENDBRANCH  11   6
ENDBRANCH   9  11
TORSDOF 8
ENDMDL
MODEL 9
REMARK VINA RESULT:      -5.3     26.499     28.629
REMARK  Name = 86769002
REMARK  11 active torsions:
REMARK  status: ('A' for Active; 'I' for Inactive)
REMARK    1  A    between atoms: O_3  and  C_8
REMARK    2  A    between atoms: N_5  and  C_7
REMARK    3  A    between atoms: N_5  and  C_14
REMARK    4  A    between atoms: N_6  and  C_11
REMARK    5  A    between atoms: C_9  and  C_11
REMARK    6  A    between atoms: C_12  and  C_13
REMARK    7  A    between atoms: C_12  and  C_16
REMARK    8  A    between atoms: C_12  and  C_17
REMARK    9  A    between atoms: C_12  and  C_18
REMARK   10  A    between atoms: C_13  and  C_15
REMARK   11  A    between atoms: C_14  and  C_19
REMARK                            x       y       z     vdW  Elec       q    Type
REMARK                         _______ _______ _______ _____ _____    ______ ____
ROOT
ATOM      2  O   UNL     1      -8.121 -13.035  18.673  0.00  0.00    -0.371 OA
ATOM      7  C   UNL     1      -6.172 -11.713  18.356  0.00  0.00    +0.111 C 
ATOM      8  C   UNL     1      -7.226 -10.880  19.061  0.00  0.00    +0.164 C 
ATOM      9  C   UNL     1      -8.125 -11.967  19.635  0.00  0.00    +0.165 C 
ATOM     10  C   UNL     1      -7.016 -12.835  17.773  0.00  0.00    +0.181 C 
ENDROOT
BRANCH   8   3
ATOM      3  O   UNL     1      -6.683 -10.055  20.074  0.00  0.00    -0.388 OA
ATOM     25  H   UNL     1      -5.816  -9.734  19.773  0.00  0.00    +0.210 HD
ENDBRANCH   8   3
BRANCH   7   5
ATOM      5  N   UNL     1      -5.428 -10.981  17.345  0.00  0.00    -0.304 NA
ATOM     23  H   UNL     1      -5.651  -9.988  17.425  0.00  0.00    +0.123 HD
BRANCH   5  14
ATOM     14  C   UNL     1      -3.991 -11.161  17.517  0.00  0.00    +0.124 C 
BRANCH  14  19
ATOM      1  S   UNL     1      -4.056 -10.924  14.746  0.00  0.00    -0.100 S 
ATOM     19  C   UNL     1      -3.234 -10.869  16.248  0.00  0.00    +0.004 A 
ATOM     20  C   UNL     1      -1.904 -10.546  16.098  0.00  0.00    +0.012 A 
ATOM     21  C   UNL     1      -1.554 -10.340  14.733  0.00  0.00    +0.008 A 
ATOM     22  C   UNL     1      -2.631 -10.515  13.890  0.00  0.00    +0.045 A 
ENDBRANCH  14  19
ENDBRANCH   5  14
ENDBRANCH   7   5
BRANCH   9  11
ATOM     11  C   UNL     1      -9.549 -11.501  19.879  0.00  0.00    +0.138 C 
BRANCH  11   6
ATOM      4  O   UNL     1     -11.500 -11.004  17.797  0.00  0.00    -0.276 OA
ATOM      6  N   UNL     1      -9.817 -10.248  19.211  0.00  0.00    -0.313 N 
ATOM     15  C   UNL     1     -10.775 -10.106  18.222  0.00  0.00    +0.214 C 
ATOM     24  H   UNL     1      -9.275  -9.440  19.499  0.00  0.00    +0.149 HD
BRANCH  15  13
ATOM     13  C   UNL     1     -10.857  -8.691  17.672  0.00  0.00    +0.102 C 
BRANCH  13  12
ATOM     12  C   UNL     1     -10.265  -8.515  16.253  0.00  0.00    -0.029 C 
ATOM     16  C   UNL     1      -8.911  -9.233  16.125  0.00  0.00    +0.011 C 
ATOM     17  C   UNL     1     -11.247  -9.143  15.245  0.00  0.00    +0.011 C 
ATOM     18  C   UNL     1     -10.088  -7.030  15.898  0.00  0.00    +0.011 C 
ENDBRANCH  13  12
ENDBRANCH  15  13
ENDBRANCH  11   6
ENDBRANCH   9  11
TORSDOF 8
ENDMDL
MODEL 10
REMARK VINA RESULT:      -5.2     26.943     29.032
REMARK  Name = 86769002
REMARK  11 active torsions:
REMARK  status: ('A' for Active; 'I' for Inactive)
REMARK    1  A    between atoms: O_3  and  C_8
REMARK    2  A    between atoms: N_5  and  C_7
REMARK    3  A    between atoms: N_5  and  C_14
REMARK    4  A    between atoms: N_6  and  C_11
REMARK    5  A    between atoms: C_9  and  C_11
REMARK    6  A    between atoms: C_12  and  C_13
REMARK    7  A    between atoms: C_12  and  C_16
REMARK    8  A    between atoms: C_12  and  C_17
REMARK    9  A    between atoms: C_12  and  C_18
REMARK   10  A    between atoms: C_13  and  C_15
REMARK   11  A    between atoms: C_14  and  C_19
REMARK                            x       y       z     vdW  Elec       q    Type
REMARK                         _______ _______ _______ _____ _____    ______ ____
ROOT
ATOM      2  O   UNL     1      -5.328 -10.053  16.786  0.00  0.00    -0.371 OA
ATOM      7  C   UNL     1      -5.490 -10.779  19.043  0.00  0.00    +0.111 C 
ATOM      8  C   UNL     1      -4.479 -11.646  18.315  0.00  0.00    +0.164 C 
ATOM      9  C   UNL     1      -4.121 -10.753  17.134  0.00  0.00    +0.165 C 
ATOM     10  C   UNL     1      -6.256 -10.170  17.879  0.00  0.00    +0.181 C 
ENDROOT
BRANCH   8   3
ATOM      3  O   UNL     1      -3.348 -11.950  19.108  0.00  0.00    -0.388 OA
ATOM     25  H   UNL     1      -3.656 -12.194  19.997  0.00  0.00    +0.210 HD
ENDBRANCH   8   3
BRANCH   7   5
ATOM      5  N   UNL     1      -6.344 -11.519  19.957  0.00  0.00    -0.304 NA
ATOM     23  H   UNL     1      -6.920 -10.859  20.480  0.00  0.00    +0.123 HD
BRANCH   5  14
ATOM     14  C   UNL     1      -7.212 -12.441  19.235  0.00  0.00    +0.124 C 
BRANCH  14  19
ATOM      1  S   UNL     1      -9.430 -13.727  20.315  0.00  0.00    -0.100 S 
ATOM     19  C   UNL     1      -8.643 -12.338  19.693  0.00  0.00    +0.004 A 
ATOM     20  C   UNL     1      -9.467 -11.235  19.690  0.00  0.00    +0.012 A 
ATOM     21  C   UNL     1     -10.762 -11.533  20.204  0.00  0.00    +0.008 A 
ATOM     22  C   UNL     1     -10.878 -12.853  20.580  0.00  0.00    +0.045 A 
ENDBRANCH  14  19
ENDBRANCH   5  14
ENDBRANCH   7   5
BRANCH   9  11
ATOM     11  C   UNL     1      -3.610 -11.525  15.931  0.00  0.00    +0.138 C 
BRANCH  11   6
ATOM      4  O   UNL     1      -4.574 -12.486  13.374  0.00  0.00    -0.276 OA
ATOM      6  N   UNL     1      -3.765 -10.766  14.711  0.00  0.00    -0.313 N 
ATOM     15  C   UNL     1      -4.236 -11.314  13.531  0.00  0.00    +0.214 C 
ATOM     24  H   UNL     1      -3.522  -9.780  14.740  0.00  0.00    +0.149 HD
BRANCH  15  13
ATOM     13  C   UNL     1      -4.298 -10.310  12.391  0.00  0.00    +0.102 C 
BRANCH  13  12
ATOM     12  C   UNL     1      -3.204 -10.490  11.312  0.00  0.00    -0.029 C 
ATOM     16  C   UNL     1      -1.821 -10.692  11.954  0.00  0.00    +0.011 C 
ATOM     17  C   UNL     1      -3.547 -11.748  10.490  0.00  0.00    +0.011 C 
ATOM     18  C   UNL     1      -3.150  -9.285  10.358  0.00  0.00    +0.011 C 
ENDBRANCH  13  12
ENDBRANCH  15  13
ENDBRANCH  11   6
ENDBRANCH   9  11
TORSDOF 8
ENDMDL
