REMARK  Name = 75537125
REMARK  2 active torsions:
REMARK  status: ('A' for Active; 'I' for Inactive)
REMARK    1  A    between atoms: N_4  and  C_9
REMARK    2  A    between atoms: N_5  and  C_11
REMARK                            x       y       z     vdW  Elec       q    Type
REMARK                         _______ _______ _______ _____ _____    ______ ____
ROOT
ATOM      2  O   UNL     1      -2.094   2.650  -0.490  0.00  0.00    -0.252 OA
ATOM      3  N   UNL     1      -0.242   1.391   0.219  0.00  0.00    -0.278 N 
ATOM      4  N   UNL     1      -2.244   0.378   0.124  0.00  0.00    -0.281 N 
ATOM      5  N   UNL     1       2.381   0.377   0.264  0.00  0.00    -0.296 NA
ATOM      6  C   UNL     1      -0.009   0.072   0.770  0.00  0.00    +0.109 C 
ATOM      7  C   UNL     1      -1.311  -0.675   0.487  0.00  0.00    +0.133 C 
ATOM      8  C   UNL     1       1.239  -0.552   0.144  0.00  0.00    +0.108 C 
ATOM     10  C   UNL     1       0.854   2.335   0.151  0.00  0.00    +0.125 C 
ATOM     12  C   UNL     1       2.097   1.652  -0.425  0.00  0.00    +0.104 C 
ATOM     13  C   UNL     1      -1.591   1.607  -0.095  0.00  0.00    +0.305 C 
ENDROOT
BRANCH   5  11
ATOM      1  O   UNL     1       6.262  -1.220   0.158  0.00  0.00    -0.380 OA
ATOM     11  C   UNL     1       3.592  -0.235  -0.277  0.00  0.00    +0.061 C 
ATOM     18  C   UNL     1       3.871  -1.587   0.387  0.00  0.00    +0.047 C 
ATOM     19  C   UNL     1       4.791   0.699  -0.087  0.00  0.00    +0.047 C 
ATOM     21  C   UNL     1       5.206  -2.147  -0.091  0.00  0.00    +0.161 C 
ATOM     22  C   UNL     1       6.075   0.012  -0.539  0.00  0.00    +0.161 C 
ENDBRANCH   5  11
BRANCH   4   9
ATOM      9  C   UNL     1      -3.641   0.110  -0.120  0.00  0.00    +0.078 C 
ATOM     14  C   UNL     1      -4.351  -0.266   1.183  0.00  0.00    +0.022 C 
ATOM     15  C   UNL     1      -3.807  -0.982  -1.180  0.00  0.00    +0.022 C 
ATOM     16  C   UNL     1      -5.820  -0.606   0.946  0.00  0.00    +0.002 C 
ATOM     17  C   UNL     1      -5.277  -1.320  -1.415  0.00  0.00    +0.002 C 
ATOM     20  C   UNL     1      -5.983  -1.692  -0.114  0.00  0.00    +0.000 C 
ENDBRANCH   4   9
TORSDOF 2
