MODEL 1
REMARK VINA RESULT:      -8.6      0.000      0.000
REMARK  Name = 51136849
REMARK  7 active torsions:
REMARK  status: ('A' for Active; 'I' for Inactive)
REMARK    1  A    between atoms: O_2  and  C_33
REMARK    2  A    between atoms: N_4  and  C_14
REMARK    3  A    between atoms: N_6  and  C_25
REMARK    4  A    between atoms: C_10  and  C_15
REMARK    5  A    between atoms: C_14  and  C_16
REMARK    6  A    between atoms: C_21  and  C_26
REMARK    7  A    between atoms: C_32  and  C_33
REMARK                            x       y       z     vdW  Elec       q    Type
REMARK                         _______ _______ _______ _____ _____    ______ ____
ROOT
ATOM      1  O   UNL     1      14.889   8.601  19.945  0.00  0.00    -0.336 OA
ATOM      7  N   UNL     1      15.849   6.784  19.055  0.00  0.00    -0.190 NA
ATOM      8  N   UNL     1      16.084   8.409  20.648  0.00  0.00    -0.056 NA
ATOM     15  C   UNL     1      14.827   7.602  19.027  0.00  0.00    +0.245 A 
ATOM     21  C   UNL     1      16.593   7.320  20.066  0.00  0.00    +0.204 A 
ENDROOT
BRANCH  21  26
ATOM      5  N   UNL     1      21.427   5.013  21.564  0.00  0.00    -0.313 N 
ATOM      6  N   UNL     1      23.962   3.808  22.092  0.00  0.00    -0.302 NA
ATOM      9  N   UNL     1      19.578   5.104  20.089  0.00  0.00    -0.240 NA
ATOM     17  C   UNL     1      21.643   3.593  21.266  0.00  0.00    +0.122 C 
ATOM     18  C   UNL     1      22.637   5.841  21.619  0.00  0.00    +0.122 C 
ATOM     19  C   UNL     1      22.731   3.013  22.172  0.00  0.00    +0.103 C 
ATOM     20  C   UNL     1      23.692   5.188  22.514  0.00  0.00    +0.103 C 
ATOM     22  C   UNL     1      20.210   5.588  21.181  0.00  0.00    +0.121 A 
ATOM     25  C   UNL     1      25.010   3.214  22.921  0.00  0.00    +0.105 C 
ATOM     26  C   UNL     1      17.841   6.741  20.470  0.00  0.00    +0.041 A 
ATOM     27  C   UNL     1      19.728   6.630  21.957  0.00  0.00    +0.044 A 
ATOM     28  C   UNL     1      18.520   7.213  21.588  0.00  0.00    +0.016 A 
ATOM     31  C   UNL     1      18.407   5.694  19.761  0.00  0.00    +0.124 A 
ENDBRANCH  21  26
BRANCH  15  10
ATOM      4  N   UNL     1      12.537   8.480  18.606  0.00  0.00    -0.287 NA
ATOM     10  C   UNL     1      13.610   7.586  18.126  0.00  0.00    +0.146 C 
ATOM     11  C   UNL     1      13.920   8.078  16.701  0.00  0.00    +0.030 C 
ATOM     12  C   UNL     1      12.932   9.208  16.445  0.00  0.00    +0.017 C 
ATOM     13  C   UNL     1      11.806   8.924  17.419  0.00  0.00    +0.085 C 
BRANCH   4  14
ATOM     14  C   UNL     1      11.661   7.852  19.586  0.00  0.00    +0.120 C 
BRANCH  14  16
ATOM     16  C   UNL     1      11.466   8.719  20.802  0.00  0.00    -0.033 A 
ATOM     23  C   UNL     1      11.839  10.063  20.766  0.00  0.00    +0.006 A 
ATOM     24  C   UNL     1      10.914   8.179  21.963  0.00  0.00    +0.006 A 
ATOM     29  C   UNL     1      11.659  10.866  21.891  0.00  0.00    +0.015 A 
ATOM     30  C   UNL     1      10.734   8.983  23.089  0.00  0.00    +0.015 A 
ATOM     32  C   UNL     1      11.107  10.327  23.053  0.00  0.00    +0.059 A 
BRANCH  32  33
ATOM      3  O   UNL     1      10.225  12.187  24.273  0.00  0.00    -0.245 OA
ATOM     33  C   UNL     1      10.918  11.164  24.226  0.00  0.00    +0.337 C 
BRANCH  33   2
ATOM      2  O   UNL     1      11.599  10.704  25.311  0.00  0.00    -0.477 OA
ATOM     34  H   UNL     1      11.431  11.251  26.108  0.00  0.00    +0.295 HD
ENDBRANCH  33   2
ENDBRANCH  32  33
ENDBRANCH  14  16
ENDBRANCH   4  14
ENDBRANCH  15  10
TORSDOF 6
ENDMDL
MODEL 2
REMARK VINA RESULT:      -8.4      0.575      1.507
REMARK  Name = 51136849
REMARK  7 active torsions:
REMARK  status: ('A' for Active; 'I' for Inactive)
REMARK    1  A    between atoms: O_2  and  C_33
REMARK    2  A    between atoms: N_4  and  C_14
REMARK    3  A    between atoms: N_6  and  C_25
REMARK    4  A    between atoms: C_10  and  C_15
REMARK    5  A    between atoms: C_14  and  C_16
REMARK    6  A    between atoms: C_21  and  C_26
REMARK    7  A    between atoms: C_32  and  C_33
REMARK                            x       y       z     vdW  Elec       q    Type
REMARK                         _______ _______ _______ _____ _____    ______ ____
ROOT
ATOM      1  O   UNL     1      15.094   8.304  20.116  0.00  0.00    -0.336 OA
ATOM      7  N   UNL     1      16.108   6.618  19.046  0.00  0.00    -0.190 NA
ATOM      8  N   UNL     1      16.292   8.072  20.803  0.00  0.00    -0.056 NA
ATOM     15  C   UNL     1      15.064   7.405  19.098  0.00  0.00    +0.245 A 
ATOM     21  C   UNL     1      16.834   7.065  20.112  0.00  0.00    +0.204 A 
ENDROOT
BRANCH  21  26
ATOM      5  N   UNL     1      21.738   4.863  21.536  0.00  0.00    -0.313 N 
ATOM      6  N   UNL     1      24.189   3.760  22.505  0.00  0.00    -0.302 NA
ATOM      9  N   UNL     1      20.013   6.434  21.933  0.00  0.00    -0.240 NA
ATOM     17  C   UNL     1      22.727   5.728  22.188  0.00  0.00    +0.122 C 
ATOM     18  C   UNL     1      21.819   3.438  21.878  0.00  0.00    +0.122 C 
ATOM     19  C   UNL     1      24.135   5.148  22.030  0.00  0.00    +0.103 C 
ATOM     20  C   UNL     1      23.256   2.932  21.730  0.00  0.00    +0.103 C 
ATOM     22  C   UNL     1      20.504   5.422  21.184  0.00  0.00    +0.121 A 
ATOM     25  C   UNL     1      25.549   3.235  22.399  0.00  0.00    +0.105 C 
ATOM     26  C   UNL     1      18.096   6.482  20.461  0.00  0.00    +0.041 A 
ATOM     27  C   UNL     1      19.861   4.894  20.077  0.00  0.00    +0.044 A 
ATOM     28  C   UNL     1      18.634   5.439  19.714  0.00  0.00    +0.016 A 
ATOM     31  C   UNL     1      18.818   6.938  21.551  0.00  0.00    +0.124 A 
ENDBRANCH  21  26
BRANCH  15  10
ATOM      4  N   UNL     1      12.802   8.363  18.694  0.00  0.00    -0.287 NA
ATOM     10  C   UNL     1      13.850   7.451  18.193  0.00  0.00    +0.146 C 
ATOM     11  C   UNL     1      14.180   7.974  16.783  0.00  0.00    +0.030 C 
ATOM     12  C   UNL     1      13.227   9.138  16.556  0.00  0.00    +0.017 C 
ATOM     13  C   UNL     1      12.089   8.861  17.518  0.00  0.00    +0.085 C 
BRANCH   4  14
ATOM     14  C   UNL     1      11.904   7.733  19.654  0.00  0.00    +0.120 C 
BRANCH  14  16
ATOM     16  C   UNL     1      11.638   8.622  20.840  0.00  0.00    -0.033 A 
ATOM     23  C   UNL     1      11.035   8.096  21.983  0.00  0.00    +0.006 A 
ATOM     24  C   UNL     1      11.994   9.970  20.796  0.00  0.00    +0.006 A 
ATOM     29  C   UNL     1      10.789   8.918  23.082  0.00  0.00    +0.015 A 
ATOM     30  C   UNL     1      11.747  10.792  21.894  0.00  0.00    +0.015 A 
ATOM     32  C   UNL     1      11.144  10.266  23.038  0.00  0.00    +0.059 A 
BRANCH  32  33
ATOM      3  O   UNL     1      10.167  12.127  24.182  0.00  0.00    -0.245 OA
ATOM     33  C   UNL     1      10.889  11.124  24.184  0.00  0.00    +0.337 C 
BRANCH  33   2
ATOM      2  O   UNL     1      11.541  10.706  25.303  0.00  0.00    -0.477 OA
ATOM     34  H   UNL     1      12.015   9.860  25.156  0.00  0.00    +0.295 HD
ENDBRANCH  33   2
ENDBRANCH  32  33
ENDBRANCH  14  16
ENDBRANCH   4  14
ENDBRANCH  15  10
TORSDOF 6
ENDMDL
MODEL 3
REMARK VINA RESULT:      -7.5      2.474      5.032
REMARK  Name = 51136849
REMARK  7 active torsions:
REMARK  status: ('A' for Active; 'I' for Inactive)
REMARK    1  A    between atoms: O_2  and  C_33
REMARK    2  A    between atoms: N_4  and  C_14
REMARK    3  A    between atoms: N_6  and  C_25
REMARK    4  A    between atoms: C_10  and  C_15
REMARK    5  A    between atoms: C_14  and  C_16
REMARK    6  A    between atoms: C_21  and  C_26
REMARK    7  A    between atoms: C_32  and  C_33
REMARK                            x       y       z     vdW  Elec       q    Type
REMARK                         _______ _______ _______ _____ _____    ______ ____
ROOT
ATOM      1  O   UNL     1      15.817   9.739  20.850  0.00  0.00    -0.336 OA
ATOM      7  N   UNL     1      15.880   7.503  20.953  0.00  0.00    -0.190 NA
ATOM      8  N   UNL     1      17.171   9.385  20.798  0.00  0.00    -0.056 NA
ATOM     15  C   UNL     1      15.127   8.573  20.942  0.00  0.00    +0.245 A 
ATOM     21  C   UNL     1      17.127   8.052  20.863  0.00  0.00    +0.204 A 
ENDROOT
BRANCH  21  26
ATOM      5  N   UNL     1      21.753   4.965  20.831  0.00  0.00    -0.313 N 
ATOM      6  N   UNL     1      24.168   3.456  21.047  0.00  0.00    -0.302 NA
ATOM      9  N   UNL     1      20.620   6.940  21.480  0.00  0.00    -0.240 NA
ATOM     17  C   UNL     1      23.049   5.652  20.868  0.00  0.00    +0.122 C 
ATOM     18  C   UNL     1      21.730   3.622  21.421  0.00  0.00    +0.122 C 
ATOM     19  C   UNL     1      24.156   4.739  20.335  0.00  0.00    +0.103 C 
ATOM     20  C   UNL     1      22.879   2.775  20.870  0.00  0.00    +0.103 C 
ATOM     22  C   UNL     1      20.593   5.748  20.843  0.00  0.00    +0.121 A 
ATOM     25  C   UNL     1      25.263   2.614  20.567  0.00  0.00    +0.105 C 
ATOM     26  C   UNL     1      18.308   7.239  20.842  0.00  0.00    +0.041 A 
ATOM     27  C   UNL     1      19.479   5.241  20.193  0.00  0.00    +0.044 A 
ATOM     28  C   UNL     1      18.318   6.007  20.197  0.00  0.00    +0.016 A 
ATOM     31  C   UNL     1      19.474   7.656  21.463  0.00  0.00    +0.124 A 
ENDBRANCH  21  26
BRANCH  15  10
ATOM      4  N   UNL     1      12.997   8.851  19.684  0.00  0.00    -0.287 NA
ATOM     10  C   UNL     1      13.618   8.685  21.014  0.00  0.00    +0.146 C 
ATOM     11  C   UNL     1      12.956   7.425  21.599  0.00  0.00    +0.030 C 
ATOM     12  C   UNL     1      11.936   6.990  20.558  0.00  0.00    +0.017 C 
ATOM     13  C   UNL     1      11.663   8.258  19.773  0.00  0.00    +0.085 C 
BRANCH   4  14
ATOM     14  C   UNL     1      12.952  10.238  19.240  0.00  0.00    +0.120 C 
BRANCH  14  16
ATOM     16  C   UNL     1      13.668  10.432  17.930  0.00  0.00    -0.033 A 
ATOM     23  C   UNL     1      13.633   9.428  16.962  0.00  0.00    +0.006 A 
ATOM     24  C   UNL     1      14.367  11.614  17.684  0.00  0.00    +0.006 A 
ATOM     29  C   UNL     1      14.295   9.606  15.748  0.00  0.00    +0.015 A 
ATOM     30  C   UNL     1      15.030  11.791  16.470  0.00  0.00    +0.015 A 
ATOM     32  C   UNL     1      14.995  10.787  15.502  0.00  0.00    +0.059 A 
BRANCH  32  33
ATOM      3  O   UNL     1      15.142  11.064  13.130  0.00  0.00    -0.245 OA
ATOM     33  C   UNL     1      15.685  10.974  14.236  0.00  0.00    +0.337 C 
BRANCH  33   2
ATOM      2  O   UNL     1      17.037  11.044  14.385  0.00  0.00    -0.477 OA
ATOM     34  H   UNL     1      17.383  10.308  14.934  0.00  0.00    +0.295 HD
ENDBRANCH  33   2
ENDBRANCH  32  33
ENDBRANCH  14  16
ENDBRANCH   4  14
ENDBRANCH  15  10
TORSDOF 6
ENDMDL
MODEL 4
REMARK VINA RESULT:      -7.5      1.930      4.361
REMARK  Name = 51136849
REMARK  7 active torsions:
REMARK  status: ('A' for Active; 'I' for Inactive)
REMARK    1  A    between atoms: O_2  and  C_33
REMARK    2  A    between atoms: N_4  and  C_14
REMARK    3  A    between atoms: N_6  and  C_25
REMARK    4  A    between atoms: C_10  and  C_15
REMARK    5  A    between atoms: C_14  and  C_16
REMARK    6  A    between atoms: C_21  and  C_26
REMARK    7  A    between atoms: C_32  and  C_33
REMARK                            x       y       z     vdW  Elec       q    Type
REMARK                         _______ _______ _______ _____ _____    ______ ____
ROOT
ATOM      1  O   UNL     1      14.912   9.808  21.656  0.00  0.00    -0.336 OA
ATOM      7  N   UNL     1      15.271   7.733  20.893  0.00  0.00    -0.190 NA
ATOM      8  N   UNL     1      16.288   9.579  21.783  0.00  0.00    -0.056 NA
ATOM     15  C   UNL     1      14.389   8.672  21.126  0.00  0.00    +0.245 A 
ATOM     21  C   UNL     1      16.422   8.337  21.312  0.00  0.00    +0.204 A 
ENDROOT
BRANCH  21  26
ATOM      5  N   UNL     1      21.297   5.678  21.011  0.00  0.00    -0.313 N 
ATOM      6  N   UNL     1      23.748   4.264  20.620  0.00  0.00    -0.302 NA
ATOM      9  N   UNL     1      19.012   5.826  20.412  0.00  0.00    -0.240 NA
ATOM     17  C   UNL     1      21.286   4.221  20.838  0.00  0.00    +0.122 C 
ATOM     18  C   UNL     1      22.467   6.373  20.464  0.00  0.00    +0.122 C 
ATOM     19  C   UNL     1      22.616   3.616  21.294  0.00  0.00    +0.103 C 
ATOM     20  C   UNL     1      23.759   5.699  20.932  0.00  0.00    +0.103 C 
ATOM     22  C   UNL     1      20.067   6.341  21.082  0.00  0.00    +0.121 A 
ATOM     25  C   UNL     1      25.008   3.642  21.023  0.00  0.00    +0.105 C 
ATOM     26  C   UNL     1      17.689   7.668  21.248  0.00  0.00    +0.041 A 
ATOM     27  C   UNL     1      20.012   7.497  21.844  0.00  0.00    +0.044 A 
ATOM     28  C   UNL     1      18.796   8.168  21.924  0.00  0.00    +0.016 A 
ATOM     31  C   UNL     1      17.847   6.505  20.513  0.00  0.00    +0.124 A 
ENDBRANCH  21  26
BRANCH  15  10
ATOM      4  N   UNL     1      12.312   7.309  20.967  0.00  0.00    -0.287 NA
ATOM     10  C   UNL     1      12.894   8.664  20.887  0.00  0.00    +0.146 C 
ATOM     11  C   UNL     1      12.121   9.483  21.937  0.00  0.00    +0.030 C 
ATOM     12  C   UNL     1      11.088   8.524  22.510  0.00  0.00    +0.017 C 
ATOM     13  C   UNL     1      10.933   7.477  21.425  0.00  0.00    +0.085 C 
BRANCH   4  14
ATOM     14  C   UNL     1      12.388   6.577  19.709  0.00  0.00    +0.120 C 
BRANCH  14  16
ATOM     16  C   UNL     1      12.585   7.499  18.535  0.00  0.00    -0.033 A 
ATOM     23  C   UNL     1      13.761   7.433  17.787  0.00  0.00    +0.006 A 
ATOM     24  C   UNL     1      11.592   8.418  18.195  0.00  0.00    +0.006 A 
ATOM     29  C   UNL     1      13.944   8.286  16.700  0.00  0.00    +0.015 A 
ATOM     30  C   UNL     1      11.776   9.271  17.107  0.00  0.00    +0.015 A 
ATOM     32  C   UNL     1      12.952   9.206  16.360  0.00  0.00    +0.059 A 
BRANCH  32  33
ATOM      3  O   UNL     1      14.228  10.540  14.836  0.00  0.00    -0.245 OA
ATOM     33  C   UNL     1      13.142  10.094  15.225  0.00  0.00    +0.337 C 
BRANCH  33   2
ATOM      2  O   UNL     1      11.971  10.405  14.604  0.00  0.00    -0.477 OA
ATOM     34  H   UNL     1      12.075  11.155  13.980  0.00  0.00    +0.295 HD
ENDBRANCH  33   2
ENDBRANCH  32  33
ENDBRANCH  14  16
ENDBRANCH   4  14
ENDBRANCH  15  10
TORSDOF 6
ENDMDL
MODEL 5
REMARK VINA RESULT:      -7.3      2.722      4.438
REMARK  Name = 51136849
REMARK  7 active torsions:
REMARK  status: ('A' for Active; 'I' for Inactive)
REMARK    1  A    between atoms: O_2  and  C_33
REMARK    2  A    between atoms: N_4  and  C_14
REMARK    3  A    between atoms: N_6  and  C_25
REMARK    4  A    between atoms: C_10  and  C_15
REMARK    5  A    between atoms: C_14  and  C_16
REMARK    6  A    between atoms: C_21  and  C_26
REMARK    7  A    between atoms: C_32  and  C_33
REMARK                            x       y       z     vdW  Elec       q    Type
REMARK                         _______ _______ _______ _____ _____    ______ ____
ROOT
ATOM      1  O   UNL     1      17.785  10.166  21.836  0.00  0.00    -0.336 OA
ATOM      7  N   UNL     1      17.423   8.013  21.336  0.00  0.00    -0.190 NA
ATOM      8  N   UNL     1      19.014   9.516  22.005  0.00  0.00    -0.056 NA
ATOM     15  C   UNL     1      16.904   9.210  21.443  0.00  0.00    +0.245 A 
ATOM     21  C   UNL     1      18.720   8.251  21.691  0.00  0.00    +0.204 A 
ENDROOT
BRANCH  21  26
ATOM      5  N   UNL     1      22.499   4.177  21.914  0.00  0.00    -0.313 N 
ATOM      6  N   UNL     1      24.303   1.982  22.208  0.00  0.00    -0.302 NA
ATOM      9  N   UNL     1      20.994   5.629  23.023  0.00  0.00    -0.240 NA
ATOM     17  C   UNL     1      23.337   4.069  23.113  0.00  0.00    +0.122 C 
ATOM     18  C   UNL     1      22.250   2.921  21.199  0.00  0.00    +0.122 C 
ATOM     19  C   UNL     1      24.615   3.286  22.806  0.00  0.00    +0.103 C 
ATOM     20  C   UNL     1      23.564   2.174  20.954  0.00  0.00    +0.103 C 
ATOM     22  C   UNL     1      21.547   5.202  21.866  0.00  0.00    +0.121 A 
ATOM     25  C   UNL     1      25.529   1.222  21.969  0.00  0.00    +0.105 C 
ATOM     26  C   UNL     1      19.696   7.201  21.725  0.00  0.00    +0.041 A 
ATOM     27  C   UNL     1      21.232   5.717  20.619  0.00  0.00    +0.044 A 
ATOM     28  C   UNL     1      20.287   6.736  20.555  0.00  0.00    +0.016 A 
ATOM     31  C   UNL     1      20.080   6.620  22.922  0.00  0.00    +0.124 A 
ENDBRANCH  21  26
BRANCH  15  10
ATOM      4  N   UNL     1      14.495   8.919  21.995  0.00  0.00    -0.287 NA
ATOM     10  C   UNL     1      15.482   9.665  21.189  0.00  0.00    +0.146 C 
ATOM     11  C   UNL     1      15.255  11.141  21.563  0.00  0.00    +0.030 C 
ATOM     12  C   UNL     1      14.084  11.132  22.534  0.00  0.00    +0.017 C 
ATOM     13  C   UNL     1      13.373   9.830  22.223  0.00  0.00    +0.085 C 
BRANCH   4  14
ATOM     14  C   UNL     1      14.071   7.671  21.373  0.00  0.00    +0.120 C 
BRANCH  14  16
ATOM     16  C   UNL     1      13.376   7.908  20.058  0.00  0.00    -0.033 A 
ATOM     23  C   UNL     1      12.020   8.234  20.035  0.00  0.00    +0.006 A 
ATOM     24  C   UNL     1      14.089   7.801  18.864  0.00  0.00    +0.006 A 
ATOM     29  C   UNL     1      11.377   8.454  18.818  0.00  0.00    +0.015 A 
ATOM     30  C   UNL     1      13.445   8.020  17.646  0.00  0.00    +0.015 A 
ATOM     32  C   UNL     1      12.089   8.346  17.623  0.00  0.00    +0.059 A 
BRANCH  32  33
ATOM      3  O   UNL     1      11.930   9.098  15.357  0.00  0.00    -0.245 OA
ATOM     33  C   UNL     1      11.418   8.576  16.354  0.00  0.00    +0.337 C 
BRANCH  33   2
ATOM      2  O   UNL     1      10.126   8.148  16.361  0.00  0.00    -0.477 OA
ATOM     34  H   UNL     1       9.627   8.478  15.583  0.00  0.00    +0.295 HD
ENDBRANCH  33   2
ENDBRANCH  32  33
ENDBRANCH  14  16
ENDBRANCH   4  14
ENDBRANCH  15  10
TORSDOF 6
ENDMDL
MODEL 6
REMARK VINA RESULT:      -7.3     25.977     31.126
REMARK  Name = 51136849
REMARK  7 active torsions:
REMARK  status: ('A' for Active; 'I' for Inactive)
REMARK    1  A    between atoms: O_2  and  C_33
REMARK    2  A    between atoms: N_4  and  C_14
REMARK    3  A    between atoms: N_6  and  C_25
REMARK    4  A    between atoms: C_10  and  C_15
REMARK    5  A    between atoms: C_14  and  C_16
REMARK    6  A    between atoms: C_21  and  C_26
REMARK    7  A    between atoms: C_32  and  C_33
REMARK                            x       y       z     vdW  Elec       q    Type
REMARK                         _______ _______ _______ _____ _____    ______ ____
ROOT
ATOM      1  O   UNL     1     -14.184   8.014  33.983  0.00  0.00    -0.336 OA
ATOM      7  N   UNL     1     -12.601   7.871  32.404  0.00  0.00    -0.190 NA
ATOM      8  N   UNL     1     -13.240   9.004  34.287  0.00  0.00    -0.056 NA
ATOM     15  C   UNL     1     -13.731   7.394  32.862  0.00  0.00    +0.245 A 
ATOM     21  C   UNL     1     -12.339   8.857  33.311  0.00  0.00    +0.204 A 
ENDROOT
BRANCH  21  26
ATOM      5  N   UNL     1      -7.827  12.077  32.865  0.00  0.00    -0.313 N 
ATOM      6  N   UNL     1      -5.662  13.917  32.575  0.00  0.00    -0.302 NA
ATOM      9  N   UNL     1      -9.974  11.451  32.088  0.00  0.00    -0.240 NA
ATOM     17  C   UNL     1      -7.446  12.561  31.533  0.00  0.00    +0.122 C 
ATOM     18  C   UNL     1      -7.440  12.938  33.987  0.00  0.00    +0.122 C 
ATOM     19  C   UNL     1      -5.967  12.957  31.509  0.00  0.00    +0.103 C 
ATOM     20  C   UNL     1      -5.961  13.322  33.883  0.00  0.00    +0.103 C 
ATOM     22  C   UNL     1      -8.966  11.270  32.970  0.00  0.00    +0.121 A 
ATOM     25  C   UNL     1      -4.260  14.328  32.508  0.00  0.00    +0.105 C 
ATOM     26  C   UNL     1     -11.167   9.676  33.216  0.00  0.00    +0.041 A 
ATOM     27  C   UNL     1      -8.984  10.329  33.987  0.00  0.00    +0.044 A 
ATOM     28  C   UNL     1     -10.109   9.519  34.105  0.00  0.00    +0.016 A 
ATOM     31  C   UNL     1     -11.051  10.647  32.235  0.00  0.00    +0.124 A 
ENDBRANCH  21  26
BRANCH  15  10
ATOM      4  N   UNL     1     -15.115   5.393  33.387  0.00  0.00    -0.287 NA
ATOM     10  C   UNL     1     -14.587   6.268  32.321  0.00  0.00    +0.146 C 
ATOM     11  C   UNL     1     -15.836   6.775  31.578  0.00  0.00    +0.030 C 
ATOM     12  C   UNL     1     -17.011   6.086  32.256  0.00  0.00    +0.017 C 
ATOM     13  C   UNL     1     -16.386   4.862  32.895  0.00  0.00    +0.085 C 
BRANCH   4  14
ATOM     14  C   UNL     1     -14.190   4.335  33.772  0.00  0.00    +0.120 C 
BRANCH  14  16
ATOM     16  C   UNL     1     -14.151   3.227  32.753  0.00  0.00    -0.033 A 
ATOM     23  C   UNL     1     -14.771   2.007  33.026  0.00  0.00    +0.006 A 
ATOM     24  C   UNL     1     -13.494   3.419  31.537  0.00  0.00    +0.006 A 
ATOM     29  C   UNL     1     -14.735   0.981  32.083  0.00  0.00    +0.015 A 
ATOM     30  C   UNL     1     -13.458   2.392  30.595  0.00  0.00    +0.015 A 
ATOM     32  C   UNL     1     -14.078   1.173  30.867  0.00  0.00    +0.059 A 
BRANCH  32  33
ATOM      3  O   UNL     1     -14.947  -0.172  29.089  0.00  0.00    -0.245 OA
ATOM     33  C   UNL     1     -14.041   0.103  29.883  0.00  0.00    +0.337 C 
BRANCH  33   2
ATOM      2  O   UNL     1     -12.873  -0.596  29.917  0.00  0.00    -0.477 OA
ATOM     34  H   UNL     1     -12.949  -1.457  29.453  0.00  0.00    +0.295 HD
ENDBRANCH  33   2
ENDBRANCH  32  33
ENDBRANCH  14  16
ENDBRANCH   4  14
ENDBRANCH  15  10
TORSDOF 6
ENDMDL
MODEL 7
REMARK VINA RESULT:      -7.2     27.848     30.717
REMARK  Name = 51136849
REMARK  7 active torsions:
REMARK  status: ('A' for Active; 'I' for Inactive)
REMARK    1  A    between atoms: O_2  and  C_33
REMARK    2  A    between atoms: N_4  and  C_14
REMARK    3  A    between atoms: N_6  and  C_25
REMARK    4  A    between atoms: C_10  and  C_15
REMARK    5  A    between atoms: C_14  and  C_16
REMARK    6  A    between atoms: C_21  and  C_26
REMARK    7  A    between atoms: C_32  and  C_33
REMARK                            x       y       z     vdW  Elec       q    Type
REMARK                         _______ _______ _______ _____ _____    ______ ____
ROOT
ATOM      1  O   UNL     1      -2.186 -10.183  11.459  0.00  0.00    -0.336 OA
ATOM      7  N   UNL     1      -4.077 -11.278  10.966  0.00  0.00    -0.190 NA
ATOM      8  N   UNL     1      -2.846  -9.406  10.500  0.00  0.00    -0.056 NA
ATOM     15  C   UNL     1      -2.977 -11.266  11.675  0.00  0.00    +0.245 A 
ATOM     21  C   UNL     1      -3.952 -10.116  10.260  0.00  0.00    +0.204 A 
ENDROOT
BRANCH  21  26
ATOM      5  N   UNL     1      -7.845  -8.413   6.672  0.00  0.00    -0.313 N 
ATOM      6  N   UNL     1      -9.780  -7.306   4.886  0.00  0.00    -0.302 NA
ATOM      9  N   UNL     1      -6.688  -8.128   8.718  0.00  0.00    -0.240 NA
ATOM     17  C   UNL     1      -9.028  -7.726   7.203  0.00  0.00    +0.122 C 
ATOM     18  C   UNL     1      -7.458  -8.047   5.306  0.00  0.00    +0.122 C 
ATOM     19  C   UNL     1     -10.186  -7.804   6.205  0.00  0.00    +0.103 C 
ATOM     20  C   UNL     1      -8.667  -8.114   4.370  0.00  0.00    +0.103 C 
ATOM     22  C   UNL     1      -6.867  -8.836   7.580  0.00  0.00    +0.121 A 
ATOM     25  C   UNL     1     -10.908  -7.335   3.957  0.00  0.00    +0.105 C 
ATOM     26  C   UNL     1      -4.949  -9.695   9.320  0.00  0.00    +0.041 A 
ATOM     27  C   UNL     1      -6.138  -9.966   7.247  0.00  0.00    +0.044 A 
ATOM     28  C   UNL     1      -5.163 -10.398   8.139  0.00  0.00    +0.016 A 
ATOM     31  C   UNL     1      -5.731  -8.577   9.560  0.00  0.00    +0.124 A 
ENDBRANCH  21  26
BRANCH  15  10
ATOM      4  N   UNL     1      -3.261 -12.261  13.939  0.00  0.00    -0.287 NA
ATOM     10  C   UNL     1      -2.477 -12.276  12.688  0.00  0.00    +0.146 C 
ATOM     11  C   UNL     1      -2.580 -13.726  12.181  0.00  0.00    +0.030 C 
ATOM     12  C   UNL     1      -3.385 -14.463  13.241  0.00  0.00    +0.017 C 
ATOM     13  C   UNL     1      -3.198 -13.617  14.484  0.00  0.00    +0.085 C 
BRANCH   4  14
ATOM     14  C   UNL     1      -2.797 -11.264  14.895  0.00  0.00    +0.120 C 
BRANCH  14  16
ATOM     16  C   UNL     1      -3.811 -11.010  15.979  0.00  0.00    -0.033 A 
ATOM     23  C   UNL     1      -5.010 -10.364  15.674  0.00  0.00    +0.006 A 
ATOM     24  C   UNL     1      -3.554 -11.422  17.286  0.00  0.00    +0.006 A 
ATOM     29  C   UNL     1      -5.950 -10.129  16.676  0.00  0.00    +0.015 A 
ATOM     30  C   UNL     1      -4.494 -11.186  18.289  0.00  0.00    +0.015 A 
ATOM     32  C   UNL     1      -5.692 -10.540  17.984  0.00  0.00    +0.059 A 
BRANCH  32  33
ATOM      3  O   UNL     1      -6.585 -10.687  20.199  0.00  0.00    -0.245 OA
ATOM     33  C   UNL     1      -6.672 -10.297  19.030  0.00  0.00    +0.337 C 
BRANCH  33   2
ATOM      2  O   UNL     1      -7.737  -9.571  18.588  0.00  0.00    -0.477 OA
ATOM     34  H   UNL     1      -7.589  -9.218  17.685  0.00  0.00    +0.295 HD
ENDBRANCH  33   2
ENDBRANCH  32  33
ENDBRANCH  14  16
ENDBRANCH   4  14
ENDBRANCH  15  10
TORSDOF 6
ENDMDL
MODEL 8
REMARK VINA RESULT:      -7.2     15.519     17.771
REMARK  Name = 51136849
REMARK  7 active torsions:
REMARK  status: ('A' for Active; 'I' for Inactive)
REMARK    1  A    between atoms: O_2  and  C_33
REMARK    2  A    between atoms: N_4  and  C_14
REMARK    3  A    between atoms: N_6  and  C_25
REMARK    4  A    between atoms: C_10  and  C_15
REMARK    5  A    between atoms: C_14  and  C_16
REMARK    6  A    between atoms: C_21  and  C_26
REMARK    7  A    between atoms: C_32  and  C_33
REMARK                            x       y       z     vdW  Elec       q    Type
REMARK                         _______ _______ _______ _____ _____    ______ ____
ROOT
ATOM      1  O   UNL     1      11.495   9.026   5.120  0.00  0.00    -0.336 OA
ATOM      7  N   UNL     1      12.907   7.311   5.407  0.00  0.00    -0.190 NA
ATOM      8  N   UNL     1      12.784   9.564   5.029  0.00  0.00    -0.056 NA
ATOM     15  C   UNL     1      11.658   7.696   5.345  0.00  0.00    +0.245 A 
ATOM     21  C   UNL     1      13.561   8.493   5.208  0.00  0.00    +0.204 A 
ENDROOT
BRANCH  21  26
ATOM      5  N   UNL     1      19.117   8.722   5.088  0.00  0.00    -0.313 N 
ATOM      6  N   UNL     1      21.954   8.829   4.780  0.00  0.00    -0.302 NA
ATOM      9  N   UNL     1      17.089   7.870   4.213  0.00  0.00    -0.240 NA
ATOM     17  C   UNL     1      19.853   7.536   4.636  0.00  0.00    +0.122 C 
ATOM     18  C   UNL     1      19.782  10.008   4.856  0.00  0.00    +0.122 C 
ATOM     19  C   UNL     1      21.295   7.571   5.149  0.00  0.00    +0.103 C 
ATOM     20  C   UNL     1      21.226   9.963   5.362  0.00  0.00    +0.103 C 
ATOM     22  C   UNL     1      17.719   8.658   5.112  0.00  0.00    +0.121 A 
ATOM     25  C   UNL     1      23.346   8.829   5.228  0.00  0.00    +0.105 C 
ATOM     26  C   UNL     1      14.993   8.568   5.195  0.00  0.00    +0.041 A 
ATOM     27  C   UNL     1      17.066   9.420   6.068  0.00  0.00    +0.044 A 
ATOM     28  C   UNL     1      15.676   9.368   6.104  0.00  0.00    +0.016 A 
ATOM     31  C   UNL     1      15.739   7.845   4.278  0.00  0.00    +0.124 A 
ENDBRANCH  21  26
BRANCH  15  10
ATOM      4  N   UNL     1      10.544   5.504   4.955  0.00  0.00    -0.287 NA
ATOM     10  C   UNL     1      10.392   6.875   5.484  0.00  0.00    +0.146 C 
ATOM     11  C   UNL     1       9.967   6.683   6.951  0.00  0.00    +0.030 C 
ATOM     12  C   UNL     1       9.846   5.178   7.137  0.00  0.00    +0.017 C 
ATOM     13  C   UNL     1       9.634   4.660   5.729  0.00  0.00    +0.085 C 
BRANCH   4  14
ATOM     14  C   UNL     1      10.296   5.411   3.523  0.00  0.00    +0.120 C 
BRANCH  14  16
ATOM     16  C   UNL     1      11.523   4.972   2.768  0.00  0.00    -0.033 A 
ATOM     23  C   UNL     1      12.515   5.900   2.452  0.00  0.00    +0.006 A 
ATOM     24  C   UNL     1      11.667   3.638   2.386  0.00  0.00    +0.006 A 
ATOM     29  C   UNL     1      13.651   5.495   1.754  0.00  0.00    +0.015 A 
ATOM     30  C   UNL     1      12.804   3.233   1.687  0.00  0.00    +0.015 A 
ATOM     32  C   UNL     1      13.796   4.162   1.370  0.00  0.00    +0.059 A 
BRANCH  32  33
ATOM      3  O   UNL     1      15.172   3.890  -0.569  0.00  0.00    -0.245 OA
ATOM     33  C   UNL     1      14.982   3.738   0.643  0.00  0.00    +0.337 C 
BRANCH  33   2
ATOM      2  O   UNL     1      15.900   3.135   1.448  0.00  0.00    -0.477 OA
ATOM     34  H   UNL     1      16.818   3.316   1.155  0.00  0.00    +0.295 HD
ENDBRANCH  33   2
ENDBRANCH  32  33
ENDBRANCH  14  16
ENDBRANCH   4  14
ENDBRANCH  15  10
TORSDOF 6
ENDMDL
MODEL 9
REMARK VINA RESULT:      -7.1      4.796      9.246
REMARK  Name = 51136849
REMARK  7 active torsions:
REMARK  status: ('A' for Active; 'I' for Inactive)
REMARK    1  A    between atoms: O_2  and  C_33
REMARK    2  A    between atoms: N_4  and  C_14
REMARK    3  A    between atoms: N_6  and  C_25
REMARK    4  A    between atoms: C_10  and  C_15
REMARK    5  A    between atoms: C_14  and  C_16
REMARK    6  A    between atoms: C_21  and  C_26
REMARK    7  A    between atoms: C_32  and  C_33
REMARK                            x       y       z     vdW  Elec       q    Type
REMARK                         _______ _______ _______ _____ _____    ______ ____
ROOT
ATOM      1  O   UNL     1      12.913  10.474  19.182  0.00  0.00    -0.336 OA
ATOM      7  N   UNL     1      13.501   9.373  17.322  0.00  0.00    -0.190 NA
ATOM      8  N   UNL     1      13.552  11.411  18.360  0.00  0.00    -0.056 NA
ATOM     15  C   UNL     1      12.928   9.301  18.496  0.00  0.00    +0.245 A 
ATOM     21  C   UNL     1      13.868  10.687  17.283  0.00  0.00    +0.204 A 
ENDROOT
BRANCH  21  26
ATOM      5  N   UNL     1      16.453  12.819  12.845  0.00  0.00    -0.313 N 
ATOM      6  N   UNL     1      17.558  13.986  10.483  0.00  0.00    -0.302 NA
ATOM      9  N   UNL     1      14.596  11.687  13.777  0.00  0.00    -0.240 NA
ATOM     17  C   UNL     1      16.229  12.189  11.539  0.00  0.00    +0.122 C 
ATOM     18  C   UNL     1      16.771  14.251  12.812  0.00  0.00    +0.122 C 
ATOM     19  C   UNL     1      17.367  12.534  10.574  0.00  0.00    +0.103 C 
ATOM     20  C   UNL     1      17.891  14.529  11.806  0.00  0.00    +0.103 C 
ATOM     22  C   UNL     1      15.797  12.280  13.957  0.00  0.00    +0.121 A 
ATOM     25  C   UNL     1      18.610  14.304   9.519  0.00  0.00    +0.105 C 
ATOM     26  C   UNL     1      14.553  11.244  16.153  0.00  0.00    +0.041 A 
ATOM     27  C   UNL     1      16.430  12.393  15.184  0.00  0.00    +0.044 A 
ATOM     28  C   UNL     1      15.790  11.862  16.299  0.00  0.00    +0.016 A 
ATOM     31  C   UNL     1      14.003  11.183  14.883  0.00  0.00    +0.124 A 
ENDBRANCH  21  26
BRANCH  15  10
ATOM      4  N   UNL     1      13.097   7.599  20.305  0.00  0.00    -0.287 NA
ATOM     10  C   UNL     1      12.287   8.111  19.181  0.00  0.00    +0.146 C 
ATOM     11  C   UNL     1      10.922   8.450  19.806  0.00  0.00    +0.030 C 
ATOM     12  C   UNL     1      11.038   8.038  21.266  0.00  0.00    +0.017 C 
ATOM     13  C   UNL     1      12.156   7.014  21.259  0.00  0.00    +0.085 C 
BRANCH   4  14
ATOM     14  C   UNL     1      14.119   6.648  19.889  0.00  0.00    +0.120 C 
BRANCH  14  16
ATOM     16  C   UNL     1      15.485   7.040  20.385  0.00  0.00    -0.033 A 
ATOM     23  C   UNL     1      15.638   8.177  21.180  0.00  0.00    +0.006 A 
ATOM     24  C   UNL     1      16.598   6.268  20.051  0.00  0.00    +0.006 A 
ATOM     29  C   UNL     1      16.903   8.541  21.640  0.00  0.00    +0.015 A 
ATOM     30  C   UNL     1      17.863   6.633  20.511  0.00  0.00    +0.015 A 
ATOM     32  C   UNL     1      18.016   7.770  21.305  0.00  0.00    +0.059 A 
BRANCH  32  33
ATOM      3  O   UNL     1      20.353   8.237  21.090  0.00  0.00    -0.245 OA
ATOM     33  C   UNL     1      19.335   8.148  21.785  0.00  0.00    +0.337 C 
BRANCH  33   2
ATOM      2  O   UNL     1      19.349   8.406  23.122  0.00  0.00    -0.477 OA
ATOM     34  H   UNL     1      18.610   7.959  23.589  0.00  0.00    +0.295 HD
ENDBRANCH  33   2
ENDBRANCH  32  33
ENDBRANCH  14  16
ENDBRANCH   4  14
ENDBRANCH  15  10
TORSDOF 6
ENDMDL
MODEL 10
REMARK VINA RESULT:      -7.0     30.043     32.204
REMARK  Name = 51136849
REMARK  7 active torsions:
REMARK  status: ('A' for Active; 'I' for Inactive)
REMARK    1  A    between atoms: O_2  and  C_33
REMARK    2  A    between atoms: N_4  and  C_14
REMARK    3  A    between atoms: N_6  and  C_25
REMARK    4  A    between atoms: C_10  and  C_15
REMARK    5  A    between atoms: C_14  and  C_16
REMARK    6  A    between atoms: C_21  and  C_26
REMARK    7  A    between atoms: C_32  and  C_33
REMARK                            x       y       z     vdW  Elec       q    Type
REMARK                         _______ _______ _______ _____ _____    ______ ____
ROOT
ATOM      1  O   UNL     1     -14.331  -5.236  13.723  0.00  0.00    -0.336 OA
ATOM      7  N   UNL     1     -12.100  -5.179  13.525  0.00  0.00    -0.190 NA
ATOM      8  N   UNL     1     -13.842  -6.276  14.523  0.00  0.00    -0.056 NA
ATOM     15  C   UNL     1     -13.240  -4.642  13.172  0.00  0.00    +0.245 A 
ATOM     21  C   UNL     1     -12.521  -6.178  14.355  0.00  0.00    +0.204 A 
ENDROOT
BRANCH  21  26
ATOM      5  N   UNL     1      -8.936  -9.669  16.782  0.00  0.00    -0.313 N 
ATOM      6  N   UNL     1      -7.009 -11.514  17.802  0.00  0.00    -0.302 NA
ATOM      9  N   UNL     1     -10.383  -9.154  14.981  0.00  0.00    -0.240 NA
ATOM     17  C   UNL     1      -9.102 -11.109  16.553  0.00  0.00    +0.122 C 
ATOM     18  C   UNL     1      -7.565  -9.224  17.053  0.00  0.00    +0.122 C 
ATOM     19  C   UNL     1      -8.414 -11.912  17.659  0.00  0.00    +0.103 C 
ATOM     20  C   UNL     1      -6.927 -10.088  18.144  0.00  0.00    +0.103 C 
ATOM     22  C   UNL     1      -9.840  -8.796  16.165  0.00  0.00    +0.121 A 
ATOM     25  C   UNL     1      -6.348 -12.324  18.825  0.00  0.00    +0.105 C 
ATOM     26  C   UNL     1     -11.594  -7.062  14.999  0.00  0.00    +0.041 A 
ATOM     27  C   UNL     1     -10.119  -7.607  16.819  0.00  0.00    +0.044 A 
ATOM     28  C   UNL     1     -11.015  -6.728  16.218  0.00  0.00    +0.016 A 
ATOM     31  C   UNL     1     -11.248  -8.275  14.427  0.00  0.00    +0.124 A 
ENDBRANCH  21  26
BRANCH  15  10
ATOM      4  N   UNL     1     -13.195  -3.775  10.839  0.00  0.00    -0.287 NA
ATOM     10  C   UNL     1     -13.504  -3.469  12.250  0.00  0.00    +0.146 C 
ATOM     11  C   UNL     1     -14.982  -3.041  12.243  0.00  0.00    +0.030 C 
ATOM     12  C   UNL     1     -15.401  -3.077  10.780  0.00  0.00    +0.017 C 
ATOM     13  C   UNL     1     -14.090  -2.946  10.031  0.00  0.00    +0.085 C 
BRANCH   4  14
ATOM     14  C   UNL     1     -11.794  -3.564  10.498  0.00  0.00    +0.120 C 
BRANCH  14  16
ATOM     16  C   UNL     1     -11.207  -4.749   9.780  0.00  0.00    -0.033 A 
ATOM     23  C   UNL     1     -10.141  -4.572   8.897  0.00  0.00    +0.006 A 
ATOM     24  C   UNL     1     -11.727  -6.025   9.997  0.00  0.00    +0.006 A 
ATOM     29  C   UNL     1      -9.597  -5.669   8.232  0.00  0.00    +0.015 A 
ATOM     30  C   UNL     1     -11.183  -7.123   9.331  0.00  0.00    +0.015 A 
ATOM     32  C   UNL     1     -10.117  -6.945   8.448  0.00  0.00    +0.059 A 
BRANCH  32  33
ATOM      3  O   UNL     1      -8.371  -8.200   7.399  0.00  0.00    -0.245 OA
ATOM     33  C   UNL     1      -9.549  -8.090   7.755  0.00  0.00    +0.337 C 
BRANCH  33   2
ATOM      2  O   UNL     1     -10.467  -9.069   7.525  0.00  0.00    -0.477 OA
ATOM     34  H   UNL     1     -10.612  -9.628   8.318  0.00  0.00    +0.295 HD
ENDBRANCH  33   2
ENDBRANCH  32  33
ENDBRANCH  14  16
ENDBRANCH   4  14
ENDBRANCH  15  10
TORSDOF 6
ENDMDL
