MODEL 1
REMARK VINA RESULT:      -6.6      0.000      0.000
REMARK  Name = 11882857
REMARK  12 active torsions:
REMARK  status: ('A' for Active; 'I' for Inactive)
REMARK    1  A    between atoms: O_3  and  C_16
REMARK    2  A    between atoms: O_4  and  C_21
REMARK    3  A    between atoms: O_7  and  C_38
REMARK    4  A    between atoms: O_7  and  C_39
REMARK    5  A    between atoms: N_9  and  C_27
REMARK    6  A    between atoms: C_11  and  C_19
REMARK    7  A    between atoms: C_13  and  C_21
REMARK    8  A    between atoms: C_13  and  C_22
REMARK    9  A    between atoms: C_14  and  C_24
REMARK   10  A    between atoms: C_24  and  C_25
REMARK   11  A    between atoms: C_27  and  C_29
REMARK   12  A    between atoms: C_28  and  C_30
REMARK                            x       y       z     vdW  Elec       q    Type
REMARK                         _______ _______ _______ _____ _____    ______ ____
ROOT
ATOM      1  S   UNL     1     -12.831   5.430  22.377  0.00  0.00    -0.057 S 
ATOM      6  O   UNL     1     -17.265   4.418  23.370  0.00  0.00    -0.270 OA
ATOM      8  N   UNL     1     -15.290   5.829  21.679  0.00  0.00    -0.229 NA
ATOM     10  N   UNL     1     -14.918   4.392  23.578  0.00  0.00    -0.261 N 
ATOM     11  C   UNL     1     -14.006   8.391  19.099  0.00  0.00    -0.019 C 
ATOM     12  C   UNL     1     -12.634   7.610  18.889  0.00  0.00    +0.011 C 
ATOM     13  C   UNL     1     -11.558   8.289  17.957  0.00  0.00    +0.021 C 
ATOM     14  C   UNL     1     -15.076   7.359  19.685  0.00  0.00    +0.054 C 
ATOM     15  C   UNL     1     -14.521   8.905  17.731  0.00  0.00    +0.010 C 
ATOM     16  C   UNL     1     -12.250   8.786  16.656  0.00  0.00    +0.123 C 
ATOM     17  C   UNL     1     -12.058   7.098  20.242  0.00  0.00    +0.049 C 
ATOM     18  C   UNL     1     -13.474   9.656  16.919  0.00  0.00    +0.032 C 
ATOM     19  C   UNL     1     -13.870   9.595  20.064  0.00  0.00    +0.012 C 
ATOM     20  C   UNL     1     -14.488   6.552  20.814  0.00  0.00    +0.058 A 
ATOM     22  C   UNL     1     -10.502   7.226  17.542  0.00  0.00    +0.016 C 
ATOM     23  C   UNL     1     -13.132   6.433  21.035  0.00  0.00    +0.015 A 
ATOM     26  C   UNL     1     -14.525   5.205  22.549  0.00  0.00    +0.165 A 
ATOM     28  C   UNL     1     -16.235   4.051  23.924  0.00  0.00    +0.250 C 
ATOM     43  H   UNL     1     -14.142   3.987  24.093  0.00  0.00    +0.157 HD
ENDROOT
BRANCH  28  30
ATOM     30  C   UNL     1     -16.371   3.119  25.075  0.00  0.00    +0.037 A 
ATOM     32  C   UNL     1     -16.176   3.583  26.375  0.00  0.00    +0.016 A 
ATOM     33  C   UNL     1     -16.697   1.780  24.854  0.00  0.00    +0.016 A 
ATOM     36  C   UNL     1     -16.304   2.709  27.455  0.00  0.00    +0.046 A 
ATOM     37  C   UNL     1     -16.825   0.906  25.933  0.00  0.00    +0.046 A 
ATOM     38  C   UNL     1     -16.628   1.370  27.233  0.00  0.00    +0.120 A 
BRANCH  38   7
ATOM      7  O   UNL     1     -16.755   0.518  28.286  0.00  0.00    -0.495 OA
ATOM     39  C   UNL     1     -15.947   0.778  29.434  0.00  0.00    +0.277 C 
ENDBRANCH  38   7
ENDBRANCH  28  30
BRANCH  16   3
ATOM      3  O   UNL     1     -11.331   9.520  15.847  0.00  0.00    -0.391 OA
ATOM     40  H   UNL     1     -11.618  10.450  15.844  0.00  0.00    +0.210 HD
ENDBRANCH  16   3
BRANCH  13  21
ATOM     21  C   UNL     1     -10.760   9.430  18.625  0.00  0.00    +0.165 C 
BRANCH  21   4
ATOM      4  O   UNL     1      -9.446   9.392  18.118  0.00  0.00    -0.394 OA
ATOM     41  H   UNL     1      -8.845   9.614  18.849  0.00  0.00    +0.209 HD
ENDBRANCH  21   4
ENDBRANCH  13  21
BRANCH  14  24
ATOM     24  C   UNL     1     -16.418   7.989  20.084  0.00  0.00    +0.106 C 
BRANCH  24  25
ATOM      5  O   UNL     1     -18.714   7.881  19.329  0.00  0.00    -0.276 OA
ATOM      9  N   UNL     1     -17.112   6.532  18.322  0.00  0.00    -0.311 N 
ATOM     25  C   UNL     1     -17.555   7.487  19.226  0.00  0.00    +0.214 C 
ATOM     42  H   UNL     1     -16.127   6.283  18.307  0.00  0.00    +0.149 HD
BRANCH   9  27
ATOM     27  C   UNL     1     -17.985   5.874  17.377  0.00  0.00    +0.146 C 
BRANCH  27  29
ATOM      2  S   UNL     1     -17.817   4.699  14.867  0.00  0.00    -0.100 S 
ATOM     29  C   UNL     1     -17.343   5.872  16.022  0.00  0.00    +0.007 A 
ATOM     31  C   UNL     1     -16.371   6.716  15.533  0.00  0.00    +0.013 A 
ATOM     34  C   UNL     1     -16.011   6.397  14.191  0.00  0.00    +0.008 A 
ATOM     35  C   UNL     1     -16.721   5.321  13.707  0.00  0.00    +0.045 A 
ENDBRANCH  27  29
ENDBRANCH   9  27
ENDBRANCH  24  25
ENDBRANCH  14  24
TORSDOF 9
ENDMDL
MODEL 2
REMARK VINA RESULT:      -6.5     21.898     24.526
REMARK  Name = 11882857
REMARK  12 active torsions:
REMARK  status: ('A' for Active; 'I' for Inactive)
REMARK    1  A    between atoms: O_3  and  C_16
REMARK    2  A    between atoms: O_4  and  C_21
REMARK    3  A    between atoms: O_7  and  C_38
REMARK    4  A    between atoms: O_7  and  C_39
REMARK    5  A    between atoms: N_9  and  C_27
REMARK    6  A    between atoms: C_11  and  C_19
REMARK    7  A    between atoms: C_13  and  C_21
REMARK    8  A    between atoms: C_13  and  C_22
REMARK    9  A    between atoms: C_14  and  C_24
REMARK   10  A    between atoms: C_24  and  C_25
REMARK   11  A    between atoms: C_27  and  C_29
REMARK   12  A    between atoms: C_28  and  C_30
REMARK                            x       y       z     vdW  Elec       q    Type
REMARK                         _______ _______ _______ _____ _____    ______ ____
ROOT
ATOM      1  S   UNL     1      -7.909  -7.692   6.300  0.00  0.00    -0.057 S 
ATOM      6  O   UNL     1      -5.049 -11.347   6.675  0.00  0.00    -0.270 OA
ATOM      8  N   UNL     1      -7.076  -9.844   5.130  0.00  0.00    -0.229 NA
ATOM     10  N   UNL     1      -6.123  -9.340   7.286  0.00  0.00    -0.261 N 
ATOM     11  C   UNL     1      -9.732  -9.234   2.402  0.00  0.00    -0.019 C 
ATOM     12  C   UNL     1      -9.656  -7.653   2.571  0.00  0.00    +0.011 C 
ATOM     13  C   UNL     1     -10.681  -6.793   1.734  0.00  0.00    +0.021 C 
ATOM     14  C   UNL     1      -8.372  -9.856   2.966  0.00  0.00    +0.054 C 
ATOM     15  C   UNL     1      -9.843  -9.587   0.897  0.00  0.00    +0.010 C 
ATOM     16  C   UNL     1     -10.700  -7.307   0.267  0.00  0.00    +0.123 C 
ATOM     17  C   UNL     1      -9.575  -7.244   4.072  0.00  0.00    +0.049 C 
ATOM     18  C   UNL     1     -10.926  -8.811   0.160  0.00  0.00    +0.032 C 
ATOM     19  C   UNL     1     -10.934  -9.862   3.150  0.00  0.00    +0.012 C 
ATOM     20  C   UNL     1      -8.017  -9.258   4.303  0.00  0.00    +0.058 A 
ATOM     22  C   UNL     1     -10.194  -5.316   1.700  0.00  0.00    +0.016 C 
ATOM     23  C   UNL     1      -8.553  -8.076   4.772  0.00  0.00    +0.015 A 
ATOM     26  C   UNL     1      -6.943  -9.110   6.214  0.00  0.00    +0.165 A 
ATOM     28  C   UNL     1      -5.242 -10.421   7.454  0.00  0.00    +0.250 C 
ATOM     43  H   UNL     1      -6.162  -8.610   7.990  0.00  0.00    +0.157 HD
ENDROOT
BRANCH  28  30
ATOM     30  C   UNL     1      -4.445 -10.403   8.709  0.00  0.00    +0.037 A 
ATOM     32  C   UNL     1      -4.185 -11.594   9.387  0.00  0.00    +0.016 A 
ATOM     33  C   UNL     1      -3.955  -9.196   9.208  0.00  0.00    +0.016 A 
ATOM     36  C   UNL     1      -3.436 -11.578  10.563  0.00  0.00    +0.046 A 
ATOM     37  C   UNL     1      -3.206  -9.180  10.385  0.00  0.00    +0.046 A 
ATOM     38  C   UNL     1      -2.948 -10.370  11.063  0.00  0.00    +0.120 A 
BRANCH  38   7
ATOM      7  O   UNL     1      -2.216 -10.355  12.210  0.00  0.00    -0.495 OA
ATOM     39  C   UNL     1      -2.029 -11.602  12.878  0.00  0.00    +0.277 C 
ENDBRANCH  38   7
ENDBRANCH  28  30
BRANCH  16   3
ATOM      3  O   UNL     1     -11.710  -6.636  -0.486  0.00  0.00    -0.391 OA
ATOM     40  H   UNL     1     -11.268  -6.148  -1.202  0.00  0.00    +0.210 HD
ENDBRANCH  16   3
BRANCH  13  21
ATOM     21  C   UNL     1     -12.109  -6.747   2.321  0.00  0.00    +0.165 C 
BRANCH  21   4
ATOM      4  O   UNL     1     -12.641  -5.469   2.060  0.00  0.00    -0.394 OA
ATOM     41  H   UNL     1     -13.559  -5.466   2.380  0.00  0.00    +0.209 HD
ENDBRANCH  21   4
ENDBRANCH  13  21
BRANCH  14  24
ATOM     24  C   UNL     1      -8.342 -11.390   3.011  0.00  0.00    +0.106 C 
BRANCH  24  25
ATOM      5  O   UNL     1      -7.127 -12.091   1.039  0.00  0.00    -0.276 OA
ATOM      9  N   UNL     1      -6.134 -12.293   3.130  0.00  0.00    -0.311 N 
ATOM     25  C   UNL     1      -7.160 -11.955   2.259  0.00  0.00    +0.214 C 
ATOM     42  H   UNL     1      -6.254 -12.129   4.126  0.00  0.00    +0.149 HD
BRANCH   9  27
ATOM     27  C   UNL     1      -4.880 -12.862   2.691  0.00  0.00    +0.146 C 
BRANCH  27  29
ATOM      2  S   UNL     1      -4.667 -14.499   4.921  0.00  0.00    -0.100 S 
ATOM     29  C   UNL     1      -4.073 -13.274   3.884  0.00  0.00    +0.007 A 
ATOM     31  C   UNL     1      -2.853 -12.789   4.303  0.00  0.00    +0.013 A 
ATOM     34  C   UNL     1      -2.400 -13.433   5.491  0.00  0.00    +0.008 A 
ATOM     35  C   UNL     1      -3.292 -14.385   5.934  0.00  0.00    +0.045 A 
ENDBRANCH  27  29
ENDBRANCH   9  27
ENDBRANCH  24  25
ENDBRANCH  14  24
TORSDOF 9
ENDMDL
MODEL 3
REMARK VINA RESULT:      -6.5     15.937     17.753
REMARK  Name = 11882857
REMARK  12 active torsions:
REMARK  status: ('A' for Active; 'I' for Inactive)
REMARK    1  A    between atoms: O_3  and  C_16
REMARK    2  A    between atoms: O_4  and  C_21
REMARK    3  A    between atoms: O_7  and  C_38
REMARK    4  A    between atoms: O_7  and  C_39
REMARK    5  A    between atoms: N_9  and  C_27
REMARK    6  A    between atoms: C_11  and  C_19
REMARK    7  A    between atoms: C_13  and  C_21
REMARK    8  A    between atoms: C_13  and  C_22
REMARK    9  A    between atoms: C_14  and  C_24
REMARK   10  A    between atoms: C_24  and  C_25
REMARK   11  A    between atoms: C_27  and  C_29
REMARK   12  A    between atoms: C_28  and  C_30
REMARK                            x       y       z     vdW  Elec       q    Type
REMARK                         _______ _______ _______ _____ _____    ______ ____
ROOT
ATOM      1  S   UNL     1     -10.184 -12.615  20.177  0.00  0.00    -0.057 S 
ATOM      6  O   UNL     1     -13.284  -9.231  19.395  0.00  0.00    -0.270 OA
ATOM      8  N   UNL     1     -10.662 -10.470  18.813  0.00  0.00    -0.229 NA
ATOM     10  N   UNL     1     -12.371 -11.179  20.358  0.00  0.00    -0.261 N 
ATOM     11  C   UNL     1      -7.065 -10.697  17.441  0.00  0.00    -0.019 C 
ATOM     12  C   UNL     1      -7.049 -12.287  17.528  0.00  0.00    +0.011 C 
ATOM     13  C   UNL     1      -5.690 -13.010  17.180  0.00  0.00    +0.021 C 
ATOM     14  C   UNL     1      -8.591 -10.222  17.395  0.00  0.00    +0.054 C 
ATOM     15  C   UNL     1      -6.373 -10.246  16.130  0.00  0.00    +0.010 C 
ATOM     16  C   UNL     1      -5.112 -12.406  15.869  0.00  0.00    +0.123 C 
ATOM     17  C   UNL     1      -7.707 -12.792  18.846  0.00  0.00    +0.049 C 
ATOM     18  C   UNL     1      -5.011 -10.886  15.899  0.00  0.00    +0.032 C 
ATOM     19  C   UNL     1      -6.352 -10.022  18.638  0.00  0.00    +0.012 C 
ATOM     20  C   UNL     1      -9.410 -10.927  18.445  0.00  0.00    +0.058 A 
ATOM     22  C   UNL     1      -5.971 -14.515  16.913  0.00  0.00    +0.016 C 
ATOM     23  C   UNL     1      -9.004 -12.088  19.070  0.00  0.00    +0.015 A 
ATOM     26  C   UNL     1     -11.161 -11.276  19.724  0.00  0.00    +0.165 A 
ATOM     28  C   UNL     1     -13.343 -10.185  20.163  0.00  0.00    +0.250 C 
ATOM     43  H   UNL     1     -12.557 -11.945  20.996  0.00  0.00    +0.157 HD
ENDROOT
BRANCH  28  30
ATOM     30  C   UNL     1     -14.585 -10.342  20.966  0.00  0.00    +0.037 A 
ATOM     32  C   UNL     1     -14.762 -11.473  21.762  0.00  0.00    +0.016 A 
ATOM     33  C   UNL     1     -15.572  -9.356  20.925  0.00  0.00    +0.016 A 
ATOM     36  C   UNL     1     -15.926 -11.621  22.516  0.00  0.00    +0.046 A 
ATOM     37  C   UNL     1     -16.736  -9.504  21.679  0.00  0.00    +0.046 A 
ATOM     38  C   UNL     1     -16.914 -10.636  22.474  0.00  0.00    +0.120 A 
BRANCH  38   7
ATOM      7  O   UNL     1     -18.049 -10.778  23.211  0.00  0.00    -0.495 OA
ATOM     39  C   UNL     1     -19.092  -9.830  22.988  0.00  0.00    +0.277 C 
ENDBRANCH  38   7
ENDBRANCH  28  30
BRANCH  16   3
ATOM      3  O   UNL     1      -3.820 -12.947  15.595  0.00  0.00    -0.391 OA
ATOM     40  H   UNL     1      -3.263 -12.792  16.378  0.00  0.00    +0.210 HD
ENDBRANCH  16   3
BRANCH  13  21
ATOM     21  C   UNL     1      -4.639 -12.977  18.311  0.00  0.00    +0.165 C 
BRANCH  21   4
ATOM      4  O   UNL     1      -4.050 -14.254  18.390  0.00  0.00    -0.394 OA
ATOM     41  H   UNL     1      -3.887 -14.556  17.480  0.00  0.00    +0.209 HD
ENDBRANCH  21   4
ENDBRANCH  13  21
BRANCH  14  24
ATOM     24  C   UNL     1      -8.787  -8.701  17.456  0.00  0.00    +0.106 C 
BRANCH  24  25
ATOM      5  O   UNL     1      -9.427  -8.730  15.123  0.00  0.00    -0.276 OA
ATOM      9  N   UNL     1     -10.106  -6.968  16.476  0.00  0.00    -0.311 N 
ATOM     25  C   UNL     1      -9.459  -8.167  16.214  0.00  0.00    +0.214 C 
ATOM     42  H   UNL     1     -10.085  -6.589  17.419  0.00  0.00    +0.149 HD
BRANCH   9  27
ATOM     27  C   UNL     1     -10.832  -6.225  15.471  0.00  0.00    +0.146 C 
BRANCH  27  29
ATOM      2  S   UNL     1     -13.375  -5.893  14.409  0.00  0.00    -0.100 S 
ATOM     29  C   UNL     1     -12.274  -6.631  15.494  0.00  0.00    +0.007 A 
ATOM     31  C   UNL     1     -12.891  -7.560  16.303  0.00  0.00    +0.013 A 
ATOM     34  C   UNL     1     -14.285  -7.669  16.028  0.00  0.00    +0.008 A 
ATOM     35  C   UNL     1     -14.680  -6.818  15.020  0.00  0.00    +0.045 A 
ENDBRANCH  27  29
ENDBRANCH   9  27
ENDBRANCH  24  25
ENDBRANCH  14  24
TORSDOF 9
ENDMDL
MODEL 4
REMARK VINA RESULT:      -6.4     30.126     34.606
REMARK  Name = 11882857
REMARK  12 active torsions:
REMARK  status: ('A' for Active; 'I' for Inactive)
REMARK    1  A    between atoms: O_3  and  C_16
REMARK    2  A    between atoms: O_4  and  C_21
REMARK    3  A    between atoms: O_7  and  C_38
REMARK    4  A    between atoms: O_7  and  C_39
REMARK    5  A    between atoms: N_9  and  C_27
REMARK    6  A    between atoms: C_11  and  C_19
REMARK    7  A    between atoms: C_13  and  C_21
REMARK    8  A    between atoms: C_13  and  C_22
REMARK    9  A    between atoms: C_14  and  C_24
REMARK   10  A    between atoms: C_24  and  C_25
REMARK   11  A    between atoms: C_27  and  C_29
REMARK   12  A    between atoms: C_28  and  C_30
REMARK                            x       y       z     vdW  Elec       q    Type
REMARK                         _______ _______ _______ _____ _____    ______ ____
ROOT
ATOM      1  S   UNL     1      17.662   5.472  19.669  0.00  0.00    -0.057 S 
ATOM      6  O   UNL     1      21.586   7.271  21.414  0.00  0.00    -0.270 OA
ATOM      8  N   UNL     1      18.687   7.517  20.878  0.00  0.00    -0.229 NA
ATOM     10  N   UNL     1      20.185   5.705  20.346  0.00  0.00    -0.261 N 
ATOM     11  C   UNL     1      15.280   9.283  20.503  0.00  0.00    -0.019 C 
ATOM     12  C   UNL     1      14.472   7.913  20.579  0.00  0.00    +0.011 C 
ATOM     13  C   UNL     1      12.913   7.986  20.350  0.00  0.00    +0.021 C 
ATOM     14  C   UNL     1      16.708   9.052  21.181  0.00  0.00    +0.054 C 
ATOM     15  C   UNL     1      14.526  10.371  21.310  0.00  0.00    +0.010 C 
ATOM     16  C   UNL     1      12.328   9.154  21.194  0.00  0.00    +0.123 C 
ATOM     17  C   UNL     1      15.175   6.793  19.756  0.00  0.00    +0.049 C 
ATOM     18  C   UNL     1      13.047  10.479  20.968  0.00  0.00    +0.032 C 
ATOM     19  C   UNL     1      15.476   9.787  19.052  0.00  0.00    +0.012 C 
ATOM     20  C   UNL     1      17.342   7.776  20.688  0.00  0.00    +0.058 A 
ATOM     22  C   UNL     1      12.263   6.671  20.866  0.00  0.00    +0.016 C 
ATOM     23  C   UNL     1      16.633   6.768  20.068  0.00  0.00    +0.015 A 
ATOM     26  C   UNL     1      18.969   6.335  20.375  0.00  0.00    +0.165 A 
ATOM     28  C   UNL     1      21.398   6.196  20.856  0.00  0.00    +0.250 C 
ATOM     43  H   UNL     1      20.150   4.775  19.941  0.00  0.00    +0.157 HD
ENDROOT
BRANCH  28  30
ATOM     30  C   UNL     1      22.563   5.283  20.717  0.00  0.00    +0.037 A 
ATOM     32  C   UNL     1      23.804   5.789  20.328  0.00  0.00    +0.016 A 
ATOM     33  C   UNL     1      22.417   3.919  20.976  0.00  0.00    +0.016 A 
ATOM     36  C   UNL     1      24.897   4.932  20.198  0.00  0.00    +0.046 A 
ATOM     37  C   UNL     1      23.510   3.063  20.847  0.00  0.00    +0.046 A 
ATOM     38  C   UNL     1      24.750   3.569  20.457  0.00  0.00    +0.120 A 
BRANCH  38   7
ATOM      7  O   UNL     1      25.816   2.734  20.332  0.00  0.00    -0.495 OA
ATOM     39  C   UNL     1      27.113   3.306  20.502  0.00  0.00    +0.277 C 
ENDBRANCH  38   7
ENDBRANCH  28  30
BRANCH  16   3
ATOM      3  O   UNL     1      10.940   9.331  20.911  0.00  0.00    -0.391 OA
ATOM     40  H   UNL     1      10.525   9.717  21.701  0.00  0.00    +0.210 HD
ENDBRANCH  16   3
BRANCH  13  21
ATOM     21  C   UNL     1      12.488   8.109  18.870  0.00  0.00    +0.165 C 
BRANCH  21   4
ATOM      4  O   UNL     1      12.036   6.844  18.445  0.00  0.00    -0.394 OA
ATOM     41  H   UNL     1      12.229   6.770  17.496  0.00  0.00    +0.209 HD
ENDBRANCH  21   4
ENDBRANCH  13  21
BRANCH  14  24
ATOM     24  C   UNL     1      17.672  10.241  21.061  0.00  0.00    +0.106 C 
BRANCH  24  25
ATOM      5  O   UNL     1      17.584  11.529  23.108  0.00  0.00    -0.276 OA
ATOM      9  N   UNL     1      19.361  10.078  22.742  0.00  0.00    -0.311 N 
ATOM     25  C   UNL     1      18.169  10.705  22.410  0.00  0.00    +0.214 C 
ATOM     42  H   UNL     1      19.760   9.398  22.101  0.00  0.00    +0.149 HD
BRANCH   9  27
ATOM     27  C   UNL     1      20.071  10.331  23.976  0.00  0.00    +0.146 C 
BRANCH  27  29
ATOM      2  S   UNL     1      22.427   9.199  24.907  0.00  0.00    -0.100 S 
ATOM     29  C   UNL     1      20.795   9.090  24.400  0.00  0.00    +0.007 A 
ATOM     31  C   UNL     1      20.325   7.796  24.445  0.00  0.00    +0.013 A 
ATOM     34  C   UNL     1      21.318   6.881  24.904  0.00  0.00    +0.008 A 
ATOM     35  C   UNL     1      22.508   7.512  25.191  0.00  0.00    +0.045 A 
ENDBRANCH  27  29
ENDBRANCH   9  27
ENDBRANCH  24  25
ENDBRANCH  14  24
TORSDOF 9
ENDMDL
MODEL 5
REMARK VINA RESULT:      -6.4     18.939     21.068
REMARK  Name = 11882857
REMARK  12 active torsions:
REMARK  status: ('A' for Active; 'I' for Inactive)
REMARK    1  A    between atoms: O_3  and  C_16
REMARK    2  A    between atoms: O_4  and  C_21
REMARK    3  A    between atoms: O_7  and  C_38
REMARK    4  A    between atoms: O_7  and  C_39
REMARK    5  A    between atoms: N_9  and  C_27
REMARK    6  A    between atoms: C_11  and  C_19
REMARK    7  A    between atoms: C_13  and  C_21
REMARK    8  A    between atoms: C_13  and  C_22
REMARK    9  A    between atoms: C_14  and  C_24
REMARK   10  A    between atoms: C_24  and  C_25
REMARK   11  A    between atoms: C_27  and  C_29
REMARK   12  A    between atoms: C_28  and  C_30
REMARK                            x       y       z     vdW  Elec       q    Type
REMARK                         _______ _______ _______ _____ _____    ______ ____
ROOT
ATOM      1  S   UNL     1      -9.274  -9.406  11.744  0.00  0.00    -0.057 S 
ATOM      6  O   UNL     1      -5.153 -10.077  13.803  0.00  0.00    -0.270 OA
ATOM      8  N   UNL     1      -6.732  -9.662  11.336  0.00  0.00    -0.229 NA
ATOM     10  N   UNL     1      -7.485  -9.792  13.623  0.00  0.00    -0.261 N 
ATOM     11  C   UNL     1      -7.467  -9.626   7.551  0.00  0.00    -0.019 C 
ATOM     12  C   UNL     1      -8.735  -8.678   7.727  0.00  0.00    +0.011 C 
ATOM     13  C   UNL     1      -9.591  -8.380   6.435  0.00  0.00    +0.021 C 
ATOM     14  C   UNL     1      -6.530  -9.437   8.832  0.00  0.00    +0.054 C 
ATOM     15  C   UNL     1      -6.670  -9.192   6.295  0.00  0.00    +0.010 C 
ATOM     16  C   UNL     1      -8.636  -8.008   5.265  0.00  0.00    +0.123 C 
ATOM     17  C   UNL     1      -9.589  -9.093   8.962  0.00  0.00    +0.049 C 
ATOM     18  C   UNL     1      -7.526  -9.030   5.046  0.00  0.00    +0.032 C 
ATOM     19  C   UNL     1      -7.848 -11.120   7.408  0.00  0.00    +0.012 C 
ATOM     20  C   UNL     1      -7.336  -9.486  10.105  0.00  0.00    +0.058 A 
ATOM     22  C   UNL     1     -10.498  -7.146   6.702  0.00  0.00    +0.016 C 
ATOM     23  C   UNL     1      -8.704  -9.311  10.143  0.00  0.00    +0.015 A 
ATOM     26  C   UNL     1      -7.657  -9.644  12.272  0.00  0.00    +0.165 A 
ATOM     28  C   UNL     1      -6.271  -9.995  14.298  0.00  0.00    +0.250 C 
ATOM     43  H   UNL     1      -8.346  -9.699  14.152  0.00  0.00    +0.157 HD
ENDROOT
BRANCH  28  30
ATOM     30  C   UNL     1      -6.374 -10.091  15.779  0.00  0.00    +0.037 A 
ATOM     32  C   UNL     1      -7.576  -9.784  16.416  0.00  0.00    +0.016 A 
ATOM     33  C   UNL     1      -5.268 -10.490  16.531  0.00  0.00    +0.016 A 
ATOM     36  C   UNL     1      -7.673  -9.875  17.804  0.00  0.00    +0.046 A 
ATOM     37  C   UNL     1      -5.365 -10.580  17.919  0.00  0.00    +0.046 A 
ATOM     38  C   UNL     1      -6.567 -10.272  18.556  0.00  0.00    +0.120 A 
BRANCH  38   7
ATOM      7  O   UNL     1      -6.662 -10.363  19.910  0.00  0.00    -0.495 OA
ATOM     39  C   UNL     1      -5.955 -11.430  20.541  0.00  0.00    +0.277 C 
ENDBRANCH  38   7
ENDBRANCH  28  30
BRANCH  16   3
ATOM      3  O   UNL     1      -9.368  -7.858   4.049  0.00  0.00    -0.391 OA
ATOM     40  H   UNL     1      -8.771  -7.457   3.393  0.00  0.00    +0.210 HD
ENDBRANCH  16   3
BRANCH  13  21
ATOM     21  C   UNL     1     -10.549  -9.519   6.024  0.00  0.00    +0.165 C 
BRANCH  21   4
ATOM      4  O   UNL     1     -11.675  -8.935   5.410  0.00  0.00    -0.394 OA
ATOM     41  H   UNL     1     -12.445  -9.483   5.636  0.00  0.00    +0.209 HD
ENDBRANCH  21   4
ENDBRANCH  13  21
BRANCH  14  24
ATOM     24  C   UNL     1      -5.330 -10.392   8.890  0.00  0.00    +0.106 C 
BRANCH  24  25
ATOM      5  O   UNL     1      -3.641  -8.661   8.989  0.00  0.00    -0.276 OA
ATOM      9  N   UNL     1      -3.550 -10.439  10.483  0.00  0.00    -0.311 N 
ATOM     25  C   UNL     1      -4.093  -9.714   9.432  0.00  0.00    +0.214 C 
ATOM     42  H   UNL     1      -4.008 -11.294  10.785  0.00  0.00    +0.149 HD
BRANCH   9  27
ATOM     27  C   UNL     1      -2.359 -10.030  11.192  0.00  0.00    +0.146 C 
BRANCH  27  29
ATOM      2  S   UNL     1      -2.592 -12.499  12.439  0.00  0.00    -0.100 S 
ATOM     29  C   UNL     1      -2.233 -10.824  12.457  0.00  0.00    +0.007 A 
ATOM     31  C   UNL     1      -1.852 -10.390  13.708  0.00  0.00    +0.013 A 
ATOM     34  C   UNL     1      -1.854 -11.447  14.665  0.00  0.00    +0.008 A 
ATOM     35  C   UNL     1      -2.237 -12.647  14.108  0.00  0.00    +0.045 A 
ENDBRANCH  27  29
ENDBRANCH   9  27
ENDBRANCH  24  25
ENDBRANCH  14  24
TORSDOF 9
ENDMDL
MODEL 6
REMARK VINA RESULT:      -6.3     17.378     20.345
REMARK  Name = 11882857
REMARK  12 active torsions:
REMARK  status: ('A' for Active; 'I' for Inactive)
REMARK    1  A    between atoms: O_3  and  C_16
REMARK    2  A    between atoms: O_4  and  C_21
REMARK    3  A    between atoms: O_7  and  C_38
REMARK    4  A    between atoms: O_7  and  C_39
REMARK    5  A    between atoms: N_9  and  C_27
REMARK    6  A    between atoms: C_11  and  C_19
REMARK    7  A    between atoms: C_13  and  C_21
REMARK    8  A    between atoms: C_13  and  C_22
REMARK    9  A    between atoms: C_14  and  C_24
REMARK   10  A    between atoms: C_24  and  C_25
REMARK   11  A    between atoms: C_27  and  C_29
REMARK   12  A    between atoms: C_28  and  C_30
REMARK                            x       y       z     vdW  Elec       q    Type
REMARK                         _______ _______ _______ _____ _____    ______ ____
ROOT
ATOM      1  S   UNL     1      -5.759 -10.868  12.462  0.00  0.00    -0.057 S 
ATOM      6  O   UNL     1      -9.039  -8.373  10.296  0.00  0.00    -0.270 OA
ATOM      8  N   UNL     1      -7.963  -9.553  12.786  0.00  0.00    -0.229 NA
ATOM     10  N   UNL     1      -7.077  -9.656  10.547  0.00  0.00    -0.261 N 
ATOM     11  C   UNL     1      -7.992 -10.758  16.449  0.00  0.00    -0.019 C 
ATOM     12  C   UNL     1      -6.402 -10.803  16.529  0.00  0.00    +0.011 C 
ATOM     13  C   UNL     1      -5.768 -11.377  17.855  0.00  0.00    +0.021 C 
ATOM     14  C   UNL     1      -8.398  -9.769  15.262  0.00  0.00    +0.054 C 
ATOM     15  C   UNL     1      -8.559 -10.189  17.775  0.00  0.00    +0.010 C 
ATOM     16  C   UNL     1      -6.481 -10.739  19.080  0.00  0.00    +0.123 C 
ATOM     17  C   UNL     1      -5.784 -11.398  15.230  0.00  0.00    +0.049 C 
ATOM     18  C   UNL     1      -7.999 -10.858  19.023  0.00  0.00    +0.032 C 
ATOM     19  C   UNL     1      -8.621 -12.151  16.196  0.00  0.00    +0.012 C 
ATOM     20  C   UNL     1      -7.589 -10.050  14.021  0.00  0.00    +0.058 A 
ATOM     22  C   UNL     1      -4.271 -10.962  17.922  0.00  0.00    +0.016 C 
ATOM     23  C   UNL     1      -6.410 -10.767  14.032  0.00  0.00    +0.015 A 
ATOM     26  C   UNL     1      -7.077  -9.928  11.889  0.00  0.00    +0.165 A 
ATOM     28  C   UNL     1      -8.036  -8.911   9.840  0.00  0.00    +0.250 C 
ATOM     43  H   UNL     1      -6.263 -10.017  10.060  0.00  0.00    +0.157 HD
ENDROOT
BRANCH  28  30
ATOM     30  C   UNL     1      -7.769  -8.746   8.387  0.00  0.00    +0.037 A 
ATOM     32  C   UNL     1      -8.401  -7.728   7.673  0.00  0.00    +0.016 A 
ATOM     33  C   UNL     1      -6.885  -9.608   7.737  0.00  0.00    +0.016 A 
ATOM     36  C   UNL     1      -8.151  -7.572   6.310  0.00  0.00    +0.046 A 
ATOM     37  C   UNL     1      -6.634  -9.452   6.374  0.00  0.00    +0.046 A 
ATOM     38  C   UNL     1      -7.267  -8.435   5.660  0.00  0.00    +0.120 A 
BRANCH  38   7
ATOM      7  O   UNL     1      -7.021  -8.283   4.331  0.00  0.00    -0.495 OA
ATOM     39  C   UNL     1      -8.153  -8.209   3.464  0.00  0.00    +0.277 C 
ENDBRANCH  38   7
ENDBRANCH  28  30
BRANCH  16   3
ATOM      3  O   UNL     1      -6.019 -11.332  20.294  0.00  0.00    -0.391 OA
ATOM     40  H   UNL     1      -6.790 -11.721  20.743  0.00  0.00    +0.210 HD
ENDBRANCH  16   3
BRANCH  13  21
ATOM     21  C   UNL     1      -5.776 -12.919  17.954  0.00  0.00    +0.165 C 
BRANCH  21   4
ATOM      4  O   UNL     1      -4.535 -13.324  18.483  0.00  0.00    -0.394 OA
ATOM     41  H   UNL     1      -3.863 -12.702  18.157  0.00  0.00    +0.209 HD
ENDBRANCH  21   4
ENDBRANCH  13  21
BRANCH  14  24
ATOM     24  C   UNL     1      -9.901  -9.724  14.954  0.00  0.00    +0.106 C 
BRANCH  24  25
ATOM      5  O   UNL     1      -9.885  -7.447  15.773  0.00  0.00    -0.276 OA
ATOM      9  N   UNL     1     -11.798  -8.286  14.754  0.00  0.00    -0.311 N 
ATOM     25  C   UNL     1     -10.492  -8.359  15.219  0.00  0.00    +0.214 C 
ATOM     42  H   UNL     1     -12.208  -9.094  14.296  0.00  0.00    +0.149 HD
BRANCH   9  27
ATOM     27  C   UNL     1     -12.614  -7.099  14.876  0.00  0.00    +0.146 C 
BRANCH  27  29
ATOM      2  S   UNL     1     -12.619  -7.055  12.101  0.00  0.00    -0.100 S 
ATOM     29  C   UNL     1     -12.498  -6.283  13.624  0.00  0.00    +0.007 A 
ATOM     31  C   UNL     1     -12.295  -4.926  13.501  0.00  0.00    +0.013 A 
ATOM     34  C   UNL     1     -12.239  -4.514  12.137  0.00  0.00    +0.008 A 
ATOM     35  C   UNL     1     -12.401  -5.573  11.271  0.00  0.00    +0.045 A 
ENDBRANCH  27  29
ENDBRANCH   9  27
ENDBRANCH  24  25
ENDBRANCH  14  24
TORSDOF 9
ENDMDL
MODEL 7
REMARK VINA RESULT:      -6.2     40.015     43.027
REMARK  Name = 11882857
REMARK  12 active torsions:
REMARK  status: ('A' for Active; 'I' for Inactive)
REMARK    1  A    between atoms: O_3  and  C_16
REMARK    2  A    between atoms: O_4  and  C_21
REMARK    3  A    between atoms: O_7  and  C_38
REMARK    4  A    between atoms: O_7  and  C_39
REMARK    5  A    between atoms: N_9  and  C_27
REMARK    6  A    between atoms: C_11  and  C_19
REMARK    7  A    between atoms: C_13  and  C_21
REMARK    8  A    between atoms: C_13  and  C_22
REMARK    9  A    between atoms: C_14  and  C_24
REMARK   10  A    between atoms: C_24  and  C_25
REMARK   11  A    between atoms: C_27  and  C_29
REMARK   12  A    between atoms: C_28  and  C_30
REMARK                            x       y       z     vdW  Elec       q    Type
REMARK                         _______ _______ _______ _____ _____    ______ ____
ROOT
ATOM      1  S   UNL     1      20.833  -5.407   1.005  0.00  0.00    -0.057 S 
ATOM      6  O   UNL     1      18.062  -6.720  -2.498  0.00  0.00    -0.270 OA
ATOM      8  N   UNL     1      19.628  -7.418  -0.087  0.00  0.00    -0.229 NA
ATOM     10  N   UNL     1      19.336  -5.272  -1.144  0.00  0.00    -0.261 N 
ATOM     11  C   UNL     1      21.434  -9.705   2.439  0.00  0.00    -0.019 C 
ATOM     12  C   UNL     1      21.466  -8.574   3.559  0.00  0.00    +0.011 C 
ATOM     13  C   UNL     1      22.245  -8.907   4.890  0.00  0.00    +0.021 C 
ATOM     14  C   UNL     1      20.264  -9.346   1.410  0.00  0.00    +0.054 C 
ATOM     15  C   UNL     1      21.105 -11.071   3.094  0.00  0.00    +0.010 C 
ATOM     16  C   UNL     1      21.834 -10.323   5.383  0.00  0.00    +0.123 C 
ATOM     17  C   UNL     1      21.823  -7.184   2.955  0.00  0.00    +0.049 C 
ATOM     18  C   UNL     1      21.966 -11.396   4.307  0.00  0.00    +0.032 C 
ATOM     19  C   UNL     1      22.773  -9.830   1.671  0.00  0.00    +0.012 C 
ATOM     20  C   UNL     1      20.320  -7.893   1.012  0.00  0.00    +0.058 A 
ATOM     22  C   UNL     1      21.823  -7.893   5.991  0.00  0.00    +0.016 C 
ATOM     23  C   UNL     1      21.009  -6.937   1.729  0.00  0.00    +0.015 A 
ATOM     26  C   UNL     1      19.831  -6.123  -0.192  0.00  0.00    +0.165 A 
ATOM     28  C   UNL     1      18.499  -5.609  -2.219  0.00  0.00    +0.250 C 
ATOM     43  H   UNL     1      19.597  -4.302  -0.995  0.00  0.00    +0.157 HD
ENDROOT
BRANCH  28  30
ATOM     30  C   UNL     1      18.086  -4.473  -3.086  0.00  0.00    +0.037 A 
ATOM     32  C   UNL     1      18.493  -4.429  -4.419  0.00  0.00    +0.016 A 
ATOM     33  C   UNL     1      17.290  -3.452  -2.566  0.00  0.00    +0.016 A 
ATOM     36  C   UNL     1      18.105  -3.365  -5.232  0.00  0.00    +0.046 A 
ATOM     37  C   UNL     1      16.903  -2.387  -3.379  0.00  0.00    +0.046 A 
ATOM     38  C   UNL     1      17.311  -2.343  -4.712  0.00  0.00    +0.120 A 
BRANCH  38   7
ATOM      7  O   UNL     1      16.931  -1.305  -5.505  0.00  0.00    -0.495 OA
ATOM     39  C   UNL     1      16.904  -1.539  -6.913  0.00  0.00    +0.277 C 
ENDBRANCH  38   7
ENDBRANCH  28  30
BRANCH  16   3
ATOM      3  O   UNL     1      22.616 -10.708   6.513  0.00  0.00    -0.391 OA
ATOM     40  H   UNL     1      23.291 -11.337   6.204  0.00  0.00    +0.210 HD
ENDBRANCH  16   3
BRANCH  13  21
ATOM     21  C   UNL     1      23.781  -8.786   4.781  0.00  0.00    +0.165 C 
BRANCH  21   4
ATOM      4  O   UNL     1      24.267  -8.329   6.022  0.00  0.00    -0.394 OA
ATOM     41  H   UNL     1      23.502  -8.217   6.610  0.00  0.00    +0.209 HD
ENDBRANCH  21   4
ENDBRANCH  13  21
BRANCH  14  24
ATOM     24  C   UNL     1      20.192 -10.263   0.181  0.00  0.00    +0.106 C 
BRANCH  24  25
ATOM      5  O   UNL     1      18.211 -10.253  -1.208  0.00  0.00    -0.276 OA
ATOM      9  N   UNL     1      18.190 -11.404   0.811  0.00  0.00    -0.311 N 
ATOM     25  C   UNL     1      18.769 -10.619  -0.177  0.00  0.00    +0.214 C 
ATOM     42  H   UNL     1      18.741 -11.665   1.623  0.00  0.00    +0.149 HD
BRANCH   9  27
ATOM     27  C   UNL     1      16.831 -11.891   0.738  0.00  0.00    +0.146 C 
BRANCH  27  29
ATOM      2  S   UNL     1      15.347 -13.461   2.479  0.00  0.00    -0.100 S 
ATOM     29  C   UNL     1      16.293 -12.080   2.124  0.00  0.00    +0.007 A 
ATOM     31  C   UNL     1      16.449 -11.263   3.223  0.00  0.00    +0.013 A 
ATOM     34  C   UNL     1      15.784 -11.779   4.372  0.00  0.00    +0.008 A 
ATOM     35  C   UNL     1      15.144 -12.970   4.107  0.00  0.00    +0.045 A 
ENDBRANCH  27  29
ENDBRANCH   9  27
ENDBRANCH  24  25
ENDBRANCH  14  24
TORSDOF 9
ENDMDL
MODEL 8
REMARK VINA RESULT:      -6.2     28.853     33.400
REMARK  Name = 11882857
REMARK  12 active torsions:
REMARK  status: ('A' for Active; 'I' for Inactive)
REMARK    1  A    between atoms: O_3  and  C_16
REMARK    2  A    between atoms: O_4  and  C_21
REMARK    3  A    between atoms: O_7  and  C_38
REMARK    4  A    between atoms: O_7  and  C_39
REMARK    5  A    between atoms: N_9  and  C_27
REMARK    6  A    between atoms: C_11  and  C_19
REMARK    7  A    between atoms: C_13  and  C_21
REMARK    8  A    between atoms: C_13  and  C_22
REMARK    9  A    between atoms: C_14  and  C_24
REMARK   10  A    between atoms: C_24  and  C_25
REMARK   11  A    between atoms: C_27  and  C_29
REMARK   12  A    between atoms: C_28  and  C_30
REMARK                            x       y       z     vdW  Elec       q    Type
REMARK                         _______ _______ _______ _____ _____    ______ ____
ROOT
ATOM      1  S   UNL     1      17.559   5.856  20.072  0.00  0.00    -0.057 S 
ATOM      6  O   UNL     1      21.307   8.448  21.025  0.00  0.00    -0.270 OA
ATOM      8  N   UNL     1      18.368   8.209  20.778  0.00  0.00    -0.229 NA
ATOM     10  N   UNL     1      20.068   6.539  20.414  0.00  0.00    -0.261 N 
ATOM     11  C   UNL     1      14.718   9.414  20.475  0.00  0.00    -0.019 C 
ATOM     12  C   UNL     1      14.132   7.991  20.882  0.00  0.00    +0.011 C 
ATOM     13  C   UNL     1      12.565   7.816  20.818  0.00  0.00    +0.021 C 
ATOM     14  C   UNL     1      16.217   9.504  21.021  0.00  0.00    +0.054 C 
ATOM     15  C   UNL     1      13.883  10.529  21.155  0.00  0.00    +0.010 C 
ATOM     16  C   UNL     1      11.887   9.038  21.500  0.00  0.00    +0.123 C 
ATOM     17  C   UNL     1      14.920   6.834  20.198  0.00  0.00    +0.049 C 
ATOM     18  C   UNL     1      12.380  10.377  20.964  0.00  0.00    +0.032 C 
ATOM     19  C   UNL     1      14.713   9.652  18.944  0.00  0.00    +0.012 C 
ATOM     20  C   UNL     1      16.989   8.251  20.695  0.00  0.00    +0.058 A 
ATOM     22  C   UNL     1      12.162   6.551  21.627  0.00  0.00    +0.016 C 
ATOM     23  C   UNL     1      16.387   7.059  20.347  0.00  0.00    +0.015 A 
ATOM     26  C   UNL     1      18.779   6.999  20.465  0.00  0.00    +0.165 A 
ATOM     28  C   UNL     1      21.233   7.271  20.691  0.00  0.00    +0.250 C 
ATOM     43  H   UNL     1      20.136   5.552  20.187  0.00  0.00    +0.157 HD
ENDROOT
BRANCH  28  30
ATOM     30  C   UNL     1      22.505   6.507  20.588  0.00  0.00    +0.037 A 
ATOM     32  C   UNL     1      23.724   7.183  20.555  0.00  0.00    +0.016 A 
ATOM     33  C   UNL     1      22.478   5.113  20.526  0.00  0.00    +0.016 A 
ATOM     36  C   UNL     1      24.917   6.466  20.459  0.00  0.00    +0.046 A 
ATOM     37  C   UNL     1      23.671   4.397  20.430  0.00  0.00    +0.046 A 
ATOM     38  C   UNL     1      24.890   5.073  20.396  0.00  0.00    +0.120 A 
BRANCH  38   7
ATOM      7  O   UNL     1      26.054   4.373  20.305  0.00  0.00    -0.495 OA
ATOM     39  C   UNL     1      25.965   2.951  20.387  0.00  0.00    +0.277 C 
ENDBRANCH  38   7
ENDBRANCH  28  30
BRANCH  16   3
ATOM      3  O   UNL     1      10.469   8.976  21.346  0.00  0.00    -0.391 OA
ATOM     40  H   UNL     1      10.069   9.408  22.120  0.00  0.00    +0.210 HD
ENDBRANCH  16   3
BRANCH  13  21
ATOM     21  C   UNL     1      12.003   7.597  19.396  0.00  0.00    +0.165 C 
BRANCH  21   4
ATOM      4  O   UNL     1      12.064   6.217  19.116  0.00  0.00    -0.394 OA
ATOM     41  H   UNL     1      11.350   5.787  19.615  0.00  0.00    +0.209 HD
ENDBRANCH  21   4
ENDBRANCH  13  21
BRANCH  14  24
ATOM     24  C   UNL     1      16.980  10.762  20.586  0.00  0.00    +0.106 C 
BRANCH  24  25
ATOM      5  O   UNL     1      16.660  13.053  21.300  0.00  0.00    -0.276 OA
ATOM      9  N   UNL     1      16.998  11.392  22.890  0.00  0.00    -0.311 N 
ATOM     25  C   UNL     1      16.857  11.877  21.598  0.00  0.00    +0.214 C 
ATOM     42  H   UNL     1      17.146  10.398  23.034  0.00  0.00    +0.149 HD
BRANCH   9  27
ATOM     27  C   UNL     1      16.929  12.236  24.062  0.00  0.00    +0.146 C 
BRANCH  27  29
ATOM      2  S   UNL     1      14.860  13.987  24.659  0.00  0.00    -0.100 S 
ATOM     29  C   UNL     1      15.497  12.409  24.470  0.00  0.00    +0.007 A 
ATOM     31  C   UNL     1      14.557  11.437  24.734  0.00  0.00    +0.013 A 
ATOM     34  C   UNL     1      13.297  11.995  25.096  0.00  0.00    +0.008 A 
ATOM     35  C   UNL     1      13.322  13.372  25.095  0.00  0.00    +0.045 A 
ENDBRANCH  27  29
ENDBRANCH   9  27
ENDBRANCH  24  25
ENDBRANCH  14  24
TORSDOF 9
ENDMDL
MODEL 9
REMARK VINA RESULT:      -6.2     26.792     31.888
REMARK  Name = 11882857
REMARK  12 active torsions:
REMARK  status: ('A' for Active; 'I' for Inactive)
REMARK    1  A    between atoms: O_3  and  C_16
REMARK    2  A    between atoms: O_4  and  C_21
REMARK    3  A    between atoms: O_7  and  C_38
REMARK    4  A    between atoms: O_7  and  C_39
REMARK    5  A    between atoms: N_9  and  C_27
REMARK    6  A    between atoms: C_11  and  C_19
REMARK    7  A    between atoms: C_13  and  C_21
REMARK    8  A    between atoms: C_13  and  C_22
REMARK    9  A    between atoms: C_14  and  C_24
REMARK   10  A    between atoms: C_24  and  C_25
REMARK   11  A    between atoms: C_27  and  C_29
REMARK   12  A    between atoms: C_28  and  C_30
REMARK                            x       y       z     vdW  Elec       q    Type
REMARK                         _______ _______ _______ _____ _____    ______ ____
ROOT
ATOM      1  S   UNL     1      10.149   8.573   0.258  0.00  0.00    -0.057 S 
ATOM      6  O   UNL     1       7.584   8.033   4.106  0.00  0.00    -0.270 OA
ATOM      8  N   UNL     1       9.876   7.197   2.432  0.00  0.00    -0.229 NA
ATOM     10  N   UNL     1       8.266   8.949   2.044  0.00  0.00    -0.261 N 
ATOM     11  C   UNL     1      12.725   4.914   1.192  0.00  0.00    -0.019 C 
ATOM     12  C   UNL     1      13.439   6.100   0.405  0.00  0.00    +0.011 C 
ATOM     13  C   UNL     1      14.699   5.725  -0.467  0.00  0.00    +0.021 C 
ATOM     14  C   UNL     1      11.792   5.561   2.317  0.00  0.00    +0.054 C 
ATOM     15  C   UNL     1      13.798   4.040   1.890  0.00  0.00    +0.010 C 
ATOM     16  C   UNL     1      15.643   4.813   0.366  0.00  0.00    +0.123 C 
ATOM     17  C   UNL     1      12.403   6.992  -0.341  0.00  0.00    +0.049 C 
ATOM     18  C   UNL     1      14.934   3.608   0.974  0.00  0.00    +0.032 C 
ATOM     19  C   UNL     1      11.869   4.010   0.271  0.00  0.00    +0.012 C 
ATOM     20  C   UNL     1      10.971   6.693   1.755  0.00  0.00    +0.058 A 
ATOM     22  C   UNL     1      15.487   7.023  -0.803  0.00  0.00    +0.016 C 
ATOM     23  C   UNL     1      11.273   7.333   0.571  0.00  0.00    +0.015 A 
ATOM     26  C   UNL     1       9.360   8.186   1.734  0.00  0.00    +0.165 A 
ATOM     28  C   UNL     1       7.457   8.833   3.186  0.00  0.00    +0.250 C 
ATOM     43  H   UNL     1       8.082   9.685   1.370  0.00  0.00    +0.157 HD
ENDROOT
BRANCH  28  30
ATOM     30  C   UNL     1       6.347   9.818   3.283  0.00  0.00    +0.037 A 
ATOM     32  C   UNL     1       6.143  10.525   4.468  0.00  0.00    +0.016 A 
ATOM     33  C   UNL     1       5.511  10.037   2.187  0.00  0.00    +0.016 A 
ATOM     36  C   UNL     1       5.103  11.450   4.558  0.00  0.00    +0.046 A 
ATOM     37  C   UNL     1       4.470  10.962   2.278  0.00  0.00    +0.046 A 
ATOM     38  C   UNL     1       4.266  11.667   3.463  0.00  0.00    +0.120 A 
BRANCH  38   7
ATOM      7  O   UNL     1       3.252  12.570   3.551  0.00  0.00    -0.495 OA
ATOM     39  C   UNL     1       2.721  12.828   4.850  0.00  0.00    +0.277 C 
ENDBRANCH  38   7
ENDBRANCH  28  30
BRANCH  16   3
ATOM      3  O   UNL     1      16.729   4.350  -0.436  0.00  0.00    -0.391 OA
ATOM     40  H   UNL     1      17.475   4.960  -0.303  0.00  0.00    +0.210 HD
ENDBRANCH  16   3
BRANCH  13  21
ATOM     21  C   UNL     1      14.366   5.076  -1.828  0.00  0.00    +0.165 C 
BRANCH  21   4
ATOM      4  O   UNL     1      15.378   5.440  -2.739  0.00  0.00    -0.394 OA
ATOM     41  H   UNL     1      15.597   4.649  -3.260  0.00  0.00    +0.209 HD
ENDBRANCH  21   4
ENDBRANCH  13  21
BRANCH  14  24
ATOM     24  C   UNL     1      10.916   4.554   3.075  0.00  0.00    +0.106 C 
BRANCH  24  25
ATOM      5  O   UNL     1       9.732   4.572   5.185  0.00  0.00    -0.276 OA
ATOM      9  N   UNL     1      11.627   5.891   4.922  0.00  0.00    -0.311 N 
ATOM     25  C   UNL     1      10.667   4.983   4.502  0.00  0.00    +0.214 C 
ATOM     42  H   UNL     1      12.370   6.159   4.283  0.00  0.00    +0.149 HD
BRANCH   9  27
ATOM     27  C   UNL     1      11.637   6.476   6.244  0.00  0.00    +0.146 C 
BRANCH  27  29
ATOM      2  S   UNL     1       9.640   8.017   7.403  0.00  0.00    -0.100 S 
ATOM     29  C   UNL     1      10.860   7.757   6.229  0.00  0.00    +0.007 A 
ATOM     31  C   UNL     1      10.979   8.823   5.364  0.00  0.00    +0.013 A 
ATOM     34  C   UNL     1      10.058   9.867   5.670  0.00  0.00    +0.008 A 
ATOM     35  C   UNL     1       9.270   9.558   6.757  0.00  0.00    +0.045 A 
ENDBRANCH  27  29
ENDBRANCH   9  27
ENDBRANCH  24  25
ENDBRANCH  14  24
TORSDOF 9
ENDMDL
MODEL 10
REMARK VINA RESULT:      -6.2     27.006     31.506
REMARK  Name = 11882857
REMARK  12 active torsions:
REMARK  status: ('A' for Active; 'I' for Inactive)
REMARK    1  A    between atoms: O_3  and  C_16
REMARK    2  A    between atoms: O_4  and  C_21
REMARK    3  A    between atoms: O_7  and  C_38
REMARK    4  A    between atoms: O_7  and  C_39
REMARK    5  A    between atoms: N_9  and  C_27
REMARK    6  A    between atoms: C_11  and  C_19
REMARK    7  A    between atoms: C_13  and  C_21
REMARK    8  A    between atoms: C_13  and  C_22
REMARK    9  A    between atoms: C_14  and  C_24
REMARK   10  A    between atoms: C_24  and  C_25
REMARK   11  A    between atoms: C_27  and  C_29
REMARK   12  A    between atoms: C_28  and  C_30
REMARK                            x       y       z     vdW  Elec       q    Type
REMARK                         _______ _______ _______ _____ _____    ______ ____
ROOT
ATOM      1  S   UNL     1      11.275   3.874   1.897  0.00  0.00    -0.057 S 
ATOM      6  O   UNL     1       9.020   7.181   4.275  0.00  0.00    -0.270 OA
ATOM      8  N   UNL     1       9.956   6.090   1.689  0.00  0.00    -0.229 NA
ATOM     10  N   UNL     1      10.255   5.207   3.912  0.00  0.00    -0.261 N 
ATOM     11  C   UNL     1      10.820   6.102  -2.069  0.00  0.00    -0.019 C 
ATOM     12  C   UNL     1      10.843   4.511  -2.149  0.00  0.00    +0.011 C 
ATOM     13  C   UNL     1      11.287   3.869  -3.520  0.00  0.00    +0.021 C 
ATOM     14  C   UNL     1       9.948   6.519  -0.797  0.00  0.00    +0.054 C 
ATOM     15  C   UNL     1      10.137   6.672  -3.338  0.00  0.00    +0.010 C 
ATOM     16  C   UNL     1      10.546   4.586  -4.684  0.00  0.00    +0.123 C 
ATOM     17  C   UNL     1      11.548   3.889  -0.908  0.00  0.00    +0.049 C 
ATOM     18  C   UNL     1      10.683   6.104  -4.641  0.00  0.00    +0.032 C 
ATOM     19  C   UNL     1      12.236   6.718  -1.946  0.00  0.00    +0.012 C 
ATOM     20  C   UNL     1      10.334   5.709   0.415  0.00  0.00    +0.058 A 
ATOM     22  C   UNL     1      10.853   2.376  -3.544  0.00  0.00    +0.016 C 
ATOM     23  C   UNL     1      11.036   4.524   0.342  0.00  0.00    +0.015 A 
ATOM     26  C   UNL     1      10.403   5.202   2.550  0.00  0.00    +0.165 A 
ATOM     28  C   UNL     1       9.587   6.173   4.681  0.00  0.00    +0.250 C 
ATOM     43  H   UNL     1      10.652   4.390   4.365  0.00  0.00    +0.157 HD
ENDROOT
BRANCH  28  30
ATOM     30  C   UNL     1       9.553   5.911   6.144  0.00  0.00    +0.037 A 
ATOM     32  C   UNL     1       9.172   6.922   7.026  0.00  0.00    +0.016 A 
ATOM     33  C   UNL     1       9.902   4.652   6.636  0.00  0.00    +0.016 A 
ATOM     36  C   UNL     1       9.140   6.675   8.399  0.00  0.00    +0.046 A 
ATOM     37  C   UNL     1       9.869   4.405   8.008  0.00  0.00    +0.046 A 
ATOM     38  C   UNL     1       9.489   5.417   8.889  0.00  0.00    +0.120 A 
BRANCH  38   7
ATOM      7  O   UNL     1       9.455   5.176  10.228  0.00  0.00    -0.495 OA
ATOM     39  C   UNL     1       8.340   4.438  10.727  0.00  0.00    +0.277 C 
ENDBRANCH  38   7
ENDBRANCH  28  30
BRANCH  16   3
ATOM      3  O   UNL     1      11.021   4.117  -5.945  0.00  0.00    -0.391 OA
ATOM     40  H   UNL     1      10.319   3.570  -6.339  0.00  0.00    +0.210 HD
ENDBRANCH  16   3
BRANCH  13  21
ATOM     21  C   UNL     1      12.813   3.863  -3.760  0.00  0.00    +0.165 C 
BRANCH  21   4
ATOM      4  O   UNL     1      13.154   2.624  -4.337  0.00  0.00    -0.394 OA
ATOM     41  H   UNL     1      12.345   2.255  -4.731  0.00  0.00    +0.209 HD
ENDBRANCH  21   4
ENDBRANCH  13  21
BRANCH  14  24
ATOM     24  C   UNL     1       9.945   8.022  -0.490  0.00  0.00    +0.106 C 
BRANCH  24  25
ATOM      5  O   UNL     1       7.806   8.420  -1.550  0.00  0.00    -0.276 OA
ATOM      9  N   UNL     1       8.275   9.417   0.496  0.00  0.00    -0.311 N 
ATOM     25  C   UNL     1       8.563   8.621  -0.603  0.00  0.00    +0.214 C 
ATOM     42  H   UNL     1       8.965   9.509   1.236  0.00  0.00    +0.149 HD
BRANCH   9  27
ATOM     27  C   UNL     1       7.023  10.121   0.656  0.00  0.00    +0.146 C 
BRANCH  27  29
ATOM      2  S   UNL     1       8.016  10.529   3.215  0.00  0.00    -0.100 S 
ATOM     29  C   UNL     1       6.726  10.288   2.115  0.00  0.00    +0.007 A 
ATOM     31  C   UNL     1       5.502  10.274   2.749  0.00  0.00    +0.013 A 
ATOM     34  C   UNL     1       5.625  10.465   4.156  0.00  0.00    +0.008 A 
ATOM     35  C   UNL     1       6.939  10.617   4.543  0.00  0.00    +0.045 A 
ENDBRANCH  27  29
ENDBRANCH   9  27
ENDBRANCH  24  25
ENDBRANCH  14  24
TORSDOF 9
ENDMDL
