REMARK  Name = 25312555
REMARK  11 active torsions:
REMARK  status: ('A' for Active; 'I' for Inactive)
REMARK    1  A    between atoms: O_2  and  C_19
REMARK    2  A    between atoms: N_5  and  C_18
REMARK    3  A    between atoms: N_5  and  C_20
REMARK    4  A    between atoms: N_5  and  C_21
REMARK    5  A    between atoms: C_6  and  C_12
REMARK    6  A    between atoms: C_7  and  C_17
REMARK    7  A    between atoms: C_10  and  C_15
REMARK    8  A    between atoms: C_12  and  C_18
REMARK    9  A    between atoms: C_17  and  C_19
REMARK   10  A    between atoms: C_20  and  C_22
REMARK   11  A    between atoms: C_21  and  C_23
REMARK                            x       y       z     vdW  Elec       q    Type
REMARK                         _______ _______ _______ _____ _____    ______ ____
ROOT
ATOM      1  O   UNL     1       1.797   3.040  -1.591  0.00  0.00    -0.275 OA
ATOM      4  N   UNL     1       0.414   2.064   0.007  0.00  0.00    -0.301 N 
ATOM      6  C   UNL     1      -0.889   0.137   0.876  0.00  0.00    +0.011 C 
ATOM      7  C   UNL     1      -2.184   0.856   0.421  0.00  0.00    +0.006 C 
ATOM      8  C   UNL     1       0.214   1.173   1.157  0.00  0.00    +0.111 C 
ATOM      9  C   UNL     1      -1.917   1.814  -0.752  0.00  0.00    +0.023 C 
ATOM     11  C   UNL     1      -0.781   2.782  -0.431  0.00  0.00    +0.108 C 
ATOM     15  C   UNL     1       1.632   2.275  -0.645  0.00  0.00    +0.219 C 
ENDROOT
BRANCH  15  10
ATOM     10  C   UNL     1       2.817   1.508  -0.151  0.00  0.00    +0.075 C 
ATOM     13  C   UNL     1       4.198   1.891  -0.722  0.00  0.00    +0.013 C 
ATOM     14  C   UNL     1       3.374   1.880   1.239  0.00  0.00    +0.013 C 
ATOM     16  C   UNL     1       4.777   1.577   0.673  0.00  0.00    +0.001 C 
ENDBRANCH  15  10
BRANCH   6  12
ATOM     12  C   UNL     1      -0.385  -0.923  -0.112  0.00  0.00    +0.020 C 
BRANCH  12  18
ATOM     18  C   UNL     1       0.439  -1.984   0.604  0.00  0.00    +0.084 C 
BRANCH  18   5
ATOM      5  N   UNL     1       0.921  -2.969  -0.358  0.00  0.00    -0.303 NA
BRANCH   5  20
ATOM     20  C   UNL     1      -0.133  -3.933  -0.679  0.00  0.00    +0.081 C 
ATOM     22  C   UNL     1       0.334  -4.926  -1.730  0.00  0.00    +0.020 C 
ENDBRANCH   5  20
BRANCH   5  21
ATOM     21  C   UNL     1       2.102  -3.661   0.161  0.00  0.00    +0.081 C 
ATOM     23  C   UNL     1       1.771  -4.441   1.422  0.00  0.00    +0.020 C 
ENDBRANCH   5  21
ENDBRANCH  18   5
ENDBRANCH  12  18
ENDBRANCH   6  12
BRANCH   7  17
ATOM     17  C   UNL     1      -3.320  -0.109   0.081  0.00  0.00    +0.124 C 
BRANCH  17  19
ATOM      3  O   UNL     1      -4.877   1.723   0.479  0.00  0.00    -0.251 OA
ATOM     19  C   UNL     1      -4.663   0.559   0.177  0.00  0.00    +0.305 C 
BRANCH  19   2
ATOM      2  O   UNL     1      -5.641  -0.334  -0.128  0.00  0.00    -0.481 OA
ATOM     24  H   UNL     1      -6.533   0.070  -0.076  0.00  0.00    +0.295 HD
ENDBRANCH  19   2
ENDBRANCH  17  19
ENDBRANCH   7  17
TORSDOF 9
