MODEL 1
REMARK VINA RESULT:      -6.2      0.000      0.000
REMARK  Name = 75367673
REMARK  3 active torsions:
REMARK  status: ('A' for Active; 'I' for Inactive)
REMARK    1  A    between atoms: O_2  and  C_7
REMARK    2  A    between atoms: O_2  and  C_13
REMARK    3  A    between atoms: C_12  and  C_14
REMARK                            x       y       z     vdW  Elec       q    Type
REMARK                         _______ _______ _______ _____ _____    ______ ____
ROOT
ATOM      1  O   UNL     1      12.454   7.735  17.119  0.00  0.00    -0.375 OA
ATOM      3  O   UNL     1      13.187  12.276  18.583  0.00  0.00    -0.268 OA
ATOM      4  N   UNL     1      13.944  10.059  18.603  0.00  0.00    -0.290 N 
ATOM      7  C   UNL     1      14.216   7.527  18.795  0.00  0.00    +0.216 C 
ATOM      8  C   UNL     1      14.476   8.923  19.367  0.00  0.00    +0.155 C 
ATOM      9  C   UNL     1      13.657   9.866  17.181  0.00  0.00    +0.136 C 
ATOM     10  C   UNL     1      12.749   7.288  18.439  0.00  0.00    +0.206 C 
ATOM     11  C   UNL     1      12.329   9.147  16.983  0.00  0.00    +0.179 C 
ATOM     12  C   UNL     1      13.662  11.309  19.177  0.00  0.00    +0.267 C 
ENDROOT
BRANCH  12  14
ATOM      5  N   UNL     1      15.176  11.971  20.916  0.00  0.00    -0.247 NA
ATOM      6  N   UNL     1      13.269  11.386  22.887  0.00  0.00    -0.259 NA
ATOM     14  C   UNL     1      13.951  11.503  20.607  0.00  0.00    +0.144 A 
ATOM     17  C   UNL     1      13.015  11.215  21.574  0.00  0.00    +0.143 A 
ATOM     21  C   UNL     1      15.431  12.142  22.229  0.00  0.00    +0.131 A 
ATOM     22  C   UNL     1      14.493  11.855  23.197  0.00  0.00    +0.130 A 
ENDBRANCH  12  14
BRANCH   7   2
ATOM      2  O   UNL     1      14.609   6.591  19.799  0.00  0.00    -0.485 OA
BRANCH   2  13
ATOM     13  C   UNL     1      15.954   6.404  19.965  0.00  0.00    +0.121 A 
ATOM     15  C   UNL     1      16.563   6.744  21.173  0.00  0.00    +0.045 A 
ATOM     16  C   UNL     1      16.716   5.872  18.925  0.00  0.00    +0.045 A 
ATOM     18  C   UNL     1      17.934   6.554  21.341  0.00  0.00    +0.004 A 
ATOM     19  C   UNL     1      18.088   5.681  19.093  0.00  0.00    +0.004 A 
ATOM     20  C   UNL     1      18.697   6.022  20.301  0.00  0.00    +0.000 A 
ENDBRANCH   2  13
ENDBRANCH   7   2
TORSDOF 3
ENDMDL
MODEL 2
REMARK VINA RESULT:      -6.0      3.460      7.136
REMARK  Name = 75367673
REMARK  3 active torsions:
REMARK  status: ('A' for Active; 'I' for Inactive)
REMARK    1  A    between atoms: O_2  and  C_7
REMARK    2  A    between atoms: O_2  and  C_13
REMARK    3  A    between atoms: C_12  and  C_14
REMARK                            x       y       z     vdW  Elec       q    Type
REMARK                         _______ _______ _______ _____ _____    ______ ____
ROOT
ATOM      1  O   UNL     1      10.617   8.415  22.793  0.00  0.00    -0.375 OA
ATOM      3  O   UNL     1      12.556   6.287  18.918  0.00  0.00    -0.268 OA
ATOM      4  N   UNL     1      12.538   8.156  20.330  0.00  0.00    -0.290 N 
ATOM      7  C   UNL     1      11.940  10.186  21.758  0.00  0.00    +0.216 C 
ATOM      8  C   UNL     1      12.550   9.618  20.474  0.00  0.00    +0.155 C 
ATOM      9  C   UNL     1      12.424   7.339  21.539  0.00  0.00    +0.136 C 
ATOM     10  C   UNL     1      10.547   9.634  22.058  0.00  0.00    +0.206 C 
ATOM     11  C   UNL     1      10.980   7.275  22.022  0.00  0.00    +0.179 C 
ATOM     12  C   UNL     1      12.594   7.504  19.088  0.00  0.00    +0.267 C 
ENDROOT
BRANCH  12  14
ATOM      5  N   UNL     1      11.585   8.498  17.151  0.00  0.00    -0.247 NA
ATOM      6  N   UNL     1      14.030   9.638  16.383  0.00  0.00    -0.259 NA
ATOM     14  C   UNL     1      12.710   8.326  17.872  0.00  0.00    +0.144 A 
ATOM     17  C   UNL     1      13.911   8.886  17.495  0.00  0.00    +0.143 A 
ATOM     21  C   UNL     1      11.704   9.251  16.038  0.00  0.00    +0.131 A 
ATOM     22  C   UNL     1      12.905   9.811  15.662  0.00  0.00    +0.130 A 
ENDBRANCH  12  14
BRANCH   7   2
ATOM      2  O   UNL     1      11.850  11.600  21.580  0.00  0.00    -0.485 OA
BRANCH   2  13
ATOM     13  C   UNL     1      11.380  12.321  22.643  0.00  0.00    +0.121 A 
ATOM     15  C   UNL     1      11.796  12.008  23.937  0.00  0.00    +0.045 A 
ATOM     16  C   UNL     1      10.485  13.371  22.432  0.00  0.00    +0.045 A 
ATOM     18  C   UNL     1      11.316  12.743  25.021  0.00  0.00    +0.004 A 
ATOM     19  C   UNL     1      10.005  14.106  23.516  0.00  0.00    +0.004 A 
ATOM     20  C   UNL     1      10.420  13.792  24.810  0.00  0.00    +0.000 A 
ENDBRANCH   2  13
ENDBRANCH   7   2
TORSDOF 3
ENDMDL
MODEL 3
REMARK VINA RESULT:      -5.7      2.244      2.996
REMARK  Name = 75367673
REMARK  3 active torsions:
REMARK  status: ('A' for Active; 'I' for Inactive)
REMARK    1  A    between atoms: O_2  and  C_7
REMARK    2  A    between atoms: O_2  and  C_13
REMARK    3  A    between atoms: C_12  and  C_14
REMARK                            x       y       z     vdW  Elec       q    Type
REMARK                         _______ _______ _______ _____ _____    ______ ____
ROOT
ATOM      1  O   UNL     1      11.688   6.232  20.569  0.00  0.00    -0.375 OA
ATOM      3  O   UNL     1      11.009  10.157  23.295  0.00  0.00    -0.268 OA
ATOM      4  N   UNL     1      11.776   9.288  21.259  0.00  0.00    -0.290 N 
ATOM      7  C   UNL     1      12.919   7.978  19.389  0.00  0.00    +0.216 C 
ATOM      8  C   UNL     1      12.812   9.260  20.219  0.00  0.00    +0.155 C 
ATOM      9  C   UNL     1      10.641   8.372  21.134  0.00  0.00    +0.136 C 
ATOM     10  C   UNL     1      12.989   6.713  20.244  0.00  0.00    +0.206 C 
ATOM     11  C   UNL     1      11.019   6.967  21.588  0.00  0.00    +0.179 C 
ATOM     12  C   UNL     1      11.836  10.124  22.386  0.00  0.00    +0.267 C 
ENDROOT
BRANCH  12  14
ATOM      5  N   UNL     1      14.118  10.530  23.009  0.00  0.00    -0.247 NA
ATOM      6  N   UNL     1      13.912  13.221  22.251  0.00  0.00    -0.259 NA
ATOM     14  C   UNL     1      12.977  11.045  22.511  0.00  0.00    +0.144 A 
ATOM     17  C   UNL     1      12.876  12.368  22.139  0.00  0.00    +0.143 A 
ATOM     21  C   UNL     1      15.155  11.384  23.121  0.00  0.00    +0.131 A 
ATOM     22  C   UNL     1      15.054  12.706  22.748  0.00  0.00    +0.130 A 
ENDBRANCH  12  14
BRANCH   7   2
ATOM      2  O   UNL     1      14.117   8.086  18.619  0.00  0.00    -0.485 OA
BRANCH   2  13
ATOM     13  C   UNL     1      15.283   7.754  19.254  0.00  0.00    +0.121 A 
ATOM     15  C   UNL     1      15.901   6.533  18.984  0.00  0.00    +0.045 A 
ATOM     16  C   UNL     1      15.852   8.638  20.171  0.00  0.00    +0.045 A 
ATOM     18  C   UNL     1      17.089   6.195  19.632  0.00  0.00    +0.004 A 
ATOM     19  C   UNL     1      17.040   8.300  20.819  0.00  0.00    +0.004 A 
ATOM     20  C   UNL     1      17.658   7.079  20.550  0.00  0.00    +0.000 A 
ENDBRANCH   2  13
ENDBRANCH   7   2
TORSDOF 3
ENDMDL
MODEL 4
REMARK VINA RESULT:      -5.6      2.685      3.831
REMARK  Name = 75367673
REMARK  3 active torsions:
REMARK  status: ('A' for Active; 'I' for Inactive)
REMARK    1  A    between atoms: O_2  and  C_7
REMARK    2  A    between atoms: O_2  and  C_13
REMARK    3  A    between atoms: C_12  and  C_14
REMARK                            x       y       z     vdW  Elec       q    Type
REMARK                         _______ _______ _______ _____ _____    ______ ____
ROOT
ATOM      1  O   UNL     1      12.111   7.549  21.748  0.00  0.00    -0.375 OA
ATOM      3  O   UNL     1      10.436  11.371  24.174  0.00  0.00    -0.268 OA
ATOM      4  N   UNL     1      11.977  10.560  22.607  0.00  0.00    -0.290 N 
ATOM      7  C   UNL     1      13.776   9.282  21.322  0.00  0.00    +0.216 C 
ATOM      8  C   UNL     1      13.358  10.527  22.109  0.00  0.00    +0.155 C 
ATOM      9  C   UNL     1      10.981   9.711  21.951  0.00  0.00    +0.136 C 
ATOM     10  C   UNL     1      13.439   7.976  22.040  0.00  0.00    +0.206 C 
ATOM     11  C   UNL     1      11.090   8.269  22.430  0.00  0.00    +0.179 C 
ATOM     12  C   UNL     1      11.572  11.337  23.704  0.00  0.00    +0.267 C 
ENDROOT
BRANCH  12  14
ATOM      5  N   UNL     1      13.098  11.727  25.515  0.00  0.00    -0.247 NA
ATOM      6  N   UNL     1      13.864  14.193  24.422  0.00  0.00    -0.259 NA
ATOM     14  C   UNL     1      12.574  12.191  24.363  0.00  0.00    +0.144 A 
ATOM     17  C   UNL     1      12.950  13.402  23.826  0.00  0.00    +0.143 A 
ATOM     21  C   UNL     1      14.012  12.519  26.111  0.00  0.00    +0.131 A 
ATOM     22  C   UNL     1      14.389  13.730  25.573  0.00  0.00    +0.130 A 
ENDBRANCH  12  14
BRANCH   7   2
ATOM      2  O   UNL     1      15.191   9.362  21.144  0.00  0.00    -0.485 OA
BRANCH   2  13
ATOM     13  C   UNL     1      15.795   8.283  20.560  0.00  0.00    +0.121 A 
ATOM     15  C   UNL     1      16.932   7.721  21.140  0.00  0.00    +0.045 A 
ATOM     16  C   UNL     1      15.272   7.745  19.384  0.00  0.00    +0.045 A 
ATOM     18  C   UNL     1      17.548   6.621  20.544  0.00  0.00    +0.004 A 
ATOM     19  C   UNL     1      15.888   6.644  18.788  0.00  0.00    +0.004 A 
ATOM     20  C   UNL     1      17.026   6.083  19.367  0.00  0.00    +0.000 A 
ENDBRANCH   2  13
ENDBRANCH   7   2
TORSDOF 3
ENDMDL
MODEL 5
REMARK VINA RESULT:      -5.5      2.995      4.501
REMARK  Name = 75367673
REMARK  3 active torsions:
REMARK  status: ('A' for Active; 'I' for Inactive)
REMARK    1  A    between atoms: O_2  and  C_7
REMARK    2  A    between atoms: O_2  and  C_13
REMARK    3  A    between atoms: C_12  and  C_14
REMARK                            x       y       z     vdW  Elec       q    Type
REMARK                         _______ _______ _______ _____ _____    ______ ____
ROOT
ATOM      1  O   UNL     1      11.684   6.249  20.526  0.00  0.00    -0.375 OA
ATOM      3  O   UNL     1      11.041  10.016  23.476  0.00  0.00    -0.268 OA
ATOM      4  N   UNL     1      11.710   9.271  21.358  0.00  0.00    -0.290 N 
ATOM      7  C   UNL     1      12.780   8.093  19.362  0.00  0.00    +0.216 C 
ATOM      8  C   UNL     1      12.681   9.330  20.258  0.00  0.00    +0.155 C 
ATOM      9  C   UNL     1      10.602   8.320  21.257  0.00  0.00    +0.136 C 
ATOM     10  C   UNL     1      12.945   6.793  20.148  0.00  0.00    +0.206 C 
ATOM     11  C   UNL     1      11.054   6.911  21.619  0.00  0.00    +0.179 C 
ATOM     12  C   UNL     1      11.812  10.055  22.519  0.00  0.00    +0.267 C 
ENDROOT
BRANCH  12  14
ATOM      5  N   UNL     1      14.102  10.523  23.062  0.00  0.00    -0.247 NA
ATOM      6  N   UNL     1      13.780  13.222  22.372  0.00  0.00    -0.259 NA
ATOM     14  C   UNL     1      12.926  11.011  22.620  0.00  0.00    +0.144 A 
ATOM     17  C   UNL     1      12.768  12.337  22.281  0.00  0.00    +0.143 A 
ATOM     21  C   UNL     1      15.114  11.409  23.153  0.00  0.00    +0.131 A 
ATOM     22  C   UNL     1      14.956  12.735  22.813  0.00  0.00    +0.130 A 
ENDBRANCH  12  14
BRANCH   7   2
ATOM      2  O   UNL     1      13.924   8.280  18.527  0.00  0.00    -0.485 OA
BRANCH   2  13
ATOM     13  C   UNL     1      13.762   9.103  17.447  0.00  0.00    +0.121 A 
ATOM     15  C   UNL     1      14.669  10.137  17.215  0.00  0.00    +0.045 A 
ATOM     16  C   UNL     1      12.690   8.907  16.576  0.00  0.00    +0.045 A 
ATOM     18  C   UNL     1      14.503  10.977  16.114  0.00  0.00    +0.004 A 
ATOM     19  C   UNL     1      12.525   9.746  15.474  0.00  0.00    +0.004 A 
ATOM     20  C   UNL     1      13.431  10.781  15.243  0.00  0.00    +0.000 A 
ENDBRANCH   2  13
ENDBRANCH   7   2
TORSDOF 3
ENDMDL
MODEL 6
REMARK VINA RESULT:      -5.5     26.952     29.762
REMARK  Name = 75367673
REMARK  3 active torsions:
REMARK  status: ('A' for Active; 'I' for Inactive)
REMARK    1  A    between atoms: O_2  and  C_7
REMARK    2  A    between atoms: O_2  and  C_13
REMARK    3  A    between atoms: C_12  and  C_14
REMARK                            x       y       z     vdW  Elec       q    Type
REMARK                         _______ _______ _______ _____ _____    ______ ____
ROOT
ATOM      1  O   UNL     1      -8.466 -11.311  19.140  0.00  0.00    -0.375 OA
ATOM      3  O   UNL     1      -3.678 -11.909  18.996  0.00  0.00    -0.268 OA
ATOM      4  N   UNL     1      -5.535 -10.730  18.192  0.00  0.00    -0.290 N 
ATOM      7  C   UNL     1      -7.773  -9.985  17.212  0.00  0.00    +0.216 C 
ATOM      8  C   UNL     1      -6.261 -10.164  17.047  0.00  0.00    +0.155 C 
ATOM      9  C   UNL     1      -6.145 -10.630  19.519  0.00  0.00    +0.136 C 
ATOM     10  C   UNL     1      -8.475 -11.244  17.717  0.00  0.00    +0.206 C 
ATOM     11  C   UNL     1      -7.219 -11.694  19.710  0.00  0.00    +0.179 C 
ATOM     12  C   UNL     1      -4.304 -11.393  18.072  0.00  0.00    +0.267 C 
ENDROOT
BRANCH  12  14
ATOM      5  N   UNL     1      -4.159 -12.464  15.929  0.00  0.00    -0.247 NA
ATOM      6  N   UNL     1      -2.119 -10.717  15.123  0.00  0.00    -0.259 NA
ATOM     14  C   UNL     1      -3.691 -11.492  16.737  0.00  0.00    +0.144 A 
ATOM     17  C   UNL     1      -2.689 -10.635  16.341  0.00  0.00    +0.143 A 
ATOM     21  C   UNL     1      -3.589 -12.547  14.710  0.00  0.00    +0.131 A 
ATOM     22  C   UNL     1      -2.587 -11.688  14.315  0.00  0.00    +0.130 A 
ENDBRANCH  12  14
BRANCH   7   2
ATOM      2  O   UNL     1      -8.290  -9.649  15.924  0.00  0.00    -0.485 OA
BRANCH   2  13
ATOM     13  C   UNL     1      -9.387  -8.832  15.901  0.00  0.00    +0.121 A 
ATOM     15  C   UNL     1      -9.684  -8.031  17.003  0.00  0.00    +0.045 A 
ATOM     16  C   UNL     1     -10.208  -8.800  14.773  0.00  0.00    +0.045 A 
ATOM     18  C   UNL     1     -10.803  -7.199  16.979  0.00  0.00    +0.004 A 
ATOM     19  C   UNL     1     -11.327  -7.967  14.749  0.00  0.00    +0.004 A 
ATOM     20  C   UNL     1     -11.624  -7.167  15.852  0.00  0.00    +0.000 A 
ENDBRANCH   2  13
ENDBRANCH   7   2
TORSDOF 3
ENDMDL
MODEL 7
REMARK VINA RESULT:      -5.3     26.978     28.965
REMARK  Name = 75367673
REMARK  3 active torsions:
REMARK  status: ('A' for Active; 'I' for Inactive)
REMARK    1  A    between atoms: O_2  and  C_7
REMARK    2  A    between atoms: O_2  and  C_13
REMARK    3  A    between atoms: C_12  and  C_14
REMARK                            x       y       z     vdW  Elec       q    Type
REMARK                         _______ _______ _______ _____ _____    ______ ____
ROOT
ATOM      1  O   UNL     1      -1.950 -12.609  14.464  0.00  0.00    -0.375 OA
ATOM      3  O   UNL     1      -2.784  -9.795  10.631  0.00  0.00    -0.268 OA
ATOM      4  N   UNL     1      -3.434 -10.408  12.797  0.00  0.00    -0.290 N 
ATOM      7  C   UNL     1      -4.133 -11.622  14.932  0.00  0.00    +0.216 C 
ATOM      8  C   UNL     1      -4.514 -10.753  13.731  0.00  0.00    +0.155 C 
ATOM      9  C   UNL     1      -2.053 -10.469  13.278  0.00  0.00    +0.136 C 
ATOM     10  C   UNL     1      -3.348 -12.874  14.542  0.00  0.00    +0.206 C 
ATOM     11  C   UNL     1      -1.542 -11.905  13.295  0.00  0.00    +0.179 C 
ATOM     12  C   UNL     1      -3.658 -10.059  11.455  0.00  0.00    +0.267 C 
ENDROOT
BRANCH  12  14
ATOM      5  N   UNL     1      -5.522 -11.099  10.359  0.00  0.00    -0.247 NA
ATOM      6  N   UNL     1      -7.087  -8.797  10.698  0.00  0.00    -0.259 NA
ATOM     14  C   UNL     1      -5.046  -9.997  10.972  0.00  0.00    +0.144 A 
ATOM     17  C   UNL     1      -5.815  -8.866  11.139  0.00  0.00    +0.143 A 
ATOM     21  C   UNL     1      -6.794 -11.029   9.918  0.00  0.00    +0.131 A 
ATOM     22  C   UNL     1      -7.563  -9.898  10.086  0.00  0.00    +0.130 A 
ENDBRANCH  12  14
BRANCH   7   2
ATOM      2  O   UNL     1      -5.354 -12.016  15.559  0.00  0.00    -0.485 OA
BRANCH   2  13
ATOM     13  C   UNL     1      -5.554 -11.573  16.837  0.00  0.00    +0.121 A 
ATOM     15  C   UNL     1      -6.679 -10.810  17.144  0.00  0.00    +0.045 A 
ATOM     16  C   UNL     1      -4.629 -11.887  17.835  0.00  0.00    +0.045 A 
ATOM     18  C   UNL     1      -6.882 -10.359  18.448  0.00  0.00    +0.004 A 
ATOM     19  C   UNL     1      -4.832 -11.436  19.139  0.00  0.00    +0.004 A 
ATOM     20  C   UNL     1      -5.958 -10.672  19.446  0.00  0.00    +0.000 A 
ENDBRANCH   2  13
ENDBRANCH   7   2
TORSDOF 3
ENDMDL
MODEL 8
REMARK VINA RESULT:      -5.3     26.602     29.030
REMARK  Name = 75367673
REMARK  3 active torsions:
REMARK  status: ('A' for Active; 'I' for Inactive)
REMARK    1  A    between atoms: O_2  and  C_7
REMARK    2  A    between atoms: O_2  and  C_13
REMARK    3  A    between atoms: C_12  and  C_14
REMARK                            x       y       z     vdW  Elec       q    Type
REMARK                         _______ _______ _______ _____ _____    ______ ____
ROOT
ATOM      1  O   UNL     1      -2.946 -12.200  15.524  0.00  0.00    -0.375 OA
ATOM      3  O   UNL     1      -1.188 -10.160  11.518  0.00  0.00    -0.268 OA
ATOM      4  N   UNL     1      -2.988 -10.330  13.009  0.00  0.00    -0.290 N 
ATOM      7  C   UNL     1      -4.885 -11.095  14.537  0.00  0.00    +0.216 C 
ATOM      8  C   UNL     1      -4.435 -10.465  13.216  0.00  0.00    +0.155 C 
ATOM      9  C   UNL     1      -2.115 -10.328  14.184  0.00  0.00    +0.136 C 
ATOM     10  C   UNL     1      -4.180 -12.414  14.844  0.00  0.00    +0.206 C 
ATOM     11  C   UNL     1      -1.882 -11.743  14.697  0.00  0.00    +0.179 C 
ATOM     12  C   UNL     1      -2.396 -10.241  11.739  0.00  0.00    +0.267 C 
ENDROOT
BRANCH  12  14
ATOM      5  N   UNL     1      -3.666 -11.449  10.100  0.00  0.00    -0.247 NA
ATOM      6  N   UNL     1      -4.470  -9.060   8.870  0.00  0.00    -0.259 NA
ATOM     14  C   UNL     1      -3.274 -10.244  10.558  0.00  0.00    +0.144 A 
ATOM     17  C   UNL     1      -3.668  -9.071   9.953  0.00  0.00    +0.143 A 
ATOM     21  C   UNL     1      -4.468 -11.439   9.016  0.00  0.00    +0.131 A 
ATOM     22  C   UNL     1      -4.863 -10.265   8.413  0.00  0.00    +0.130 A 
ENDBRANCH  12  14
BRANCH   7   2
ATOM      2  O   UNL     1      -6.289 -11.333  14.421  0.00  0.00    -0.485 OA
BRANCH   2  13
ATOM     13  C   UNL     1      -7.109 -10.514  15.147  0.00  0.00    +0.121 A 
ATOM     15  C   UNL     1      -8.310 -10.064  14.599  0.00  0.00    +0.045 A 
ATOM     16  C   UNL     1      -6.743 -10.128  16.437  0.00  0.00    +0.045 A 
ATOM     18  C   UNL     1      -9.145  -9.228  15.339  0.00  0.00    +0.004 A 
ATOM     19  C   UNL     1      -7.579  -9.292  17.178  0.00  0.00    +0.004 A 
ATOM     20  C   UNL     1      -8.779  -8.842  16.629  0.00  0.00    +0.000 A 
ENDBRANCH   2  13
ENDBRANCH   7   2
TORSDOF 3
ENDMDL
MODEL 9
REMARK VINA RESULT:      -5.2     27.198     29.496
REMARK  Name = 75367673
REMARK  3 active torsions:
REMARK  status: ('A' for Active; 'I' for Inactive)
REMARK    1  A    between atoms: O_2  and  C_7
REMARK    2  A    between atoms: O_2  and  C_13
REMARK    3  A    between atoms: C_12  and  C_14
REMARK                            x       y       z     vdW  Elec       q    Type
REMARK                         _______ _______ _______ _____ _____    ______ ____
ROOT
ATOM      1  O   UNL     1      -5.543 -11.885  19.345  0.00  0.00    -0.375 OA
ATOM      3  O   UNL     1     -10.226 -11.465  18.252  0.00  0.00    -0.268 OA
ATOM      4  N   UNL     1      -8.014 -11.374  17.485  0.00  0.00    -0.290 N 
ATOM      7  C   UNL     1      -5.532 -10.910  17.108  0.00  0.00    +0.216 C 
ATOM      8  C   UNL     1      -6.988 -10.680  16.697  0.00  0.00    +0.155 C 
ATOM      9  C   UNL     1      -7.621 -12.564  18.243  0.00  0.00    +0.136 C 
ATOM     10  C   UNL     1      -5.288 -10.697  18.601  0.00  0.00    +0.206 C 
ATOM     11  C   UNL     1      -6.922 -12.180  19.541  0.00  0.00    +0.179 C 
ATOM     12  C   UNL     1      -9.344 -10.934  17.579  0.00  0.00    +0.267 C 
ENDROOT
BRANCH  12  14
ATOM      5  N   UNL     1     -10.090  -9.932  15.531  0.00  0.00    -0.247 NA
ATOM      6  N   UNL     1     -10.102  -7.386  16.707  0.00  0.00    -0.259 NA
ATOM     14  C   UNL     1      -9.739  -9.739  16.817  0.00  0.00    +0.144 A 
ATOM     17  C   UNL     1      -9.745  -8.488  17.395  0.00  0.00    +0.143 A 
ATOM     21  C   UNL     1     -10.447  -8.829  14.842  0.00  0.00    +0.131 A 
ATOM     22  C   UNL     1     -10.454  -7.579  15.421  0.00  0.00    +0.130 A 
ENDBRANCH  12  14
BRANCH   7   2
ATOM      2  O   UNL     1      -4.744  -9.975  16.370  0.00  0.00    -0.485 OA
BRANCH   2  13
ATOM     13  C   UNL     1      -3.787 -10.500  15.545  0.00  0.00    +0.121 A 
ATOM     15  C   UNL     1      -2.511 -10.770  16.038  0.00  0.00    +0.045 A 
ATOM     16  C   UNL     1      -4.090 -10.765  14.209  0.00  0.00    +0.045 A 
ATOM     18  C   UNL     1      -1.537 -11.304  15.196  0.00  0.00    +0.004 A 
ATOM     19  C   UNL     1      -3.115 -11.300  13.366  0.00  0.00    +0.004 A 
ATOM     20  C   UNL     1      -1.838 -11.569  13.860  0.00  0.00    +0.000 A 
ENDBRANCH   2  13
ENDBRANCH   7   2
TORSDOF 3
ENDMDL
MODEL 10
REMARK VINA RESULT:      -5.2     28.127     30.359
REMARK  Name = 75367673
REMARK  3 active torsions:
REMARK  status: ('A' for Active; 'I' for Inactive)
REMARK    1  A    between atoms: O_2  and  C_7
REMARK    2  A    between atoms: O_2  and  C_13
REMARK    3  A    between atoms: C_12  and  C_14
REMARK                            x       y       z     vdW  Elec       q    Type
REMARK                         _______ _______ _______ _____ _____    ______ ____
ROOT
ATOM      1  O   UNL     1      -7.248 -10.156   7.030  0.00  0.00    -0.375 OA
ATOM      3  O   UNL     1     -10.413  -6.647   6.043  0.00  0.00    -0.268 OA
ATOM      4  N   UNL     1      -8.588  -7.339   7.339  0.00  0.00    -0.290 N 
ATOM      7  C   UNL     1      -6.938  -8.564   8.854  0.00  0.00    +0.216 C 
ATOM      8  C   UNL     1      -7.953  -7.434   8.659  0.00  0.00    +0.155 C 
ATOM      9  C   UNL     1      -7.909  -7.952   6.195  0.00  0.00    +0.136 C 
ATOM     10  C   UNL     1      -7.469  -9.929   8.420  0.00  0.00    +0.206 C 
ATOM     11  C   UNL     1      -8.138  -9.458   6.165  0.00  0.00    +0.179 C 
ATOM     12  C   UNL     1      -9.830  -6.722   7.124  0.00  0.00    +0.267 C 
ENDROOT
BRANCH  12  14
ATOM      5  N   UNL     1     -11.315  -6.908   9.000  0.00  0.00    -0.247 NA
ATOM      6  N   UNL     1     -10.957  -4.199   9.632  0.00  0.00    -0.259 NA
ATOM     14  C   UNL     1     -10.512  -6.105   8.273  0.00  0.00    +0.144 A 
ATOM     17  C   UNL     1     -10.336  -4.775   8.584  0.00  0.00    +0.143 A 
ATOM     21  C   UNL     1     -11.935  -6.331  10.049  0.00  0.00    +0.131 A 
ATOM     22  C   UNL     1     -11.759  -5.001  10.360  0.00  0.00    +0.130 A 
ENDBRANCH  12  14
BRANCH   7   2
ATOM      2  O   UNL     1      -6.632  -8.606  10.248  0.00  0.00    -0.485 OA
BRANCH   2  13
ATOM     13  C   UNL     1      -5.393  -9.077  10.587  0.00  0.00    +0.121 A 
ATOM     15  C   UNL     1      -5.235  -9.873  11.722  0.00  0.00    +0.045 A 
ATOM     16  C   UNL     1      -4.288  -8.760   9.797  0.00  0.00    +0.045 A 
ATOM     18  C   UNL     1      -3.972 -10.352  12.067  0.00  0.00    +0.004 A 
ATOM     19  C   UNL     1      -3.024  -9.240  10.143  0.00  0.00    +0.004 A 
ATOM     20  C   UNL     1      -2.866 -10.035  11.277  0.00  0.00    +0.000 A 
ENDBRANCH   2  13
ENDBRANCH   7   2
TORSDOF 3
ENDMDL
