MODEL 1
REMARK VINA RESULT:      -5.9      0.000      0.000
REMARK  Name = 75537101
REMARK  5 active torsions:
REMARK  status: ('A' for Active; 'I' for Inactive)
REMARK    1  A    between atoms: O_2  and  C_17
REMARK    2  A    between atoms: O_2  and  C_20
REMARK    3  A    between atoms: N_4  and  C_12
REMARK    4  A    between atoms: N_5  and  C_13
REMARK    5  A    between atoms: C_12  and  C_14
REMARK                            x       y       z     vdW  Elec       q    Type
REMARK                         _______ _______ _______ _____ _____    ______ ____
ROOT
ATOM      1  O   UNL     1      10.945  10.818  25.246  0.00  0.00    -0.252 OA
ATOM      3  N   UNL     1      11.114  10.357  22.948  0.00  0.00    -0.278 N 
ATOM      4  N   UNL     1      11.765   8.967  20.590  0.00  0.00    -0.295 NA
ATOM      5  N   UNL     1      11.608  12.429  23.656  0.00  0.00    -0.287 N 
ATOM      6  C   UNL     1      11.353  11.107  21.734  0.00  0.00    +0.109 C 
ATOM      7  C   UNL     1      12.286  10.332  20.804  0.00  0.00    +0.109 C 
ATOM      8  C   UNL     1      11.907  12.440  22.235  0.00  0.00    +0.132 C 
ATOM      9  C   UNL     1      10.741   8.960  22.856  0.00  0.00    +0.125 C 
ATOM     10  C   UNL     1      11.663   8.237  21.870  0.00  0.00    +0.104 C 
ATOM     11  C   UNL     1      11.187  11.158  24.095  0.00  0.00    +0.305 C 
ATOM     13  C   UNL     1      11.873  13.572  24.504  0.00  0.00    +0.133 C 
ENDROOT
BRANCH   4  12
ATOM     12  C   UNL     1      12.618   8.236  19.654  0.00  0.00    +0.119 C 
BRANCH  12  14
ATOM     14  C   UNL     1      12.325   8.606  18.224  0.00  0.00    -0.030 A 
ATOM     15  C   UNL     1      13.359   9.023  17.386  0.00  0.00    +0.050 A 
ATOM     16  C   UNL     1      11.020   8.530  17.737  0.00  0.00    +0.005 A 
ATOM     17  C   UNL     1      13.088   9.366  16.060  0.00  0.00    +0.120 A 
ATOM     18  C   UNL     1      10.749   8.873  16.413  0.00  0.00    +0.004 A 
ATOM     19  C   UNL     1      11.782   9.290  15.575  0.00  0.00    +0.045 A 
BRANCH  17   2
ATOM      2  O   UNL     1      14.096   9.775  15.244  0.00  0.00    -0.495 OA
ATOM     20  C   UNL     1      14.895  10.867  15.696  0.00  0.00    +0.277 C 
ENDBRANCH  17   2
ENDBRANCH  12  14
ENDBRANCH   4  12
TORSDOF 3
ENDMDL
MODEL 2
REMARK VINA RESULT:      -5.6      2.680      7.143
REMARK  Name = 75537101
REMARK  5 active torsions:
REMARK  status: ('A' for Active; 'I' for Inactive)
REMARK    1  A    between atoms: O_2  and  C_17
REMARK    2  A    between atoms: O_2  and  C_20
REMARK    3  A    between atoms: N_4  and  C_12
REMARK    4  A    between atoms: N_5  and  C_13
REMARK    5  A    between atoms: C_12  and  C_14
REMARK                            x       y       z     vdW  Elec       q    Type
REMARK                         _______ _______ _______ _____ _____    ______ ____
ROOT
ATOM      1  O   UNL     1      12.378   6.541  19.376  0.00  0.00    -0.252 OA
ATOM      3  N   UNL     1      11.737   8.589  20.332  0.00  0.00    -0.278 N 
ATOM      4  N   UNL     1      11.953  11.240  21.249  0.00  0.00    -0.295 NA
ATOM      5  N   UNL     1      11.099   6.693  21.352  0.00  0.00    -0.287 N 
ATOM      6  C   UNL     1      10.883   9.030  21.415  0.00  0.00    +0.109 C 
ATOM      7  C   UNL     1      11.545  10.172  22.184  0.00  0.00    +0.109 C 
ATOM      8  C   UNL     1      10.646   7.759  22.230  0.00  0.00    +0.132 C 
ATOM      9  C   UNL     1      12.315   9.573  19.441  0.00  0.00    +0.125 C 
ATOM     10  C   UNL     1      12.913  10.727  20.251  0.00  0.00    +0.104 C 
ATOM     11  C   UNL     1      11.807   7.193  20.241  0.00  0.00    +0.305 C 
ATOM     13  C   UNL     1      10.948   5.297  21.701  0.00  0.00    +0.133 C 
ENDROOT
BRANCH   4  12
ATOM     12  C   UNL     1      12.533  12.365  21.982  0.00  0.00    +0.119 C 
BRANCH  12  14
ATOM     14  C   UNL     1      11.475  13.210  22.641  0.00  0.00    -0.030 A 
ATOM     15  C   UNL     1      11.475  13.373  24.026  0.00  0.00    +0.050 A 
ATOM     16  C   UNL     1      10.495  13.829  21.866  0.00  0.00    +0.005 A 
ATOM     17  C   UNL     1      10.495  14.156  24.637  0.00  0.00    +0.120 A 
ATOM     18  C   UNL     1       9.515  14.611  22.475  0.00  0.00    +0.004 A 
ATOM     19  C   UNL     1       9.515  14.775  23.860  0.00  0.00    +0.045 A 
BRANCH  17   2
ATOM      2  O   UNL     1      10.494  14.314  25.988  0.00  0.00    -0.495 OA
ATOM     20  C   UNL     1      11.691  14.812  26.583  0.00  0.00    +0.277 C 
ENDBRANCH  17   2
ENDBRANCH  12  14
ENDBRANCH   4  12
TORSDOF 3
ENDMDL
MODEL 3
REMARK VINA RESULT:      -5.5     28.328     30.209
REMARK  Name = 75537101
REMARK  5 active torsions:
REMARK  status: ('A' for Active; 'I' for Inactive)
REMARK    1  A    between atoms: O_2  and  C_17
REMARK    2  A    between atoms: O_2  and  C_20
REMARK    3  A    between atoms: N_4  and  C_12
REMARK    4  A    between atoms: N_5  and  C_13
REMARK    5  A    between atoms: C_12  and  C_14
REMARK                            x       y       z     vdW  Elec       q    Type
REMARK                         _______ _______ _______ _____ _____    ______ ____
ROOT
ATOM      1  O   UNL     1     -17.721   3.626  21.561  0.00  0.00    -0.252 OA
ATOM      3  N   UNL     1     -16.835   3.143  23.683  0.00  0.00    -0.278 N 
ATOM      4  N   UNL     1     -16.776   2.616  26.446  0.00  0.00    -0.295 NA
ATOM      5  N   UNL     1     -15.801   4.689  22.425  0.00  0.00    -0.287 N 
ATOM      6  C   UNL     1     -15.652   3.494  24.440  0.00  0.00    +0.109 C 
ATOM      7  C   UNL     1     -16.014   3.758  25.901  0.00  0.00    +0.109 C 
ATOM      8  C   UNL     1     -15.087   4.700  23.691  0.00  0.00    +0.132 C 
ATOM      9  C   UNL     1     -17.735   2.135  24.203  0.00  0.00    +0.125 C 
ATOM     10  C   UNL     1     -18.023   2.404  25.683  0.00  0.00    +0.104 C 
ATOM     11  C   UNL     1     -16.889   3.794  22.444  0.00  0.00    +0.305 C 
ATOM     13  C   UNL     1     -15.486   5.617  21.360  0.00  0.00    +0.133 C 
ENDROOT
BRANCH   4  12
ATOM     12  C   UNL     1     -17.076   2.832  27.861  0.00  0.00    +0.119 C 
BRANCH  12  14
ATOM     14  C   UNL     1     -15.976   2.317  28.751  0.00  0.00    -0.030 A 
ATOM     15  C   UNL     1     -15.716   0.949  28.819  0.00  0.00    +0.050 A 
ATOM     16  C   UNL     1     -15.216   3.209  29.509  0.00  0.00    +0.005 A 
ATOM     17  C   UNL     1     -14.698   0.471  29.644  0.00  0.00    +0.120 A 
ATOM     18  C   UNL     1     -14.198   2.732  30.334  0.00  0.00    +0.004 A 
ATOM     19  C   UNL     1     -13.939   1.364  30.401  0.00  0.00    +0.045 A 
BRANCH  17   2
ATOM      2  O   UNL     1     -14.446  -0.865  29.710  0.00  0.00    -0.495 OA
ATOM     20  C   UNL     1     -13.128  -1.294  29.373  0.00  0.00    +0.277 C 
ENDBRANCH  17   2
ENDBRANCH  12  14
ENDBRANCH   4  12
TORSDOF 3
ENDMDL
MODEL 4
REMARK VINA RESULT:      -5.4     28.429     30.213
REMARK  Name = 75537101
REMARK  5 active torsions:
REMARK  status: ('A' for Active; 'I' for Inactive)
REMARK    1  A    between atoms: O_2  and  C_17
REMARK    2  A    between atoms: O_2  and  C_20
REMARK    3  A    between atoms: N_4  and  C_12
REMARK    4  A    between atoms: N_5  and  C_13
REMARK    5  A    between atoms: C_12  and  C_14
REMARK                            x       y       z     vdW  Elec       q    Type
REMARK                         _______ _______ _______ _____ _____    ______ ____
ROOT
ATOM      1  O   UNL     1     -17.735   3.042  21.940  0.00  0.00    -0.252 OA
ATOM      3  N   UNL     1     -16.763   2.752  24.059  0.00  0.00    -0.278 N 
ATOM      4  N   UNL     1     -16.593   2.283  26.828  0.00  0.00    -0.295 NA
ATOM      5  N   UNL     1     -16.026   4.438  22.772  0.00  0.00    -0.287 N 
ATOM      6  C   UNL     1     -15.655   3.317  24.800  0.00  0.00    +0.109 C 
ATOM      7  C   UNL     1     -16.048   3.534  26.261  0.00  0.00    +0.109 C 
ATOM      8  C   UNL     1     -15.316   4.592  24.030  0.00  0.00    +0.132 C 
ATOM      9  C   UNL     1     -17.468   1.609  24.601  0.00  0.00    +0.125 C 
ATOM     10  C   UNL     1     -17.789   1.844  26.080  0.00  0.00    +0.104 C 
ATOM     11  C   UNL     1     -16.940   3.366  22.812  0.00  0.00    +0.305 C 
ATOM     13  C   UNL     1     -15.887   5.390  21.692  0.00  0.00    +0.133 C 
ENDROOT
BRANCH   4  12
ATOM     12  C   UNL     1     -16.916   2.464  28.243  0.00  0.00    +0.119 C 
BRANCH  12  14
ATOM     14  C   UNL     1     -15.814   1.959  29.137  0.00  0.00    -0.030 A 
ATOM     15  C   UNL     1     -14.929   2.860  29.729  0.00  0.00    +0.050 A 
ATOM     16  C   UNL     1     -15.679   0.591  29.374  0.00  0.00    +0.005 A 
ATOM     17  C   UNL     1     -13.908   2.393  30.558  0.00  0.00    +0.120 A 
ATOM     18  C   UNL     1     -14.659   0.124  30.201  0.00  0.00    +0.004 A 
ATOM     19  C   UNL     1     -13.774   1.025  30.793  0.00  0.00    +0.045 A 
BRANCH  17   2
ATOM      2  O   UNL     1     -13.044   3.272  31.134  0.00  0.00    -0.495 OA
ATOM     20  C   UNL     1     -13.544   4.061  32.212  0.00  0.00    +0.277 C 
ENDBRANCH  17   2
ENDBRANCH  12  14
ENDBRANCH   4  12
TORSDOF 3
ENDMDL
MODEL 5
REMARK VINA RESULT:      -5.4      5.038      6.397
REMARK  Name = 75537101
REMARK  5 active torsions:
REMARK  status: ('A' for Active; 'I' for Inactive)
REMARK    1  A    between atoms: O_2  and  C_17
REMARK    2  A    between atoms: O_2  and  C_20
REMARK    3  A    between atoms: N_4  and  C_12
REMARK    4  A    between atoms: N_5  and  C_13
REMARK    5  A    between atoms: C_12  and  C_14
REMARK                            x       y       z     vdW  Elec       q    Type
REMARK                         _______ _______ _______ _____ _____    ______ ____
ROOT
ATOM      1  O   UNL     1      20.636   8.336  22.011  0.00  0.00    -0.252 OA
ATOM      3  N   UNL     1      18.368   8.011  21.489  0.00  0.00    -0.278 N 
ATOM      4  N   UNL     1      16.099   7.124  20.082  0.00  0.00    -0.295 NA
ATOM      5  N   UNL     1      19.026  10.055  22.146  0.00  0.00    -0.287 N 
ATOM      6  C   UNL     1      17.141   8.773  21.582  0.00  0.00    +0.109 C 
ATOM      7  C   UNL     1      16.290   8.567  20.330  0.00  0.00    +0.109 C 
ATOM      8  C   UNL     1      17.622  10.207  21.803  0.00  0.00    +0.132 C 
ATOM      9  C   UNL     1      18.307   6.615  21.105  0.00  0.00    +0.125 C 
ATOM     10  C   UNL     1      17.398   6.447  19.885  0.00  0.00    +0.104 C 
ATOM     11  C   UNL     1      19.487   8.746  21.900  0.00  0.00    +0.305 C 
ATOM     13  C   UNL     1      19.844  11.180  22.543  0.00  0.00    +0.133 C 
ENDROOT
BRANCH   4  12
ATOM     12  C   UNL     1      15.235   6.916  18.920  0.00  0.00    +0.119 C 
BRANCH  12  14
ATOM     14  C   UNL     1      13.844   7.442  19.156  0.00  0.00    -0.030 A 
ATOM     15  C   UNL     1      13.096   6.975  20.236  0.00  0.00    +0.050 A 
ATOM     16  C   UNL     1      13.303   8.395  18.293  0.00  0.00    +0.005 A 
ATOM     17  C   UNL     1      11.806   7.462  20.455  0.00  0.00    +0.120 A 
ATOM     18  C   UNL     1      12.015   8.882  18.510  0.00  0.00    +0.004 A 
ATOM     19  C   UNL     1      11.267   8.415  19.591  0.00  0.00    +0.045 A 
BRANCH  17   2
ATOM      2  O   UNL     1      11.076   7.006  21.508  0.00  0.00    -0.495 OA
ATOM     20  C   UNL     1      10.542   7.983  22.399  0.00  0.00    +0.277 C 
ENDBRANCH  17   2
ENDBRANCH  12  14
ENDBRANCH   4  12
TORSDOF 3
ENDMDL
MODEL 6
REMARK VINA RESULT:      -5.3     26.027     27.619
REMARK  Name = 75537101
REMARK  5 active torsions:
REMARK  status: ('A' for Active; 'I' for Inactive)
REMARK    1  A    between atoms: O_2  and  C_17
REMARK    2  A    between atoms: O_2  and  C_20
REMARK    3  A    between atoms: N_4  and  C_12
REMARK    4  A    between atoms: N_5  and  C_13
REMARK    5  A    between atoms: C_12  and  C_14
REMARK                            x       y       z     vdW  Elec       q    Type
REMARK                         _______ _______ _______ _____ _____    ______ ____
ROOT
ATOM      1  O   UNL     1      -9.948  -9.321  17.692  0.00  0.00    -0.252 OA
ATOM      3  N   UNL     1      -7.748 -10.144  17.769  0.00  0.00    -0.278 N 
ATOM      4  N   UNL     1      -5.290 -11.156  16.848  0.00  0.00    -0.295 NA
ATOM      5  N   UNL     1      -9.230 -10.926  19.264  0.00  0.00    -0.287 N 
ATOM      6  C   UNL     1      -6.968 -10.995  18.642  0.00  0.00    +0.109 C 
ATOM      7  C   UNL     1      -6.085 -11.934  17.820  0.00  0.00    +0.109 C 
ATOM      8  C   UNL     1      -8.020 -11.693  19.503  0.00  0.00    +0.132 C 
ATOM      9  C   UNL     1      -7.089  -9.448  16.684  0.00  0.00    +0.125 C 
ATOM     10  C   UNL     1      -6.170 -10.410  15.926  0.00  0.00    +0.104 C 
ATOM     11  C   UNL     1      -9.083 -10.036  18.181  0.00  0.00    +0.305 C 
ATOM     13  C   UNL     1     -10.459 -11.190  19.981  0.00  0.00    +0.133 C 
ENDROOT
BRANCH   4  12
ATOM     12  C   UNL     1      -4.397 -12.038  16.098  0.00  0.00    +0.119 C 
BRANCH  12  14
ATOM     14  C   UNL     1      -3.257 -11.280  15.471  0.00  0.00    -0.030 A 
ATOM     15  C   UNL     1      -3.208 -11.115  14.087  0.00  0.00    +0.050 A 
ATOM     16  C   UNL     1      -2.251 -10.742  16.274  0.00  0.00    +0.005 A 
ATOM     17  C   UNL     1      -2.151 -10.413  13.505  0.00  0.00    +0.120 A 
ATOM     18  C   UNL     1      -1.196 -10.041  15.693  0.00  0.00    +0.004 A 
ATOM     19  C   UNL     1      -1.146  -9.875  14.309  0.00  0.00    +0.045 A 
BRANCH  17   2
ATOM      2  O   UNL     1      -2.103 -10.253  12.155  0.00  0.00    -0.495 OA
ATOM     20  C   UNL     1      -2.924 -11.116  11.369  0.00  0.00    +0.277 C 
ENDBRANCH  17   2
ENDBRANCH  12  14
ENDBRANCH   4  12
TORSDOF 3
ENDMDL
MODEL 7
REMARK VINA RESULT:      -5.3      2.232      3.290
REMARK  Name = 75537101
REMARK  5 active torsions:
REMARK  status: ('A' for Active; 'I' for Inactive)
REMARK    1  A    between atoms: O_2  and  C_17
REMARK    2  A    between atoms: O_2  and  C_20
REMARK    3  A    between atoms: N_4  and  C_12
REMARK    4  A    between atoms: N_5  and  C_13
REMARK    5  A    between atoms: C_12  and  C_14
REMARK                            x       y       z     vdW  Elec       q    Type
REMARK                         _______ _______ _______ _____ _____    ______ ____
ROOT
ATOM      1  O   UNL     1      13.170  12.591  26.175  0.00  0.00    -0.252 OA
ATOM      3  N   UNL     1      12.518  11.789  24.065  0.00  0.00    -0.278 N 
ATOM      4  N   UNL     1      12.705  11.114  21.341  0.00  0.00    -0.295 NA
ATOM      5  N   UNL     1      11.087  13.101  25.193  0.00  0.00    -0.287 N 
ATOM      6  C   UNL     1      11.318  11.797  23.255  0.00  0.00    +0.109 C 
ATOM      7  C   UNL     1      11.666  12.062  21.791  0.00  0.00    +0.109 C 
ATOM      8  C   UNL     1      10.445  12.867  23.911  0.00  0.00    +0.132 C 
ATOM      9  C   UNL     1      13.658  11.006  23.634  0.00  0.00    +0.125 C 
ATOM     10  C   UNL     1      13.933  11.256  22.149  0.00  0.00    +0.104 C 
ATOM     11  C   UNL     1      12.360  12.501  25.261  0.00  0.00    +0.305 C 
ATOM     13  C   UNL     1      10.511  13.979  26.189  0.00  0.00    +0.133 C 
ENDROOT
BRANCH   4  12
ATOM     12  C   UNL     1      13.002  11.318  19.923  0.00  0.00    +0.119 C 
BRANCH  12  14
ATOM     14  C   UNL     1      12.900  10.037  19.138  0.00  0.00    -0.030 A 
ATOM     15  C   UNL     1      12.499   8.862  19.773  0.00  0.00    +0.050 A 
ATOM     16  C   UNL     1      13.205  10.026  17.777  0.00  0.00    +0.005 A 
ATOM     17  C   UNL     1      12.405   7.674  19.046  0.00  0.00    +0.120 A 
ATOM     18  C   UNL     1      13.111   8.840  17.051  0.00  0.00    +0.004 A 
ATOM     19  C   UNL     1      12.710   7.664  17.685  0.00  0.00    +0.045 A 
BRANCH  17   2
ATOM      2  O   UNL     1      12.015   6.527  19.666  0.00  0.00    -0.495 OA
ATOM     20  C   UNL     1      11.800   6.591  21.074  0.00  0.00    +0.277 C 
ENDBRANCH  17   2
ENDBRANCH  12  14
ENDBRANCH   4  12
TORSDOF 3
ENDMDL
MODEL 8
REMARK VINA RESULT:      -5.2     27.217     28.931
REMARK  Name = 75537101
REMARK  5 active torsions:
REMARK  status: ('A' for Active; 'I' for Inactive)
REMARK    1  A    between atoms: O_2  and  C_17
REMARK    2  A    between atoms: O_2  and  C_20
REMARK    3  A    between atoms: N_4  and  C_12
REMARK    4  A    between atoms: N_5  and  C_13
REMARK    5  A    between atoms: C_12  and  C_14
REMARK                            x       y       z     vdW  Elec       q    Type
REMARK                         _______ _______ _______ _____ _____    ______ ____
ROOT
ATOM      1  O   UNL     1     -12.766  -8.347  13.622  0.00  0.00    -0.252 OA
ATOM      3  N   UNL     1     -10.869  -8.466  15.003  0.00  0.00    -0.278 N 
ATOM      4  N   UNL     1      -9.105  -9.449  16.962  0.00  0.00    -0.295 NA
ATOM      5  N   UNL     1     -11.878  -6.476  14.752  0.00  0.00    -0.287 N 
ATOM      6  C   UNL     1     -10.016  -7.535  15.711  0.00  0.00    +0.109 C 
ATOM      7  C   UNL     1      -9.658  -8.086  17.091  0.00  0.00    +0.109 C 
ATOM      8  C   UNL     1     -10.827  -6.240  15.727  0.00  0.00    +0.132 C 
ATOM      9  C   UNL     1     -10.495  -9.864  14.943  0.00  0.00    +0.125 C 
ATOM     10  C   UNL     1     -10.087 -10.357  16.334  0.00  0.00    +0.104 C 
ATOM     11  C   UNL     1     -11.939  -7.829  14.362  0.00  0.00    +0.305 C 
ATOM     13  C   UNL     1     -12.819  -5.444  14.375  0.00  0.00    +0.133 C 
ENDROOT
BRANCH   4  12
ATOM     12  C   UNL     1      -8.703  -9.962  18.271  0.00  0.00    +0.119 C 
BRANCH  12  14
ATOM     14  C   UNL     1      -7.265 -10.407  18.281  0.00  0.00    -0.030 A 
ATOM     15  C   UNL     1      -6.446 -10.144  17.182  0.00  0.00    +0.050 A 
ATOM     16  C   UNL     1      -6.750 -11.083  19.387  0.00  0.00    +0.005 A 
ATOM     17  C   UNL     1      -5.113 -10.557  17.190  0.00  0.00    +0.120 A 
ATOM     18  C   UNL     1      -5.419 -11.496  19.395  0.00  0.00    +0.004 A 
ATOM     19  C   UNL     1      -4.600 -11.233  18.297  0.00  0.00    +0.045 A 
BRANCH  17   2
ATOM      2  O   UNL     1      -4.316 -10.301  16.118  0.00  0.00    -0.495 OA
ATOM     20  C   UNL     1      -2.950 -10.703  16.214  0.00  0.00    +0.277 C 
ENDBRANCH  17   2
ENDBRANCH  12  14
ENDBRANCH   4  12
TORSDOF 3
ENDMDL
MODEL 9
REMARK VINA RESULT:      -5.1     26.526     28.119
REMARK  Name = 75537101
REMARK  5 active torsions:
REMARK  status: ('A' for Active; 'I' for Inactive)
REMARK    1  A    between atoms: O_2  and  C_17
REMARK    2  A    between atoms: O_2  and  C_20
REMARK    3  A    between atoms: N_4  and  C_12
REMARK    4  A    between atoms: N_5  and  C_13
REMARK    5  A    between atoms: C_12  and  C_14
REMARK                            x       y       z     vdW  Elec       q    Type
REMARK                         _______ _______ _______ _____ _____    ______ ____
ROOT
ATOM      1  O   UNL     1     -10.895 -11.888  17.879  0.00  0.00    -0.252 OA
ATOM      3  N   UNL     1      -8.828 -11.130  17.058  0.00  0.00    -0.278 N 
ATOM      4  N   UNL     1      -6.037 -10.872  16.809  0.00  0.00    -0.295 NA
ATOM      5  N   UNL     1     -10.452  -9.620  17.408  0.00  0.00    -0.287 N 
ATOM      6  C   UNL     1      -8.279  -9.886  16.561  0.00  0.00    +0.109 C 
ATOM      7  C   UNL     1      -6.861  -9.679  17.093  0.00  0.00    +0.109 C 
ATOM      8  C   UNL     1      -9.294  -8.836  17.012  0.00  0.00    +0.132 C 
ATOM      9  C   UNL     1      -8.037 -12.340  16.966  0.00  0.00    +0.125 C 
ATOM     10  C   UNL     1      -6.610 -12.072  17.452  0.00  0.00    +0.104 C 
ATOM     11  C   UNL     1     -10.153 -10.994  17.493  0.00  0.00    +0.305 C 
ATOM     13  C   UNL     1     -11.697  -8.999  17.805  0.00  0.00    +0.133 C 
ENDROOT
BRANCH   4  12
ATOM     12  C   UNL     1      -4.662 -10.660  17.260  0.00  0.00    +0.119 C 
BRANCH  12  14
ATOM     14  C   UNL     1      -3.691 -10.645  16.109  0.00  0.00    -0.030 A 
ATOM     15  C   UNL     1      -4.165 -10.631  14.798  0.00  0.00    +0.050 A 
ATOM     16  C   UNL     1      -2.318 -10.645  16.355  0.00  0.00    +0.005 A 
ATOM     17  C   UNL     1      -3.265 -10.618  13.731  0.00  0.00    +0.120 A 
ATOM     18  C   UNL     1      -1.419 -10.632  15.289  0.00  0.00    +0.004 A 
ATOM     19  C   UNL     1      -1.892 -10.619  13.978  0.00  0.00    +0.045 A 
BRANCH  17   2
ATOM      2  O   UNL     1      -3.728 -10.607  12.451  0.00  0.00    -0.495 OA
ATOM     20  C   UNL     1      -2.761 -10.734  11.410  0.00  0.00    +0.277 C 
ENDBRANCH  17   2
ENDBRANCH  12  14
ENDBRANCH   4  12
TORSDOF 3
ENDMDL
MODEL 10
REMARK VINA RESULT:      -5.1     25.888     27.943
REMARK  Name = 75537101
REMARK  5 active torsions:
REMARK  status: ('A' for Active; 'I' for Inactive)
REMARK    1  A    between atoms: O_2  and  C_17
REMARK    2  A    between atoms: O_2  and  C_20
REMARK    3  A    between atoms: N_4  and  C_12
REMARK    4  A    between atoms: N_5  and  C_13
REMARK    5  A    between atoms: C_12  and  C_14
REMARK                            x       y       z     vdW  Elec       q    Type
REMARK                         _______ _______ _______ _____ _____    ______ ____
ROOT
ATOM      1  O   UNL     1      -1.540 -10.084  11.089  0.00  0.00    -0.252 OA
ATOM      3  N   UNL     1      -2.932 -10.297  12.970  0.00  0.00    -0.278 N 
ATOM      4  N   UNL     1      -3.849 -11.214  15.466  0.00  0.00    -0.295 NA
ATOM      5  N   UNL     1      -3.887 -10.259  10.939  0.00  0.00    -0.287 N 
ATOM      6  C   UNL     1      -4.354 -10.297  13.239  0.00  0.00    +0.109 C 
ATOM      7  C   UNL     1      -4.701 -11.370  14.270  0.00  0.00    +0.109 C 
ATOM      8  C   UNL     1      -4.983 -10.502  11.861  0.00  0.00    +0.132 C 
ATOM      9  C   UNL     1      -2.001 -10.296  14.080  0.00  0.00    +0.125 C 
ATOM     10  C   UNL     1      -2.420 -11.344  15.115  0.00  0.00    +0.104 C 
ATOM     11  C   UNL     1      -2.646 -10.195  11.602  0.00  0.00    +0.305 C 
ATOM     13  C   UNL     1      -4.082 -10.244   9.505  0.00  0.00    +0.133 C 
ENDROOT
BRANCH   4  12
ATOM     12  C   UNL     1      -4.215 -12.199  16.484  0.00  0.00    +0.119 C 
BRANCH  12  14
ATOM     14  C   UNL     1      -5.087 -11.601  17.555  0.00  0.00    -0.030 A 
ATOM     15  C   UNL     1      -6.068 -10.669  17.216  0.00  0.00    +0.050 A 
ATOM     16  C   UNL     1      -4.914 -11.977  18.887  0.00  0.00    +0.005 A 
ATOM     17  C   UNL     1      -6.877 -10.113  18.208  0.00  0.00    +0.120 A 
ATOM     18  C   UNL     1      -5.722 -11.422  19.879  0.00  0.00    +0.004 A 
ATOM     19  C   UNL     1      -6.703 -10.491  19.540  0.00  0.00    +0.045 A 
BRANCH  17   2
ATOM      2  O   UNL     1      -7.832  -9.204  17.877  0.00  0.00    -0.495 OA
ATOM     20  C   UNL     1      -8.784  -9.593  16.887  0.00  0.00    +0.277 C 
ENDBRANCH  17   2
ENDBRANCH  12  14
ENDBRANCH   4  12
TORSDOF 3
ENDMDL
