REMARK  Name = 51138156
REMARK  11 active torsions:
REMARK  status: ('A' for Active; 'I' for Inactive)
REMARK    1  A    between atoms: N_5  and  C_21
REMARK    2  A    between atoms: N_6  and  C_26
REMARK    3  A    between atoms: C_8  and  C_12
REMARK    4  A    between atoms: C_11  and  C_19
REMARK    5  A    between atoms: C_12  and  C_16
REMARK    6  A    between atoms: C_16  and  C_23
REMARK    7  A    between atoms: C_16  and  C_24
REMARK    8  A    between atoms: C_21  and  C_25
REMARK    9  A    between atoms: C_26  and  C_28
REMARK   10  A    between atoms: C_29  and  C_31
REMARK   11  A    between atoms: C_32  and  C_34
REMARK                            x       y       z     vdW  Elec       q    Type
REMARK                         _______ _______ _______ _____ _____    ______ ____
ROOT
ATOM      4  N   UNL     1      -1.285  -0.289  -0.079  0.00  0.00    -0.299 NA
ATOM      5  N   UNL     1       3.521   0.734   1.089  0.00  0.00    -0.340 N 
ATOM      8  C   UNL     1      -0.721  -1.549   0.425  0.00  0.00    +0.085 C 
ATOM      9  C   UNL     1       0.790  -1.551   0.680  0.00  0.00    -0.021 A 
ATOM     10  C   UNL     1       1.604  -0.388   0.794  0.00  0.00    +0.008 A 
ATOM     11  C   UNL     1      -1.178   0.836   0.839  0.00  0.00    +0.145 C 
ATOM     13  C   UNL     1       1.343   1.025   0.735  0.00  0.00    -0.020 A 
ATOM     14  C   UNL     1       0.034   1.708   0.519  0.00  0.00    +0.065 C 
ATOM     15  C   UNL     1       2.975  -0.527   1.042  0.00  0.00    +0.050 A 
ATOM     17  C   UNL     1       2.549   1.674   0.912  0.00  0.00    +0.091 A 
ATOM     18  C   UNL     1       1.439  -2.793   0.898  0.00  0.00    +0.006 A 
ATOM     20  C   UNL     1       3.604  -1.762   1.208  0.00  0.00    +0.026 A 
ATOM     22  C   UNL     1       2.807  -2.897   1.144  0.00  0.00    +0.002 A 
ATOM     35  H   UNL     1      -0.897  -0.057  -0.993  0.00  0.00    +0.123 HD
ENDROOT
BRANCH  11  19
ATOM      1  O   UNL     1      -2.482   2.546  -0.195  0.00  0.00    -0.274 OA
ATOM      6  N   UNL     1      -3.454   1.236   1.466  0.00  0.00    -0.307 N 
ATOM     19  C   UNL     1      -2.427   1.635   0.627  0.00  0.00    +0.231 C 
ATOM     36  H   UNL     1      -3.308   0.451   2.094  0.00  0.00    +0.149 HD
BRANCH   6  26
ATOM     26  C   UNL     1      -4.756   1.862   1.475  0.00  0.00    +0.178 C 
BRANCH  26  28
ATOM      3  O   UNL     1      -5.547   1.416  -0.779  0.00  0.00    -0.463 OA
ATOM     28  C   UNL     1      -5.717   1.176   0.547  0.00  0.00    +0.122 A 
ATOM     30  C   UNL     1      -6.776   0.323   0.752  0.00  0.00    +0.046 A 
ATOM     32  C   UNL     1      -6.508   0.708  -1.429  0.00  0.00    +0.102 A 
ATOM     33  C   UNL     1      -7.290   0.019  -0.531  0.00  0.00    +0.045 A 
ATOM     34  C   UNL     1      -6.517   0.818  -2.894  0.00  0.00    +0.086 C 
ENDBRANCH  26  28
ENDBRANCH   6  26
ENDBRANCH  11  19
BRANCH   8  12
ATOM     12  C   UNL     1      -1.147  -2.607  -0.608  0.00  0.00    +0.026 C 
BRANCH  12  16
ATOM     16  C   UNL     1      -2.617  -3.017  -0.472  0.00  0.00    -0.015 C 
ATOM     23  C   UNL     1      -3.576  -1.841  -0.657  0.00  0.00    +0.007 C 
ATOM     24  C   UNL     1      -2.933  -4.109  -1.498  0.00  0.00    +0.007 C 
ENDBRANCH  12  16
ENDBRANCH   8  12
BRANCH   5  21
ATOM     21  C   UNL     1       4.917   1.040   1.314  0.00  0.00    +0.180 C 
BRANCH  21  25
ATOM      2  O   UNL     1       7.376   0.098  -1.152  0.00  0.00    -0.360 OA
ATOM      7  N   UNL     1       6.820   0.030   0.120  0.00  0.00    -0.081 NA
ATOM     25  C   UNL     1       5.774   0.859   0.085  0.00  0.00    +0.103 A 
ATOM     27  C   UNL     1       5.621   1.473  -1.170  0.00  0.00    +0.072 A 
ATOM     29  C   UNL     1       6.653   0.961  -1.911  0.00  0.00    +0.135 A 
ATOM     31  C   UNL     1       7.104   1.153  -3.294  0.00  0.00    +0.089 C 
ENDBRANCH  21  25
ENDBRANCH   5  21
TORSDOF 7
