REMARK  Name = 11882969
REMARK  10 active torsions:
REMARK  status: ('A' for Active; 'I' for Inactive)
REMARK    1  A    between atoms: O_2  and  C_14
REMARK    2  A    between atoms: O_3  and  C_19
REMARK    3  A    between atoms: N_8  and  C_27
REMARK    4  A    between atoms: C_9  and  C_17
REMARK    5  A    between atoms: C_11  and  C_19
REMARK    6  A    between atoms: C_11  and  C_20
REMARK    7  A    between atoms: C_12  and  C_22
REMARK    8  A    between atoms: C_22  and  C_23
REMARK    9  A    between atoms: C_25  and  C_26
REMARK   10  A    between atoms: C_27  and  C_33
REMARK                            x       y       z     vdW  Elec       q    Type
REMARK                         _______ _______ _______ _____ _____    ______ ____
ROOT
ATOM      1  S   UNL     1      -0.016  -2.859   0.505  0.00  0.00    -0.057 S 
ATOM      5  O   UNL     1      -3.744  -0.069   0.177  0.00  0.00    -0.275 OA
ATOM      6  N   UNL     1      -0.789  -0.414   0.160  0.00  0.00    -0.229 NA
ATOM      7  N   UNL     1      -2.516  -2.071   0.448  0.00  0.00    -0.264 N 
ATOM      9  C   UNL     1       2.915   0.644   0.321  0.00  0.00    -0.019 C 
ATOM     10  C   UNL     1       3.417  -0.733  -0.302  0.00  0.00    +0.011 C 
ATOM     11  C   UNL     1       4.976  -0.955  -0.384  0.00  0.00    +0.021 C 
ATOM     12  C   UNL     1       1.384   0.842  -0.091  0.00  0.00    +0.054 C 
ATOM     13  C   UNL     1       3.738   1.813  -0.280  0.00  0.00    +0.010 C 
ATOM     14  C   UNL     1       5.647   0.323  -0.963  0.00  0.00    +0.123 C 
ATOM     15  C   UNL     1       2.641  -1.943   0.293  0.00  0.00    +0.049 C 
ATOM     16  C   UNL     1       5.244   1.597  -0.229  0.00  0.00    +0.032 C 
ATOM     17  C   UNL     1       3.043   0.688   1.863  0.00  0.00    +0.012 C 
ATOM     18  C   UNL     1       0.593  -0.420   0.138  0.00  0.00    +0.058 A 
ATOM     20  C   UNL     1       5.271  -2.120  -1.371  0.00  0.00    +0.016 C 
ATOM     21  C   UNL     1       1.176  -1.662   0.290  0.00  0.00    +0.015 A 
ATOM     24  C   UNL     1      -1.219  -1.642   0.354  0.00  0.00    +0.165 A 
ATOM     26  C   UNL     1      -3.674  -1.280   0.357  0.00  0.00    +0.222 C 
ATOM     37  H   UNL     1      -2.623  -3.071   0.594  0.00  0.00    +0.157 HD
ENDROOT
BRANCH  26  25
ATOM     25  C   UNL     1      -4.921  -2.102   0.506  0.00  0.00    +0.075 C 
ATOM     28  C   UNL     1      -6.032  -1.298   1.184  0.00  0.00    +0.013 C 
ATOM     29  C   UNL     1      -5.345  -2.668  -0.851  0.00  0.00    +0.013 C 
ATOM     30  C   UNL     1      -6.699  -0.281   0.258  0.00  0.00    +0.001 C 
ATOM     31  C   UNL     1      -6.003  -1.627  -1.755  0.00  0.00    +0.001 C 
ATOM     32  C   UNL     1      -7.154  -0.917  -1.050  0.00  0.00    +0.000 C 
ENDBRANCH  26  25
BRANCH  14   2
ATOM      2  O   UNL     1       7.069   0.204  -0.929  0.00  0.00    -0.391 OA
ATOM     35  H   UNL     1       7.441   1.002  -1.341  0.00  0.00    +0.210 HD
ENDBRANCH  14   2
BRANCH  11  19
ATOM     19  C   UNL     1       5.635  -1.366   0.951  0.00  0.00    +0.165 C 
BRANCH  19   3
ATOM      3  O   UNL     1       7.015  -1.537   0.717  0.00  0.00    -0.394 OA
ATOM     36  H   UNL     1       7.421  -1.805   1.559  0.00  0.00    +0.209 HD
ENDBRANCH  19   3
ENDBRANCH  11  19
BRANCH  12  22
ATOM     22  C   UNL     1       0.702   2.057   0.554  0.00  0.00    +0.106 C 
BRANCH  22  23
ATOM      4  O   UNL     1      -0.774   2.089  -1.363  0.00  0.00    -0.276 OA
ATOM      8  N   UNL     1      -1.048   3.666   0.322  0.00  0.00    -0.304 N 
ATOM     23  C   UNL     1      -0.442   2.577  -0.286  0.00  0.00    +0.214 C 
ATOM     38  H   UNL     1      -0.708   3.983   1.225  0.00  0.00    +0.150 HD
BRANCH   8  27
ATOM     27  C   UNL     1      -2.170   4.370  -0.256  0.00  0.00    +0.193 C 
BRANCH  27  33
ATOM     33  C   UNL     1      -3.439   3.786   0.178  0.00  0.00    -0.087 C 
ATOM     34  C   UNL     1      -4.483   3.310   0.532  0.00  0.00    +0.005 C 
ENDBRANCH  27  33
ENDBRANCH   8  27
ENDBRANCH  22  23
ENDBRANCH  12  22
TORSDOF 8
