MODEL 1
REMARK VINA RESULT:      -7.1      0.000      0.000
REMARK  Name = 11887318
REMARK  8 active torsions:
REMARK  status: ('A' for Active; 'I' for Inactive)
REMARK    1  A    between atoms: O_4  and  C_26
REMARK    2  A    between atoms: O_4  and  C_33
REMARK    3  A    between atoms: O_5  and  C_31
REMARK    4  A    between atoms: N_7  and  C_14
REMARK    5  A    between atoms: N_8  and  C_15
REMARK    6  A    between atoms: C_18  and  C_20
REMARK    7  A    between atoms: C_19  and  C_21
REMARK    8  A    between atoms: C_24  and  C_31
REMARK                            x       y       z     vdW  Elec       q    Type
REMARK                         _______ _______ _______ _____ _____    ______ ____
ROOT
ATOM      1  O   UNL     1       9.415   7.752   0.775  0.00  0.00    -0.370 OA
ATOM      2  O   UNL     1      12.329   7.363   1.893  0.00  0.00    -0.370 OA
ATOM     12  C   UNL     1      11.338   6.468   1.356  0.00  0.00    +0.176 C 
ATOM     13  C   UNL     1       9.985   6.960   1.830  0.00  0.00    +0.171 C 
ATOM     14  C   UNL     1      11.289   6.600  -0.155  0.00  0.00    +0.168 C 
ATOM     15  C   UNL     1      10.302   7.831   3.025  0.00  0.00    +0.130 C 
ATOM     16  C   UNL     1      10.282   7.724  -0.368  0.00  0.00    +0.190 C 
ATOM     17  C   UNL     1      11.675   8.372   2.676  0.00  0.00    +0.185 C 
ENDROOT
BRANCH  14   7
ATOM      7  N   UNL     1      10.959   5.336  -0.819  0.00  0.00    -0.217 N 
ATOM      9  N   UNL     1       9.817   5.207  -1.503  0.00  0.00    -0.043 NA
ATOM     10  N   UNL     1      10.986   3.310  -1.572  0.00  0.00    -0.108 NA
ATOM     11  N   UNL     1       9.839   3.963  -1.963  0.00  0.00    -0.023 NA
ATOM     18  C   UNL     1      11.666   4.182  -0.863  0.00  0.00    +0.182 A 
BRANCH  18  20
ATOM     20  C   UNL     1      12.943   3.977  -0.230  0.00  0.00    +0.024 A 
ATOM     22  C   UNL     1      14.122   4.199  -0.943  0.00  0.00    +0.057 A 
ATOM     23  C   UNL     1      13.003   3.553   1.099  0.00  0.00    +0.012 A 
ATOM     26  C   UNL     1      15.359   4.000  -0.328  0.00  0.00    +0.121 A 
ATOM     27  C   UNL     1      14.240   3.355   1.714  0.00  0.00    +0.004 A 
ATOM     30  C   UNL     1      15.417   3.578   1.000  0.00  0.00    +0.045 A 
BRANCH  26   4
ATOM      4  O   UNL     1      16.508   4.219  -1.024  0.00  0.00    -0.495 OA
ATOM     33  C   UNL     1      16.425   5.076  -2.161  0.00  0.00    +0.277 C 
ENDBRANCH  26   4
ENDBRANCH  18  20
ENDBRANCH  14   7
BRANCH  15   8
ATOM      3  O   UNL     1       8.043   6.866   4.512  0.00  0.00    -0.270 OA
ATOM      8  N   UNL     1      10.338   7.055   4.240  0.00  0.00    -0.304 N 
ATOM     19  C   UNL     1       9.188   6.633   4.890  0.00  0.00    +0.245 C 
ATOM     34  H   UNL     1      11.243   6.781   4.613  0.00  0.00    +0.149 HD
BRANCH  19  21
ATOM     21  C   UNL     1       9.394   5.865   6.146  0.00  0.00    +0.051 A 
ATOM     24  C   UNL     1       9.188   6.467   7.372  0.00  0.00    +0.071 A 
ATOM     25  C   UNL     1       9.793   4.548   6.035  0.00  0.00    +0.014 A 
ATOM     28  C   UNL     1       9.390   5.722   8.533  0.00  0.00    +0.016 A 
ATOM     29  C   UNL     1       9.995   3.802   7.196  0.00  0.00    +0.001 A 
ATOM     32  C   UNL     1       9.793   4.389   8.445  0.00  0.00    +0.001 A 
BRANCH  24  31
ATOM      6  O   UNL     1       9.425   8.755   8.030  0.00  0.00    -0.245 OA
ATOM     31  C   UNL     1       8.768   7.857   7.497  0.00  0.00    +0.338 C 
BRANCH  31   5
ATOM      5  O   UNL     1       7.543   8.079   6.949  0.00  0.00    -0.477 OA
ATOM     35  H   UNL     1       7.454   8.996   6.616  0.00  0.00    +0.295 HD
ENDBRANCH  31   5
ENDBRANCH  24  31
ENDBRANCH  19  21
ENDBRANCH  15   8
TORSDOF 7
ENDMDL
MODEL 2
REMARK VINA RESULT:      -7.0      1.445      2.172
REMARK  Name = 11887318
REMARK  8 active torsions:
REMARK  status: ('A' for Active; 'I' for Inactive)
REMARK    1  A    between atoms: O_4  and  C_26
REMARK    2  A    between atoms: O_4  and  C_33
REMARK    3  A    between atoms: O_5  and  C_31
REMARK    4  A    between atoms: N_7  and  C_14
REMARK    5  A    between atoms: N_8  and  C_15
REMARK    6  A    between atoms: C_18  and  C_20
REMARK    7  A    between atoms: C_19  and  C_21
REMARK    8  A    between atoms: C_24  and  C_31
REMARK                            x       y       z     vdW  Elec       q    Type
REMARK                         _______ _______ _______ _____ _____    ______ ____
ROOT
ATOM      1  O   UNL     1       9.353   7.516  -0.576  0.00  0.00    -0.370 OA
ATOM      2  O   UNL     1      12.226   7.521   0.704  0.00  0.00    -0.370 OA
ATOM     12  C   UNL     1      11.295   6.484   0.344  0.00  0.00    +0.176 C 
ATOM     13  C   UNL     1       9.904   7.005   0.648  0.00  0.00    +0.171 C 
ATOM     14  C   UNL     1      11.309   6.276  -1.159  0.00  0.00    +0.168 C 
ATOM     15  C   UNL     1      10.133   8.132   1.630  0.00  0.00    +0.130 C 
ATOM     16  C   UNL     1      10.270   7.276  -1.652  0.00  0.00    +0.190 C 
ATOM     17  C   UNL     1      11.499   8.646   1.218  0.00  0.00    +0.185 C 
ENDROOT
BRANCH  14   7
ATOM      7  N   UNL     1      11.057   4.883  -1.536  0.00  0.00    -0.217 N 
ATOM      9  N   UNL     1       9.982   4.559  -2.261  0.00  0.00    -0.043 NA
ATOM     10  N   UNL     1      11.182   2.740  -1.793  0.00  0.00    -0.108 NA
ATOM     11  N   UNL     1      10.063   3.245  -2.417  0.00  0.00    -0.023 NA
ATOM     18  C   UNL     1      11.784   3.775  -1.254  0.00  0.00    +0.182 A 
BRANCH  18  20
ATOM     20  C   UNL     1      13.004   3.766  -0.489  0.00  0.00    +0.024 A 
ATOM     22  C   UNL     1      14.205   4.160  -1.082  0.00  0.00    +0.057 A 
ATOM     23  C   UNL     1      12.988   3.361   0.847  0.00  0.00    +0.012 A 
ATOM     26  C   UNL     1      15.386   4.152  -0.340  0.00  0.00    +0.121 A 
ATOM     27  C   UNL     1      14.170   3.353   1.589  0.00  0.00    +0.004 A 
ATOM     30  C   UNL     1      15.368   3.748   0.995  0.00  0.00    +0.045 A 
BRANCH  26   4
ATOM      4  O   UNL     1      16.556   4.538  -0.918  0.00  0.00    -0.495 OA
ATOM     33  C   UNL     1      16.547   4.741  -2.330  0.00  0.00    +0.277 C 
ENDBRANCH  26   4
ENDBRANCH  18  20
ENDBRANCH  14   7
BRANCH  15   8
ATOM      3  O   UNL     1       7.886   7.967   3.411  0.00  0.00    -0.270 OA
ATOM      8  N   UNL     1      10.144   7.646   2.988  0.00  0.00    -0.304 N 
ATOM     19  C   UNL     1       9.002   7.606   3.775  0.00  0.00    +0.245 C 
ATOM     34  H   UNL     1      11.017   7.290   3.368  0.00  0.00    +0.149 HD
BRANCH  19  21
ATOM     21  C   UNL     1       9.185   7.104   5.161  0.00  0.00    +0.051 A 
ATOM     24  C   UNL     1      10.039   6.049   5.413  0.00  0.00    +0.071 A 
ATOM     25  C   UNL     1       8.477   7.730   6.169  0.00  0.00    +0.014 A 
ATOM     28  C   UNL     1      10.190   5.600   6.725  0.00  0.00    +0.016 A 
ATOM     29  C   UNL     1       8.629   7.281   7.481  0.00  0.00    +0.001 A 
ATOM     32  C   UNL     1       9.486   6.216   7.758  0.00  0.00    +0.001 A 
BRANCH  24  31
ATOM      6  O   UNL     1      10.359   4.472   3.642  0.00  0.00    -0.245 OA
ATOM     31  C   UNL     1      10.789   5.383   4.356  0.00  0.00    +0.338 C 
BRANCH  31   5
ATOM      5  O   UNL     1      12.048   5.880   4.222  0.00  0.00    -0.477 OA
ATOM     35  H   UNL     1      12.201   6.250   3.327  0.00  0.00    +0.295 HD
ENDBRANCH  31   5
ENDBRANCH  24  31
ENDBRANCH  19  21
ENDBRANCH  15   8
TORSDOF 7
ENDMDL
MODEL 3
REMARK VINA RESULT:      -7.0     23.433     26.331
REMARK  Name = 11887318
REMARK  8 active torsions:
REMARK  status: ('A' for Active; 'I' for Inactive)
REMARK    1  A    between atoms: O_4  and  C_26
REMARK    2  A    between atoms: O_4  and  C_33
REMARK    3  A    between atoms: O_5  and  C_31
REMARK    4  A    between atoms: N_7  and  C_14
REMARK    5  A    between atoms: N_8  and  C_15
REMARK    6  A    between atoms: C_18  and  C_20
REMARK    7  A    between atoms: C_19  and  C_21
REMARK    8  A    between atoms: C_24  and  C_31
REMARK                            x       y       z     vdW  Elec       q    Type
REMARK                         _______ _______ _______ _____ _____    ______ ____
ROOT
ATOM      1  O   UNL     1      -2.968 -13.771  12.994  0.00  0.00    -0.370 OA
ATOM      2  O   UNL     1      -5.896 -12.693  12.593  0.00  0.00    -0.370 OA
ATOM     12  C   UNL     1      -4.616 -12.061  12.781  0.00  0.00    +0.176 C 
ATOM     13  C   UNL     1      -3.833 -12.916  13.758  0.00  0.00    +0.171 C 
ATOM     14  C   UNL     1      -3.818 -12.120  11.492  0.00  0.00    +0.168 C 
ATOM     15  C   UNL     1      -4.889 -13.737  14.466  0.00  0.00    +0.130 C 
ATOM     16  C   UNL     1      -3.091 -13.455  11.600  0.00  0.00    +0.190 C 
ATOM     17  C   UNL     1      -5.957 -13.878  13.399  0.00  0.00    +0.185 C 
ENDROOT
BRANCH  14   7
ATOM      7  N   UNL     1      -2.948 -10.953  11.316  0.00  0.00    -0.217 N 
ATOM      9  N   UNL     1      -1.752 -10.901  11.911  0.00  0.00    -0.043 NA
ATOM     10  N   UNL     1      -2.113  -9.049  10.725  0.00  0.00    -0.108 NA
ATOM     11  N   UNL     1      -1.244  -9.732  11.546  0.00  0.00    -0.023 NA
ATOM     18  C   UNL     1      -3.164  -9.826  10.596  0.00  0.00    +0.182 A 
BRANCH  18  20
ATOM     20  C   UNL     1      -4.354  -9.555   9.832  0.00  0.00    +0.024 A 
ATOM     22  C   UNL     1      -4.456 -10.004   8.514  0.00  0.00    +0.057 A 
ATOM     23  C   UNL     1      -5.406  -8.841  10.407  0.00  0.00    +0.012 A 
ATOM     26  C   UNL     1      -5.610  -9.742   7.774  0.00  0.00    +0.121 A 
ATOM     27  C   UNL     1      -6.560  -8.579   9.667  0.00  0.00    +0.004 A 
ATOM     30  C   UNL     1      -6.661  -9.029   8.351  0.00  0.00    +0.045 A 
BRANCH  26   4
ATOM      4  O   UNL     1      -5.709 -10.181   6.490  0.00  0.00    -0.495 OA
ATOM     33  C   UNL     1      -6.603  -9.478   5.630  0.00  0.00    +0.277 C 
ENDBRANCH  26   4
ENDBRANCH  18  20
ENDBRANCH  14   7
BRANCH  15   8
ATOM      3  O   UNL     1      -5.009 -14.749  17.151  0.00  0.00    -0.270 OA
ATOM      8  N   UNL     1      -5.396 -13.045  15.625  0.00  0.00    -0.304 N 
ATOM     19  C   UNL     1      -5.414 -13.619  16.888  0.00  0.00    +0.245 C 
ATOM     34  H   UNL     1      -5.721 -12.088  15.515  0.00  0.00    +0.149 HD
BRANCH  19  21
ATOM     21  C   UNL     1      -5.994 -12.787  17.973  0.00  0.00    +0.051 A 
ATOM     24  C   UNL     1      -5.209 -11.868  18.642  0.00  0.00    +0.071 A 
ATOM     25  C   UNL     1      -7.330 -12.968  18.277  0.00  0.00    +0.014 A 
ATOM     28  C   UNL     1      -5.782 -11.101  19.656  0.00  0.00    +0.016 A 
ATOM     29  C   UNL     1      -7.902 -12.201  19.291  0.00  0.00    +0.001 A 
ATOM     32  C   UNL     1      -7.128 -11.267  19.980  0.00  0.00    +0.001 A 
BRANCH  24  31
ATOM      6  O   UNL     1      -3.363 -11.212  17.269  0.00  0.00    -0.245 OA
ATOM     31  C   UNL     1      -3.800 -11.672  18.327  0.00  0.00    +0.338 C 
BRANCH  31   5
ATOM      5  O   UNL     1      -2.984 -12.053  19.347  0.00  0.00    -0.477 OA
ATOM     35  H   UNL     1      -2.042 -11.867  19.149  0.00  0.00    +0.295 HD
ENDBRANCH  31   5
ENDBRANCH  24  31
ENDBRANCH  19  21
ENDBRANCH  15   8
TORSDOF 7
ENDMDL
MODEL 4
REMARK VINA RESULT:      -6.8     37.920     39.813
REMARK  Name = 11887318
REMARK  8 active torsions:
REMARK  status: ('A' for Active; 'I' for Inactive)
REMARK    1  A    between atoms: O_4  and  C_26
REMARK    2  A    between atoms: O_4  and  C_33
REMARK    3  A    between atoms: O_5  and  C_31
REMARK    4  A    between atoms: N_7  and  C_14
REMARK    5  A    between atoms: N_8  and  C_15
REMARK    6  A    between atoms: C_18  and  C_20
REMARK    7  A    between atoms: C_19  and  C_21
REMARK    8  A    between atoms: C_24  and  C_31
REMARK                            x       y       z     vdW  Elec       q    Type
REMARK                         _______ _______ _______ _____ _____    ______ ____
ROOT
ATOM      1  O   UNL     1     -16.593   5.170  34.018  0.00  0.00    -0.370 OA
ATOM      2  O   UNL     1     -15.260   6.371  31.434  0.00  0.00    -0.370 OA
ATOM     12  C   UNL     1     -15.007   5.204  32.237  0.00  0.00    +0.176 C 
ATOM     13  C   UNL     1     -15.261   5.590  33.682  0.00  0.00    +0.171 C 
ATOM     14  C   UNL     1     -16.043   4.137  31.936  0.00  0.00    +0.168 C 
ATOM     15  C   UNL     1     -15.170   7.100  33.686  0.00  0.00    +0.130 C 
ATOM     16  C   UNL     1     -17.170   4.469  32.908  0.00  0.00    +0.190 C 
ATOM     17  C   UNL     1     -15.645   7.456  32.291  0.00  0.00    +0.185 C 
ENDROOT
BRANCH  14   7
ATOM      7  N   UNL     1     -15.502   2.780  32.055  0.00  0.00    -0.217 N 
ATOM      9  N   UNL     1     -15.039   2.334  33.227  0.00  0.00    -0.043 NA
ATOM     10  N   UNL     1     -14.840   0.760  31.660  0.00  0.00    -0.108 NA
ATOM     11  N   UNL     1     -14.634   1.095  32.980  0.00  0.00    -0.023 NA
ATOM     18  C   UNL     1     -15.380   1.821  31.106  0.00  0.00    +0.182 A 
BRANCH  18  20
ATOM     20  C   UNL     1     -15.781   1.971  29.731  0.00  0.00    +0.024 A 
ATOM     22  C   UNL     1     -16.534   0.974  29.109  0.00  0.00    +0.057 A 
ATOM     23  C   UNL     1     -15.416   3.114  29.017  0.00  0.00    +0.012 A 
ATOM     26  C   UNL     1     -16.924   1.120  27.777  0.00  0.00    +0.121 A 
ATOM     27  C   UNL     1     -15.805   3.260  27.685  0.00  0.00    +0.004 A 
ATOM     30  C   UNL     1     -16.559   2.263  27.066  0.00  0.00    +0.045 A 
BRANCH  26   4
ATOM      4  O   UNL     1     -17.660   0.148  27.173  0.00  0.00    -0.495 OA
ATOM     33  C   UNL     1     -19.075   0.323  27.152  0.00  0.00    +0.277 C 
ENDBRANCH  26   4
ENDBRANCH  18  20
ENDBRANCH  14   7
BRANCH  15   8
ATOM      3  O   UNL     1     -14.336   9.693  34.595  0.00  0.00    -0.270 OA
ATOM      8  N   UNL     1     -13.814   7.540  33.906  0.00  0.00    -0.304 N 
ATOM     19  C   UNL     1     -13.508   8.819  34.348  0.00  0.00    +0.245 C 
ATOM     34  H   UNL     1     -13.060   6.875  33.762  0.00  0.00    +0.149 HD
BRANCH  19  21
ATOM     21  C   UNL     1     -12.062   9.127  34.498  0.00  0.00    +0.051 A 
ATOM     24  C   UNL     1     -11.444   8.984  35.724  0.00  0.00    +0.071 A 
ATOM     25  C   UNL     1     -11.376   9.553  33.377  0.00  0.00    +0.014 A 
ATOM     28  C   UNL     1     -10.086   9.280  35.835  0.00  0.00    +0.016 A 
ATOM     29  C   UNL     1     -10.018   9.849  33.488  0.00  0.00    +0.001 A 
ATOM     32  C   UNL     1      -9.373   9.712  34.717  0.00  0.00    +0.001 A 
BRANCH  24  31
ATOM      6  O   UNL     1     -12.746   9.272  37.711  0.00  0.00    -0.245 OA
ATOM     31  C   UNL     1     -12.161   8.536  36.911  0.00  0.00    +0.338 C 
BRANCH  31   5
ATOM      5  O   UNL     1     -12.127   7.184  37.057  0.00  0.00    -0.477 OA
ATOM     35  H   UNL     1     -11.413   6.901  37.667  0.00  0.00    +0.295 HD
ENDBRANCH  31   5
ENDBRANCH  24  31
ENDBRANCH  19  21
ENDBRANCH  15   8
TORSDOF 7
ENDMDL
MODEL 5
REMARK VINA RESULT:      -6.8      4.882      7.893
REMARK  Name = 11887318
REMARK  8 active torsions:
REMARK  status: ('A' for Active; 'I' for Inactive)
REMARK    1  A    between atoms: O_4  and  C_26
REMARK    2  A    between atoms: O_4  and  C_33
REMARK    3  A    between atoms: O_5  and  C_31
REMARK    4  A    between atoms: N_7  and  C_14
REMARK    5  A    between atoms: N_8  and  C_15
REMARK    6  A    between atoms: C_18  and  C_20
REMARK    7  A    between atoms: C_19  and  C_21
REMARK    8  A    between atoms: C_24  and  C_31
REMARK                            x       y       z     vdW  Elec       q    Type
REMARK                         _______ _______ _______ _____ _____    ______ ____
ROOT
ATOM      1  O   UNL     1      12.863   9.698   7.258  0.00  0.00    -0.370 OA
ATOM      2  O   UNL     1      13.682   9.230   4.257  0.00  0.00    -0.370 OA
ATOM     12  C   UNL     1      13.300   8.356   5.336  0.00  0.00    +0.176 C 
ATOM     13  C   UNL     1      13.890   8.932   6.609  0.00  0.00    +0.171 C 
ATOM     14  C   UNL     1      11.799   8.420   5.544  0.00  0.00    +0.168 C 
ATOM     15  C   UNL     1      14.998   9.842   6.129  0.00  0.00    +0.130 C 
ATOM     16  C   UNL     1      11.637   9.577   6.522  0.00  0.00    +0.190 C 
ATOM     17  C   UNL     1      14.478  10.303   4.781  0.00  0.00    +0.185 C 
ENDROOT
BRANCH  14   7
ATOM      7  N   UNL     1      11.239   7.143   5.995  0.00  0.00    -0.217 N 
ATOM      9  N   UNL     1      11.121   6.877   7.300  0.00  0.00    -0.043 NA
ATOM     10  N   UNL     1      10.375   5.164   6.085  0.00  0.00    -0.108 NA
ATOM     11  N   UNL     1      10.590   5.662   7.350  0.00  0.00    -0.023 NA
ATOM     18  C   UNL     1      10.784   6.100   5.260  0.00  0.00    +0.182 A 
BRANCH  18  20
ATOM     20  C   UNL     1      10.768   6.055   3.821  0.00  0.00    +0.024 A 
ATOM     22  C   UNL     1      11.747   5.338   3.132  0.00  0.00    +0.057 A 
ATOM     23  C   UNL     1       9.773   6.731   3.112  0.00  0.00    +0.012 A 
ATOM     26  C   UNL     1      11.730   5.294   1.738  0.00  0.00    +0.121 A 
ATOM     27  C   UNL     1       9.757   6.687   1.718  0.00  0.00    +0.004 A 
ATOM     30  C   UNL     1      10.735   5.969   1.031  0.00  0.00    +0.045 A 
BRANCH  26   4
ATOM      4  O   UNL     1      12.684   4.592   1.067  0.00  0.00    -0.495 OA
ATOM     33  C   UNL     1      12.946   3.263   1.512  0.00  0.00    +0.277 C 
ENDBRANCH  26   4
ENDBRANCH  18  20
ENDBRANCH  14   7
BRANCH  15   8
ATOM      3  O   UNL     1      17.630  10.980   5.974  0.00  0.00    -0.270 OA
ATOM      8  N   UNL     1      16.241   9.122   5.991  0.00  0.00    -0.304 N 
ATOM     19  C   UNL     1      17.470   9.763   5.924  0.00  0.00    +0.245 C 
ATOM     34  H   UNL     1      16.213   8.107   5.977  0.00  0.00    +0.149 HD
BRANCH  19  21
ATOM     21  C   UNL     1      18.654   8.882   5.755  0.00  0.00    +0.051 A 
ATOM     24  C   UNL     1      18.872   8.230   4.557  0.00  0.00    +0.071 A 
ATOM     25  C   UNL     1      19.513   8.747   6.829  0.00  0.00    +0.014 A 
ATOM     28  C   UNL     1      19.992   7.410   4.428  0.00  0.00    +0.016 A 
ATOM     29  C   UNL     1      20.633   7.926   6.699  0.00  0.00    +0.001 A 
ATOM     32  C   UNL     1      20.873   7.258   5.499  0.00  0.00    +0.001 A 
BRANCH  24  31
ATOM      6  O   UNL     1      18.106   9.173   2.496  0.00  0.00    -0.245 OA
ATOM     31  C   UNL     1      17.971   8.367   3.420  0.00  0.00    +0.338 C 
BRANCH  31   5
ATOM      5  O   UNL     1      16.933   7.489   3.474  0.00  0.00    -0.477 OA
ATOM     35  H   UNL     1      16.965   6.935   4.282  0.00  0.00    +0.295 HD
ENDBRANCH  31   5
ENDBRANCH  24  31
ENDBRANCH  19  21
ENDBRANCH  15   8
TORSDOF 7
ENDMDL
MODEL 6
REMARK VINA RESULT:      -6.7     23.561     25.885
REMARK  Name = 11887318
REMARK  8 active torsions:
REMARK  status: ('A' for Active; 'I' for Inactive)
REMARK    1  A    between atoms: O_4  and  C_26
REMARK    2  A    between atoms: O_4  and  C_33
REMARK    3  A    between atoms: O_5  and  C_31
REMARK    4  A    between atoms: N_7  and  C_14
REMARK    5  A    between atoms: N_8  and  C_15
REMARK    6  A    between atoms: C_18  and  C_20
REMARK    7  A    between atoms: C_19  and  C_21
REMARK    8  A    between atoms: C_24  and  C_31
REMARK                            x       y       z     vdW  Elec       q    Type
REMARK                         _______ _______ _______ _____ _____    ______ ____
ROOT
ATOM      1  O   UNL     1      -2.450 -10.456  12.831  0.00  0.00    -0.370 OA
ATOM      2  O   UNL     1      -4.361 -12.954  12.765  0.00  0.00    -0.370 OA
ATOM     12  C   UNL     1      -4.544 -11.549  12.510  0.00  0.00    +0.176 C 
ATOM     13  C   UNL     1      -3.675 -10.797  13.499  0.00  0.00    +0.171 C 
ATOM     14  C   UNL     1      -3.977 -11.193  11.149  0.00  0.00    +0.168 C 
ATOM     15  C   UNL     1      -3.410 -11.798  14.601  0.00  0.00    +0.130 C 
ATOM     16  C   UNL     1      -2.520 -10.870  11.459  0.00  0.00    +0.190 C 
ATOM     17  C   UNL     1      -3.441 -13.117  13.853  0.00  0.00    +0.185 C 
ENDROOT
BRANCH  14   7
ATOM      7  N   UNL     1      -4.724 -10.117  10.492  0.00  0.00    -0.217 N 
ATOM      9  N   UNL     1      -4.897  -8.940  11.102  0.00  0.00    -0.043 NA
ATOM     10  N   UNL     1      -5.875  -8.930   9.099  0.00  0.00    -0.108 NA
ATOM     11  N   UNL     1      -5.603  -8.216  10.244  0.00  0.00    -0.023 NA
ATOM     18  C   UNL     1      -5.319 -10.107   9.276  0.00  0.00    +0.182 A 
BRANCH  18  20
ATOM     20  C   UNL     1      -5.326 -11.215   8.356  0.00  0.00    +0.024 A 
ATOM     22  C   UNL     1      -4.480 -11.210   7.247  0.00  0.00    +0.057 A 
ATOM     23  C   UNL     1      -6.182 -12.297   8.572  0.00  0.00    +0.012 A 
ATOM     26  C   UNL     1      -4.486 -12.284   6.356  0.00  0.00    +0.121 A 
ATOM     27  C   UNL     1      -6.189 -13.372   7.682  0.00  0.00    +0.004 A 
ATOM     30  C   UNL     1      -5.341 -13.364   6.574  0.00  0.00    +0.045 A 
BRANCH  26   4
ATOM      4  O   UNL     1      -3.659 -12.278   5.276  0.00  0.00    -0.495 OA
ATOM     33  C   UNL     1      -2.791 -13.398   5.116  0.00  0.00    +0.277 C 
ENDBRANCH  26   4
ENDBRANCH  18  20
ENDBRANCH  14   7
BRANCH  15   8
ATOM      3  O   UNL     1      -3.555  -9.966  16.807  0.00  0.00    -0.270 OA
ATOM      8  N   UNL     1      -4.439 -11.746  15.611  0.00  0.00    -0.304 N 
ATOM     19  C   UNL     1      -4.422 -10.820  16.644  0.00  0.00    +0.245 C 
ATOM     34  H   UNL     1      -5.220 -12.391  15.540  0.00  0.00    +0.149 HD
BRANCH  19  21
ATOM     21  C   UNL     1      -5.539 -10.914  17.620  0.00  0.00    +0.051 A 
ATOM     24  C   UNL     1      -5.419 -11.711  18.741  0.00  0.00    +0.071 A 
ATOM     25  C   UNL     1      -6.682 -10.182  17.361  0.00  0.00    +0.014 A 
ATOM     28  C   UNL     1      -6.484 -11.780  19.639  0.00  0.00    +0.016 A 
ATOM     29  C   UNL     1      -7.746 -10.251  18.258  0.00  0.00    +0.001 A 
ATOM     32  C   UNL     1      -7.647 -11.049  19.398  0.00  0.00    +0.001 A 
BRANCH  24  31
ATOM      6  O   UNL     1      -3.309 -12.145  19.782  0.00  0.00    -0.245 OA
ATOM     31  C   UNL     1      -4.218 -12.487  19.021  0.00  0.00    +0.338 C 
BRANCH  31   5
ATOM      5  O   UNL     1      -4.194 -13.666  18.343  0.00  0.00    -0.477 OA
ATOM     35  H   UNL     1      -3.427 -13.722  17.735  0.00  0.00    +0.295 HD
ENDBRANCH  31   5
ENDBRANCH  24  31
ENDBRANCH  19  21
ENDBRANCH  15   8
TORSDOF 7
ENDMDL
MODEL 7
REMARK VINA RESULT:      -6.7     14.750     18.670
REMARK  Name = 11887318
REMARK  8 active torsions:
REMARK  status: ('A' for Active; 'I' for Inactive)
REMARK    1  A    between atoms: O_4  and  C_26
REMARK    2  A    between atoms: O_4  and  C_33
REMARK    3  A    between atoms: O_5  and  C_31
REMARK    4  A    between atoms: N_7  and  C_14
REMARK    5  A    between atoms: N_8  and  C_15
REMARK    6  A    between atoms: C_18  and  C_20
REMARK    7  A    between atoms: C_19  and  C_21
REMARK    8  A    between atoms: C_24  and  C_31
REMARK                            x       y       z     vdW  Elec       q    Type
REMARK                         _______ _______ _______ _____ _____    ______ ____
ROOT
ATOM      1  O   UNL     1      20.337 -11.236  -0.208  0.00  0.00    -0.370 OA
ATOM      2  O   UNL     1      18.882  -9.612   2.059  0.00  0.00    -0.370 OA
ATOM     12  C   UNL     1      18.426 -10.455   0.984  0.00  0.00    +0.176 C 
ATOM     13  C   UNL     1      19.338 -10.204  -0.201  0.00  0.00    +0.171 C 
ATOM     14  C   UNL     1      18.650 -11.912   1.342  0.00  0.00    +0.168 C 
ATOM     15  C   UNL     1      19.973  -8.863   0.094  0.00  0.00    +0.130 C 
ATOM     16  C   UNL     1      20.068 -12.172   0.845  0.00  0.00    +0.190 C 
ATOM     17  C   UNL     1      20.012  -8.850   1.610  0.00  0.00    +0.185 C 
ENDROOT
BRANCH  14   7
ATOM      7  N   UNL     1      17.624 -12.793   0.779  0.00  0.00    -0.217 N 
ATOM      9  N   UNL     1      17.634 -13.104  -0.522  0.00  0.00    -0.043 NA
ATOM     10  N   UNL     1      15.919 -14.094   0.501  0.00  0.00    -0.108 NA
ATOM     11  N   UNL     1      16.588 -13.901  -0.687  0.00  0.00    -0.023 NA
ATOM     18  C   UNL     1      16.581 -13.397   1.397  0.00  0.00    +0.182 A 
BRANCH  18  20
ATOM     20  C   UNL     1      16.275 -13.275   2.799  0.00  0.00    +0.024 A 
ATOM     22  C   UNL     1      16.446 -14.367   3.650  0.00  0.00    +0.057 A 
ATOM     23  C   UNL     1      15.804 -12.063   3.308  0.00  0.00    +0.012 A 
ATOM     26  C   UNL     1      16.150 -14.248   5.009  0.00  0.00    +0.121 A 
ATOM     27  C   UNL     1      15.509 -11.944   4.666  0.00  0.00    +0.004 A 
ATOM     30  C   UNL     1      15.681 -13.037   5.516  0.00  0.00    +0.045 A 
BRANCH  26   4
ATOM      4  O   UNL     1      16.319 -15.313   5.838  0.00  0.00    -0.495 OA
ATOM     33  C   UNL     1      16.165 -16.611   5.268  0.00  0.00    +0.277 C 
ENDBRANCH  26   4
ENDBRANCH  18  20
ENDBRANCH  14   7
BRANCH  15   8
ATOM      3  O   UNL     1      20.174  -7.657  -2.504  0.00  0.00    -0.270 OA
ATOM      8  N   UNL     1      19.168  -7.781  -0.418  0.00  0.00    -0.304 N 
ATOM     19  C   UNL     1      19.340  -7.262  -1.693  0.00  0.00    +0.245 C 
ATOM     34  H   UNL     1      18.425  -7.411   0.168  0.00  0.00    +0.149 HD
BRANCH  19  21
ATOM     21  C   UNL     1      18.450  -6.131  -2.061  0.00  0.00    +0.051 A 
ATOM     24  C   UNL     1      18.569  -4.914  -1.420  0.00  0.00    +0.071 A 
ATOM     25  C   UNL     1      17.516  -6.346  -3.055  0.00  0.00    +0.014 A 
ATOM     28  C   UNL     1      17.720  -3.871  -1.786  0.00  0.00    +0.016 A 
ATOM     29  C   UNL     1      16.666  -5.303  -3.422  0.00  0.00    +0.001 A 
ATOM     32  C   UNL     1      16.769  -4.065  -2.788  0.00  0.00    +0.001 A 
BRANCH  24  31
ATOM      6  O   UNL     1      20.711  -4.296  -0.550  0.00  0.00    -0.245 OA
ATOM     31  C   UNL     1      19.552  -4.679  -0.370  0.00  0.00    +0.338 C 
BRANCH  31   5
ATOM      5  O   UNL     1      19.053  -4.927   0.871  0.00  0.00    -0.477 OA
ATOM     35  H   UNL     1      19.719  -4.765   1.571  0.00  0.00    +0.295 HD
ENDBRANCH  31   5
ENDBRANCH  24  31
ENDBRANCH  19  21
ENDBRANCH  15   8
TORSDOF 7
ENDMDL
MODEL 8
REMARK VINA RESULT:      -6.7     26.902     30.246
REMARK  Name = 11887318
REMARK  8 active torsions:
REMARK  status: ('A' for Active; 'I' for Inactive)
REMARK    1  A    between atoms: O_4  and  C_26
REMARK    2  A    between atoms: O_4  and  C_33
REMARK    3  A    between atoms: O_5  and  C_31
REMARK    4  A    between atoms: N_7  and  C_14
REMARK    5  A    between atoms: N_8  and  C_15
REMARK    6  A    between atoms: C_18  and  C_20
REMARK    7  A    between atoms: C_19  and  C_21
REMARK    8  A    between atoms: C_24  and  C_31
REMARK                            x       y       z     vdW  Elec       q    Type
REMARK                         _______ _______ _______ _____ _____    ______ ____
ROOT
ATOM      1  O   UNL     1      -8.866 -11.322  16.161  0.00  0.00    -0.370 OA
ATOM      2  O   UNL     1      -8.935  -8.263  16.888  0.00  0.00    -0.370 OA
ATOM     12  C   UNL     1      -8.619  -9.458  17.626  0.00  0.00    +0.176 C 
ATOM     13  C   UNL     1      -9.562 -10.544  17.147  0.00  0.00    +0.171 C 
ATOM     14  C   UNL     1      -7.236  -9.951  17.241  0.00  0.00    +0.168 C 
ATOM     15  C   UNL     1     -10.706  -9.789  16.506  0.00  0.00    +0.130 C 
ATOM     16  C   UNL     1      -7.516 -10.853  16.045  0.00  0.00    +0.190 C 
ATOM     17  C   UNL     1     -10.019  -8.539  15.990  0.00  0.00    +0.185 C 
ENDROOT
BRANCH  14   7
ATOM      7  N   UNL     1      -6.540 -10.597  18.357  0.00  0.00    -0.217 N 
ATOM      9  N   UNL     1      -6.987 -10.457  19.609  0.00  0.00    -0.043 NA
ATOM     10  N   UNL     1      -5.163 -11.738  19.572  0.00  0.00    -0.108 NA
ATOM     11  N   UNL     1      -6.139 -11.158  20.350  0.00  0.00    -0.023 NA
ATOM     18  C   UNL     1      -5.432 -11.377  18.338  0.00  0.00    +0.182 A 
BRANCH  18  20
ATOM     20  C   UNL     1      -4.697 -11.729  17.152  0.00  0.00    +0.024 A 
ATOM     22  C   UNL     1      -3.764 -10.840  16.616  0.00  0.00    +0.057 A 
ATOM     23  C   UNL     1      -4.917 -12.962  16.533  0.00  0.00    +0.012 A 
ATOM     26  C   UNL     1      -3.050 -11.183  15.467  0.00  0.00    +0.121 A 
ATOM     27  C   UNL     1      -4.204 -13.304  15.384  0.00  0.00    +0.004 A 
ATOM     30  C   UNL     1      -3.271 -12.415  14.851  0.00  0.00    +0.045 A 
BRANCH  26   4
ATOM      4  O   UNL     1      -2.139 -10.316  14.947  0.00  0.00    -0.495 OA
ATOM     33  C   UNL     1      -0.945 -10.103  15.696  0.00  0.00    +0.277 C 
ENDBRANCH  26   4
ENDBRANCH  18  20
ENDBRANCH  14   7
BRANCH  15   8
ATOM      3  O   UNL     1     -13.124 -11.253  17.009  0.00  0.00    -0.270 OA
ATOM      8  N   UNL     1     -11.724  -9.464  17.475  0.00  0.00    -0.304 N 
ATOM     19  C   UNL     1     -12.864 -10.235  17.646  0.00  0.00    +0.245 C 
ATOM     34  H   UNL     1     -11.580  -8.657  18.076  0.00  0.00    +0.149 HD
BRANCH  19  21
ATOM     21  C   UNL     1     -13.830  -9.752  18.666  0.00  0.00    +0.051 A 
ATOM     24  C   UNL     1     -13.603  -9.987  20.007  0.00  0.00    +0.071 A 
ATOM     25  C   UNL     1     -14.945  -9.068  18.221  0.00  0.00    +0.014 A 
ATOM     28  C   UNL     1     -14.528  -9.521  20.941  0.00  0.00    +0.016 A 
ATOM     29  C   UNL     1     -15.870  -8.602  19.155  0.00  0.00    +0.001 A 
ATOM     32  C   UNL     1     -15.661  -8.828  20.515  0.00  0.00    +0.001 A 
BRANCH  24  31
ATOM      6  O   UNL     1     -12.383 -11.920  20.714  0.00  0.00    -0.245 OA
ATOM     31  C   UNL     1     -12.430 -10.708  20.484  0.00  0.00    +0.338 C 
BRANCH  31   5
ATOM      5  O   UNL     1     -11.354  -9.893  20.654  0.00  0.00    -0.477 OA
ATOM     35  H   UNL     1     -11.144  -9.760  21.602  0.00  0.00    +0.295 HD
ENDBRANCH  31   5
ENDBRANCH  24  31
ENDBRANCH  19  21
ENDBRANCH  15   8
TORSDOF 7
ENDMDL
MODEL 9
REMARK VINA RESULT:      -6.6     15.073     18.906
REMARK  Name = 11887318
REMARK  8 active torsions:
REMARK  status: ('A' for Active; 'I' for Inactive)
REMARK    1  A    between atoms: O_4  and  C_26
REMARK    2  A    between atoms: O_4  and  C_33
REMARK    3  A    between atoms: O_5  and  C_31
REMARK    4  A    between atoms: N_7  and  C_14
REMARK    5  A    between atoms: N_8  and  C_15
REMARK    6  A    between atoms: C_18  and  C_20
REMARK    7  A    between atoms: C_19  and  C_21
REMARK    8  A    between atoms: C_24  and  C_31
REMARK                            x       y       z     vdW  Elec       q    Type
REMARK                         _______ _______ _______ _____ _____    ______ ____
ROOT
ATOM      1  O   UNL     1      19.646 -11.373  -2.293  0.00  0.00    -0.370 OA
ATOM      2  O   UNL     1      18.766  -9.855   0.318  0.00  0.00    -0.370 OA
ATOM     12  C   UNL     1      18.140 -10.842  -0.523  0.00  0.00    +0.176 C 
ATOM     13  C   UNL     1      18.535 -10.529  -1.953  0.00  0.00    +0.171 C 
ATOM     14  C   UNL     1      18.740 -12.208  -0.248  0.00  0.00    +0.168 C 
ATOM     15  C   UNL     1      18.969  -9.081  -1.912  0.00  0.00    +0.130 C 
ATOM     16  C   UNL     1      19.928 -12.259  -1.201  0.00  0.00    +0.190 C 
ATOM     17  C   UNL     1      19.515  -8.947  -0.503  0.00  0.00    +0.185 C 
ENDROOT
BRANCH  14   7
ATOM      7  N   UNL     1      17.767 -13.292  -0.411  0.00  0.00    -0.217 N 
ATOM      9  N   UNL     1      17.758 -14.035  -1.523  0.00  0.00    -0.043 NA
ATOM     10  N   UNL     1      16.161 -14.710  -0.122  0.00  0.00    -0.108 NA
ATOM     11  N   UNL     1      16.772 -14.903  -1.340  0.00  0.00    -0.023 NA
ATOM     18  C   UNL     1      16.796 -13.706   0.438  0.00  0.00    +0.182 A 
BRANCH  18  20
ATOM     20  C   UNL     1      16.528 -13.122   1.726  0.00  0.00    +0.024 A 
ATOM     22  C   UNL     1      17.116 -13.658   2.873  0.00  0.00    +0.057 A 
ATOM     23  C   UNL     1      15.679 -12.019   1.831  0.00  0.00    +0.012 A 
ATOM     26  C   UNL     1      16.857 -13.091   4.122  0.00  0.00    +0.121 A 
ATOM     27  C   UNL     1      15.420 -11.452   3.079  0.00  0.00    +0.004 A 
ATOM     30  C   UNL     1      16.009 -11.989   4.224  0.00  0.00    +0.045 A 
BRANCH  26   4
ATOM      4  O   UNL     1      17.432 -13.613   5.239  0.00  0.00    -0.495 OA
ATOM     33  C   UNL     1      18.142 -14.841   5.091  0.00  0.00    +0.277 C 
ENDBRANCH  26   4
ENDBRANCH  18  20
ENDBRANCH  14   7
BRANCH  15   8
ATOM      3  O   UNL     1      17.917  -8.231  -4.444  0.00  0.00    -0.270 OA
ATOM      8  N   UNL     1      17.852  -8.194  -2.126  0.00  0.00    -0.304 N 
ATOM     19  C   UNL     1      17.415  -7.839  -3.394  0.00  0.00    +0.245 C 
ATOM     34  H   UNL     1      17.348  -7.846  -1.315  0.00  0.00    +0.149 HD
BRANCH  19  21
ATOM     21  C   UNL     1      16.268  -6.895  -3.446  0.00  0.00    +0.051 A 
ATOM     24  C   UNL     1      14.976  -7.374  -3.536  0.00  0.00    +0.071 A 
ATOM     25  C   UNL     1      16.547  -5.543  -3.400  0.00  0.00    +0.014 A 
ATOM     28  C   UNL     1      13.921  -6.464  -3.584  0.00  0.00    +0.016 A 
ATOM     29  C   UNL     1      15.492  -4.633  -3.447  0.00  0.00    +0.001 A 
ATOM     32  C   UNL     1      14.178  -5.094  -3.539  0.00  0.00    +0.001 A 
BRANCH  24  31
ATOM      6  O   UNL     1      14.626  -9.481  -4.613  0.00  0.00    -0.245 OA
ATOM     31  C   UNL     1      14.674  -8.798  -3.586  0.00  0.00    +0.338 C 
BRANCH  31   5
ATOM      5  O   UNL     1      14.446  -9.323  -2.352  0.00  0.00    -0.477 OA
ATOM     35  H   UNL     1      13.889 -10.128  -2.396  0.00  0.00    +0.295 HD
ENDBRANCH  31   5
ENDBRANCH  24  31
ENDBRANCH  19  21
ENDBRANCH  15   8
TORSDOF 7
ENDMDL
MODEL 10
REMARK VINA RESULT:      -6.6      4.804      9.084
REMARK  Name = 11887318
REMARK  8 active torsions:
REMARK  status: ('A' for Active; 'I' for Inactive)
REMARK    1  A    between atoms: O_4  and  C_26
REMARK    2  A    between atoms: O_4  and  C_33
REMARK    3  A    between atoms: O_5  and  C_31
REMARK    4  A    between atoms: N_7  and  C_14
REMARK    5  A    between atoms: N_8  and  C_15
REMARK    6  A    between atoms: C_18  and  C_20
REMARK    7  A    between atoms: C_19  and  C_21
REMARK    8  A    between atoms: C_24  and  C_31
REMARK                            x       y       z     vdW  Elec       q    Type
REMARK                         _______ _______ _______ _____ _____    ______ ____
ROOT
ATOM      1  O   UNL     1      13.978   7.396   6.825  0.00  0.00    -0.370 OA
ATOM      2  O   UNL     1      14.491   9.357   4.420  0.00  0.00    -0.370 OA
ATOM     12  C   UNL     1      14.117   7.970   4.516  0.00  0.00    +0.176 C 
ATOM     13  C   UNL     1      14.866   7.383   5.696  0.00  0.00    +0.171 C 
ATOM     14  C   UNL     1      12.652   7.857   4.894  0.00  0.00    +0.168 C 
ATOM     15  C   UNL     1      16.015   8.340   5.923  0.00  0.00    +0.130 C 
ATOM     16  C   UNL     1      12.689   7.874   6.418  0.00  0.00    +0.190 C 
ATOM     17  C   UNL     1      15.431   9.662   5.461  0.00  0.00    +0.185 C 
ENDROOT
BRANCH  14   7
ATOM      7  N   UNL     1      12.008   6.681   4.302  0.00  0.00    -0.217 N 
ATOM      9  N   UNL     1      12.453   6.171   3.149  0.00  0.00    -0.043 NA
ATOM     10  N   UNL     1      10.719   4.991   3.905  0.00  0.00    -0.108 NA
ATOM     11  N   UNL     1      11.660   5.136   2.909  0.00  0.00    -0.023 NA
ATOM     18  C   UNL     1      10.955   5.961   4.758  0.00  0.00    +0.182 A 
BRANCH  18  20
ATOM     20  C   UNL     1      10.237   6.238   5.975  0.00  0.00    +0.024 A 
ATOM     22  C   UNL     1      10.529   5.524   7.138  0.00  0.00    +0.057 A 
ATOM     23  C   UNL     1       9.245   7.220   5.993  0.00  0.00    +0.012 A 
ATOM     26  C   UNL     1       9.833   5.793   8.317  0.00  0.00    +0.121 A 
ATOM     27  C   UNL     1       8.550   7.489   7.172  0.00  0.00    +0.004 A 
ATOM     30  C   UNL     1       8.843   6.776   8.334  0.00  0.00    +0.045 A 
BRANCH  26   4
ATOM      4  O   UNL     1      10.120   5.097   9.451  0.00  0.00    -0.495 OA
ATOM     33  C   UNL     1       9.016   4.641  10.230  0.00  0.00    +0.277 C 
ENDBRANCH  26   4
ENDBRANCH  18  20
ENDBRANCH  14   7
BRANCH  15   8
ATOM      3  O   UNL     1      18.755   9.008   6.464  0.00  0.00    -0.270 OA
ATOM      8  N   UNL     1      17.164   7.972   5.132  0.00  0.00    -0.304 N 
ATOM     19  C   UNL     1      18.455   8.343   5.475  0.00  0.00    +0.245 C 
ATOM     34  H   UNL     1      17.020   7.389   4.311  0.00  0.00    +0.149 HD
BRANCH  19  21
ATOM     21  C   UNL     1      19.527   7.908   4.543  0.00  0.00    +0.051 A 
ATOM     24  C   UNL     1      19.383   8.092   3.182  0.00  0.00    +0.071 A 
ATOM     25  C   UNL     1      20.655   7.325   5.087  0.00  0.00    +0.014 A 
ATOM     28  C   UNL     1      20.405   7.673   2.331  0.00  0.00    +0.016 A 
ATOM     29  C   UNL     1      21.677   6.906   4.237  0.00  0.00    +0.001 A 
ATOM     32  C   UNL     1      21.553   7.081   2.859  0.00  0.00    +0.001 A 
BRANCH  24  31
ATOM      6  O   UNL     1      17.978   9.919   2.539  0.00  0.00    -0.245 OA
ATOM     31  C   UNL     1      18.196   8.706   2.600  0.00  0.00    +0.338 C 
BRANCH  31   5
ATOM      5  O   UNL     1      17.324   7.785   2.109  0.00  0.00    -0.477 OA
ATOM     35  H   UNL     1      17.788   7.002   1.743  0.00  0.00    +0.295 HD
ENDBRANCH  31   5
ENDBRANCH  24  31
ENDBRANCH  19  21
ENDBRANCH  15   8
TORSDOF 7
ENDMDL
