REMARK  Name = 56775555
REMARK  9 active torsions:
REMARK  status: ('A' for Active; 'I' for Inactive)
REMARK    1  A    between atoms: O_3  and  C_16
REMARK    2  A    between atoms: O_4  and  C_18
REMARK    3  A    between atoms: O_4  and  C_22
REMARK    4  A    between atoms: N_5  and  C_7
REMARK    5  A    between atoms: N_5  and  C_11
REMARK    6  A    between atoms: C_7  and  C_10
REMARK    7  A    between atoms: C_10  and  C_12
REMARK    8  A    between atoms: C_11  and  C_13
REMARK    9  A    between atoms: C_15  and  C_18
REMARK                            x       y       z     vdW  Elec       q    Type
REMARK                         _______ _______ _______ _____ _____    ______ ____
ROOT
ATOM      1  O   UNL     1       0.331  -3.460   1.278  0.00  0.00    -0.376 OA
ATOM      7  C   UNL     1       0.066  -1.826  -0.070  0.00  0.00    +0.072 C 
ATOM      8  C   UNL     1       0.940  -3.071   0.025  0.00  0.00    +0.184 C 
ATOM      9  C   UNL     1      -0.593  -2.351   1.201  0.00  0.00    +0.184 C 
ENDROOT
BRANCH   7   5
ATOM      5  N   UNL     1       0.876  -0.653   0.268  0.00  0.00    -0.302 NA
ATOM     23  H   UNL     1       0.353   0.207   0.421  0.00  0.00    +0.123 HD
BRANCH   5  11
ATOM     11  C   UNL     1       1.885  -0.451  -0.772  0.00  0.00    +0.120 C 
BRANCH  11  13
ATOM     13  C   UNL     1       3.072   0.303  -0.272  0.00  0.00    +0.008 A 
ATOM     16  C   UNL     1       3.010   1.683  -0.076  0.00  0.00    +0.121 A 
ATOM     17  C   UNL     1       4.253  -0.387   0.002  0.00  0.00    +0.008 A 
ATOM     19  C   UNL     1       4.129   2.372   0.393  0.00  0.00    +0.046 A 
ATOM     20  C   UNL     1       5.372   0.302   0.470  0.00  0.00    +0.001 A 
ATOM     21  C   UNL     1       5.310   1.681   0.665  0.00  0.00    +0.004 A 
BRANCH  16   3
ATOM      3  O   UNL     1       1.865   2.373  -0.338  0.00  0.00    -0.506 OA
ATOM     24  H   UNL     1       2.010   3.315  -0.143  0.00  0.00    +0.292 HD
ENDBRANCH  16   3
ENDBRANCH  11  13
ENDBRANCH   5  11
ENDBRANCH   7   5
BRANCH   7  10
ATOM     10  C   UNL     1      -0.777  -1.621  -1.292  0.00  0.00    +0.085 C 
BRANCH  10  12
ATOM      2  O   UNL     1      -2.866   1.300  -0.898  0.00  0.00    -0.357 OA
ATOM      6  N   UNL     1      -1.671   0.679  -1.239  0.00  0.00    -0.083 NA
ATOM     12  C   UNL     1      -1.882  -0.622  -1.022  0.00  0.00    +0.086 A 
ATOM     14  C   UNL     1      -3.180  -0.879  -0.548  0.00  0.00    +0.073 A 
ATOM     15  C   UNL     1      -3.757   0.362  -0.488  0.00  0.00    +0.163 A 
BRANCH  15  18
ATOM     18  C   UNL     1      -5.083   0.848  -0.087  0.00  0.00    +0.236 C 
BRANCH  18   4
ATOM      4  O   UNL     1      -5.015   1.471   1.198  0.00  0.00    -0.375 OA
ATOM     22  C   UNL     1      -6.287   1.948   1.604  0.00  0.00    +0.194 C 
ENDBRANCH  18   4
ENDBRANCH  15  18
ENDBRANCH  10  12
ENDBRANCH   7  10
TORSDOF 8
