MODEL 1
REMARK VINA RESULT:      -8.1      0.000      0.000
REMARK  Name = 45783529
REMARK  6 active torsions:
REMARK  status: ('A' for Active; 'I' for Inactive)
REMARK    1  A    between atoms: N_3  and  C_15
REMARK    2  A    between atoms: C_10  and  C_20
REMARK    3  A    between atoms: C_14  and  C_23
REMARK    4  A    between atoms: C_15  and  C_21
REMARK    5  A    between atoms: C_24  and  C_26
REMARK    6  A    between atoms: C_33  and  C_34
REMARK                            x       y       z     vdW  Elec       q    Type
REMARK                         _______ _______ _______ _____ _____    ______ ____
ROOT
ATOM      1  O   UNL     1      14.026   6.666  20.061  0.00  0.00    -0.336 OA
ATOM      5  N   UNL     1      15.829   7.172  18.831  0.00  0.00    -0.190 NA
ATOM      6  N   UNL     1      15.138   6.309  20.834  0.00  0.00    -0.056 NA
ATOM     20  C   UNL     1      14.522   7.165  18.898  0.00  0.00    +0.245 A 
ATOM     24  C   UNL     1      16.163   6.637  20.041  0.00  0.00    +0.204 A 
ENDROOT
BRANCH  24  26
ATOM      4  N   UNL     1      21.475   5.819  21.468  0.00  0.00    -0.315 N 
ATOM      7  N   UNL     1      19.627   5.290  20.087  0.00  0.00    -0.240 NA
ATOM     14  C   UNL     1      24.262   5.389  22.160  0.00  0.00    +0.078 C 
ATOM     16  C   UNL     1      23.222   5.781  23.207  0.00  0.00    +0.031 C 
ATOM     17  C   UNL     1      23.833   5.828  20.761  0.00  0.00    +0.031 C 
ATOM     18  C   UNL     1      21.795   5.379  22.829  0.00  0.00    +0.107 C 
ATOM     19  C   UNL     1      22.408   5.400  20.415  0.00  0.00    +0.107 C 
ATOM     22  C   UNL     1      20.139   6.019  21.103  0.00  0.00    +0.121 A 
ATOM     25  C   UNL     1      19.421   6.964  21.818  0.00  0.00    +0.044 A 
ATOM     26  C   UNL     1      17.529   6.443  20.426  0.00  0.00    +0.041 A 
ATOM     29  C   UNL     1      18.092   7.174  21.466  0.00  0.00    +0.016 A 
ATOM     30  C   UNL     1      18.332   5.521  19.774  0.00  0.00    +0.124 A 
BRANCH  14  23
ATOM      2  O   UNL     1      24.171   3.198  23.115  0.00  0.00    -0.276 OA
ATOM      8  N   UNL     1      25.254   3.465  21.103  0.00  0.00    -0.329 N 
ATOM     23  C   UNL     1      24.541   3.914  22.188  0.00  0.00    +0.214 C 
ATOM     35  H   UNL     1      25.498   2.483  21.014  0.00  0.00    +0.145 HD
ATOM     36  H   UNL     1      25.604   4.082  20.377  0.00  0.00    +0.145 HD
ENDBRANCH  14  23
ENDBRANCH  24  26
BRANCH  20  10
ATOM      3  N   UNL     1      12.660   8.732  18.377  0.00  0.00    -0.287 NA
ATOM     10  C   UNL     1      13.505   7.630  17.876  0.00  0.00    +0.146 C 
ATOM     11  C   UNL     1      14.158   8.187  16.598  0.00  0.00    +0.030 C 
ATOM     12  C   UNL     1      13.575   9.583  16.429  0.00  0.00    +0.017 C 
ATOM     13  C   UNL     1      12.276   9.523  17.208  0.00  0.00    +0.085 C 
BRANCH   3  15
ATOM     15  C   UNL     1      11.501   8.272  19.132  0.00  0.00    +0.120 C 
BRANCH  15  21
ATOM     21  C   UNL     1      11.384   8.971  20.461  0.00  0.00    -0.033 A 
ATOM     27  C   UNL     1      11.989  10.213  20.649  0.00  0.00    +0.006 A 
ATOM     28  C   UNL     1      10.673   8.376  21.501  0.00  0.00    +0.006 A 
ATOM     31  C   UNL     1      11.881  10.861  21.880  0.00  0.00    +0.019 A 
ATOM     32  C   UNL     1      10.565   9.023  22.732  0.00  0.00    +0.019 A 
ATOM     33  C   UNL     1      11.169  10.266  22.921  0.00  0.00    +0.052 A 
BRANCH  33  34
ATOM      9  N   UNL     1      10.968  11.468  25.206  0.00  0.00    -0.191 NA
ATOM     34  C   UNL     1      11.058  10.930  24.182  0.00  0.00    +0.099 C 
ENDBRANCH  33  34
ENDBRANCH  15  21
ENDBRANCH   3  15
ENDBRANCH  20  10
TORSDOF 6
ENDMDL
MODEL 2
REMARK VINA RESULT:      -7.6      1.721      4.086
REMARK  Name = 45783529
REMARK  6 active torsions:
REMARK  status: ('A' for Active; 'I' for Inactive)
REMARK    1  A    between atoms: N_3  and  C_15
REMARK    2  A    between atoms: C_10  and  C_20
REMARK    3  A    between atoms: C_14  and  C_23
REMARK    4  A    between atoms: C_15  and  C_21
REMARK    5  A    between atoms: C_24  and  C_26
REMARK    6  A    between atoms: C_33  and  C_34
REMARK                            x       y       z     vdW  Elec       q    Type
REMARK                         _______ _______ _______ _____ _____    ______ ____
ROOT
ATOM      1  O   UNL     1      14.492   7.176  19.525  0.00  0.00    -0.336 OA
ATOM      5  N   UNL     1      15.598   7.461  21.452  0.00  0.00    -0.190 NA
ATOM      6  N   UNL     1      15.784   6.676  19.311  0.00  0.00    -0.056 NA
ATOM     20  C   UNL     1      14.469   7.618  20.810  0.00  0.00    +0.245 A 
ATOM     24  C   UNL     1      16.375   6.880  20.492  0.00  0.00    +0.204 A 
ENDROOT
BRANCH  24  26
ATOM      4  N   UNL     1      21.661   5.412  21.401  0.00  0.00    -0.315 N 
ATOM      7  N   UNL     1      19.676   5.211  20.127  0.00  0.00    -0.240 NA
ATOM     14  C   UNL     1      24.431   4.647  21.822  0.00  0.00    +0.078 C 
ATOM     16  C   UNL     1      23.512   5.023  22.982  0.00  0.00    +0.031 C 
ATOM     17  C   UNL     1      23.952   5.271  20.512  0.00  0.00    +0.031 C 
ATOM     18  C   UNL     1      22.028   4.802  22.682  0.00  0.00    +0.107 C 
ATOM     19  C   UNL     1      22.470   5.020  20.241  0.00  0.00    +0.107 C 
ATOM     22  C   UNL     1      20.330   5.776  21.166  0.00  0.00    +0.121 A 
ATOM     25  C   UNL     1      19.765   6.704  22.026  0.00  0.00    +0.044 A 
ATOM     26  C   UNL     1      17.738   6.517  20.746  0.00  0.00    +0.041 A 
ATOM     29  C   UNL     1      18.444   7.076  21.804  0.00  0.00    +0.016 A 
ATOM     30  C   UNL     1      18.393   5.597  19.943  0.00  0.00    +0.124 A 
BRANCH  14  23
ATOM      2  O   UNL     1      24.323   2.393  22.614  0.00  0.00    -0.276 OA
ATOM      8  N   UNL     1      24.972   2.752  20.436  0.00  0.00    -0.329 N 
ATOM     23  C   UNL     1      24.557   3.158  21.682  0.00  0.00    +0.214 C 
ATOM     35  H   UNL     1      25.090   1.766  20.226  0.00  0.00    +0.145 HD
ATOM     36  H   UNL     1      25.219   3.402  19.697  0.00  0.00    +0.145 HD
ENDBRANCH  14  23
ENDBRANCH  24  26
BRANCH  20  10
ATOM      3  N   UNL     1      12.392   8.851  20.209  0.00  0.00    -0.287 NA
ATOM     10  C   UNL     1      13.163   8.212  21.294  0.00  0.00    +0.146 C 
ATOM     11  C   UNL     1      12.210   7.156  21.881  0.00  0.00    +0.030 C 
ATOM     12  C   UNL     1      10.911   7.315  21.104  0.00  0.00    +0.017 C 
ATOM     13  C   UNL     1      10.982   8.735  20.580  0.00  0.00    +0.085 C 
BRANCH   3  15
ATOM     15  C   UNL     1      12.782  10.234  19.962  0.00  0.00    +0.120 C 
BRANCH  15  21
ATOM     21  C   UNL     1      13.358  10.416  18.583  0.00  0.00    -0.033 A 
ATOM     27  C   UNL     1      14.463  11.246  18.393  0.00  0.00    +0.006 A 
ATOM     28  C   UNL     1      12.785   9.756  17.496  0.00  0.00    +0.006 A 
ATOM     31  C   UNL     1      14.996  11.415  17.115  0.00  0.00    +0.019 A 
ATOM     32  C   UNL     1      13.318   9.925  16.218  0.00  0.00    +0.019 A 
ATOM     33  C   UNL     1      14.423  10.755  16.028  0.00  0.00    +0.052 A 
BRANCH  33  34
ATOM      9  N   UNL     1      15.413  11.068  13.655  0.00  0.00    -0.191 NA
ATOM     34  C   UNL     1      14.970  10.928  14.718  0.00  0.00    +0.099 C 
ENDBRANCH  33  34
ENDBRANCH  15  21
ENDBRANCH   3  15
ENDBRANCH  20  10
TORSDOF 6
ENDMDL
MODEL 3
REMARK VINA RESULT:      -7.6     13.725     15.920
REMARK  Name = 45783529
REMARK  6 active torsions:
REMARK  status: ('A' for Active; 'I' for Inactive)
REMARK    1  A    between atoms: N_3  and  C_15
REMARK    2  A    between atoms: C_10  and  C_20
REMARK    3  A    between atoms: C_14  and  C_23
REMARK    4  A    between atoms: C_15  and  C_21
REMARK    5  A    between atoms: C_24  and  C_26
REMARK    6  A    between atoms: C_33  and  C_34
REMARK                            x       y       z     vdW  Elec       q    Type
REMARK                         _______ _______ _______ _____ _____    ______ ____
ROOT
ATOM      1  O   UNL     1      10.839   9.981   5.655  0.00  0.00    -0.336 OA
ATOM      5  N   UNL     1      12.094   9.008   4.075  0.00  0.00    -0.190 NA
ATOM      6  N   UNL     1      12.145   9.947   6.160  0.00  0.00    -0.056 NA
ATOM     20  C   UNL     1      10.898   9.408   4.424  0.00  0.00    +0.245 A 
ATOM     24  C   UNL     1      12.826   9.358   5.172  0.00  0.00    +0.204 A 
ENDROOT
BRANCH  24  26
ATOM      4  N   UNL     1      18.304   8.463   5.510  0.00  0.00    -0.315 N 
ATOM      7  N   UNL     1      16.436   9.868   5.891  0.00  0.00    -0.240 NA
ATOM     14  C   UNL     1      21.164   8.017   5.736  0.00  0.00    +0.078 C 
ATOM     16  C   UNL     1      20.344   7.431   4.589  0.00  0.00    +0.031 C 
ATOM     17  C   UNL     1      20.289   8.297   6.956  0.00  0.00    +0.031 C 
ATOM     18  C   UNL     1      19.070   8.221   4.284  0.00  0.00    +0.107 C 
ATOM     19  C   UNL     1      19.032   9.096   6.615  0.00  0.00    +0.107 C 
ATOM     22  C   UNL     1      16.926   8.696   5.428  0.00  0.00    +0.121 A 
ATOM     25  C   UNL     1      16.146   7.696   4.870  0.00  0.00    +0.044 A 
ATOM     26  C   UNL     1      14.234   9.106   5.248  0.00  0.00    +0.041 A 
ATOM     29  C   UNL     1      14.775   7.913   4.783  0.00  0.00    +0.016 A 
ATOM     30  C   UNL     1      15.100  10.043   5.789  0.00  0.00    +0.124 A 
BRANCH  14  23
ATOM      2  O   UNL     1      21.923   9.629   4.141  0.00  0.00    -0.276 OA
ATOM      8  N   UNL     1      22.519   9.914   6.345  0.00  0.00    -0.329 N 
ATOM     23  C   UNL     1      21.891   9.260   5.313  0.00  0.00    +0.214 C 
ATOM     35  H   UNL     1      23.040  10.769   6.176  0.00  0.00    +0.145 HD
ATOM     36  H   UNL     1      22.532   9.561   7.297  0.00  0.00    +0.145 HD
ENDBRANCH  14  23
ENDBRANCH  24  26
BRANCH  20  10
ATOM      3  N   UNL     1       8.498   8.751   4.461  0.00  0.00    -0.287 NA
ATOM     10  C   UNL     1       9.595   9.325   3.656  0.00  0.00    +0.146 C 
ATOM     11  C   UNL     1       9.075  10.705   3.214  0.00  0.00    +0.030 C 
ATOM     12  C   UNL     1       7.659  10.792   3.766  0.00  0.00    +0.017 C 
ATOM     13  C   UNL     1       7.260   9.342   3.954  0.00  0.00    +0.085 C 
BRANCH   3  15
ATOM     15  C   UNL     1       8.462   7.294   4.429  0.00  0.00    +0.120 C 
BRANCH  15  21
ATOM     21  C   UNL     1       8.811   6.695   5.766  0.00  0.00    -0.033 A 
ATOM     27  C   UNL     1       9.374   5.421   5.833  0.00  0.00    +0.006 A 
ATOM     28  C   UNL     1       8.570   7.415   6.936  0.00  0.00    +0.006 A 
ATOM     31  C   UNL     1       9.697   4.867   7.072  0.00  0.00    +0.019 A 
ATOM     32  C   UNL     1       8.892   6.860   8.174  0.00  0.00    +0.019 A 
ATOM     33  C   UNL     1       9.456   5.586   8.242  0.00  0.00    +0.052 A 
BRANCH  33  34
ATOM      9  N   UNL     1      10.056   4.557  10.542  0.00  0.00    -0.191 NA
ATOM     34  C   UNL     1       9.787   5.018   9.511  0.00  0.00    +0.099 C 
ENDBRANCH  33  34
ENDBRANCH  15  21
ENDBRANCH   3  15
ENDBRANCH  20  10
TORSDOF 6
ENDMDL
MODEL 4
REMARK VINA RESULT:      -7.5     29.606     32.052
REMARK  Name = 45783529
REMARK  6 active torsions:
REMARK  status: ('A' for Active; 'I' for Inactive)
REMARK    1  A    between atoms: N_3  and  C_15
REMARK    2  A    between atoms: C_10  and  C_20
REMARK    3  A    between atoms: C_14  and  C_23
REMARK    4  A    between atoms: C_15  and  C_21
REMARK    5  A    between atoms: C_24  and  C_26
REMARK    6  A    between atoms: C_33  and  C_34
REMARK                            x       y       z     vdW  Elec       q    Type
REMARK                         _______ _______ _______ _____ _____    ______ ____
ROOT
ATOM      1  O   UNL     1     -13.767  -6.167  13.559  0.00  0.00    -0.336 OA
ATOM      5  N   UNL     1     -11.698  -5.464  14.052  0.00  0.00    -0.190 NA
ATOM      6  N   UNL     1     -13.160  -7.210  14.271  0.00  0.00    -0.056 NA
ATOM     20  C   UNL     1     -12.838  -5.179  13.475  0.00  0.00    +0.245 A 
ATOM     24  C   UNL     1     -11.943  -6.720  14.525  0.00  0.00    +0.204 A 
ENDROOT
BRANCH  24  26
ATOM      4  N   UNL     1      -8.067  -9.633  17.249  0.00  0.00    -0.315 N 
ATOM      7  N   UNL     1      -9.228  -9.156  15.241  0.00  0.00    -0.240 NA
ATOM     14  C   UNL     1      -6.009 -11.149  18.628  0.00  0.00    +0.078 C 
ATOM     16  C   UNL     1      -7.274 -10.673  19.338  0.00  0.00    +0.031 C 
ATOM     17  C   UNL     1      -5.697 -10.279  17.411  0.00  0.00    +0.031 C 
ATOM     18  C   UNL     1      -8.459 -10.457  18.396  0.00  0.00    +0.107 C 
ATOM     19  C   UNL     1      -6.900 -10.095  16.488  0.00  0.00    +0.107 C 
ATOM     22  C   UNL     1      -9.041  -8.904  16.556  0.00  0.00    +0.121 A 
ATOM     25  C   UNL     1      -9.756  -7.961  17.275  0.00  0.00    +0.044 A 
ATOM     26  C   UNL     1     -10.950  -7.459  15.247  0.00  0.00    +0.041 A 
ATOM     29  C   UNL     1     -10.727  -7.228  16.600  0.00  0.00    +0.016 A 
ATOM     30  C   UNL     1     -10.180  -8.425  14.619  0.00  0.00    +0.124 A 
BRANCH  14  23
ATOM      2  O   UNL     1      -5.396 -13.082  17.361  0.00  0.00    -0.276 OA
ATOM      8  N   UNL     1      -7.082 -13.287  18.913  0.00  0.00    -0.329 N 
ATOM     23  C   UNL     1      -6.112 -12.593  18.231  0.00  0.00    +0.214 C 
ATOM     35  H   UNL     1      -7.240 -14.273  18.728  0.00  0.00    +0.145 HD
ATOM     36  H   UNL     1      -7.705 -12.851  19.584  0.00  0.00    +0.145 HD
ENDBRANCH  14  23
ENDBRANCH  24  26
BRANCH  20  10
ATOM      3  N   UNL     1     -13.113  -4.044  11.278  0.00  0.00    -0.287 NA
ATOM     10  C   UNL     1     -13.255  -3.921  12.742  0.00  0.00    +0.146 C 
ATOM     11  C   UNL     1     -14.737  -3.568  12.964  0.00  0.00    +0.030 C 
ATOM     12  C   UNL     1     -15.332  -3.454  11.568  0.00  0.00    +0.017 C 
ATOM     13  C   UNL     1     -14.130  -3.172  10.690  0.00  0.00    +0.085 C 
BRANCH   3  15
ATOM     15  C   UNL     1     -11.774  -3.724  10.800  0.00  0.00    +0.120 C 
BRANCH  15  21
ATOM     21  C   UNL     1     -11.224  -4.806   9.908  0.00  0.00    -0.033 A 
ATOM     27  C   UNL     1     -10.230  -4.503   8.979  0.00  0.00    +0.006 A 
ATOM     28  C   UNL     1     -11.710  -6.109  10.012  0.00  0.00    +0.006 A 
ATOM     31  C   UNL     1      -9.720  -5.505   8.152  0.00  0.00    +0.019 A 
ATOM     32  C   UNL     1     -11.201  -7.110   9.185  0.00  0.00    +0.019 A 
ATOM     33  C   UNL     1     -10.206  -6.808   8.256  0.00  0.00    +0.052 A 
BRANCH  33  34
ATOM      9  N   UNL     1      -9.260  -8.669   6.722  0.00  0.00    -0.191 NA
ATOM     34  C   UNL     1      -9.684  -7.835   7.409  0.00  0.00    +0.099 C 
ENDBRANCH  33  34
ENDBRANCH  15  21
ENDBRANCH   3  15
ENDBRANCH  20  10
TORSDOF 6
ENDMDL
MODEL 5
REMARK VINA RESULT:      -7.3     28.381     32.919
REMARK  Name = 45783529
REMARK  6 active torsions:
REMARK  status: ('A' for Active; 'I' for Inactive)
REMARK    1  A    between atoms: N_3  and  C_15
REMARK    2  A    between atoms: C_10  and  C_20
REMARK    3  A    between atoms: C_14  and  C_23
REMARK    4  A    between atoms: C_15  and  C_21
REMARK    5  A    between atoms: C_24  and  C_26
REMARK    6  A    between atoms: C_33  and  C_34
REMARK                            x       y       z     vdW  Elec       q    Type
REMARK                         _______ _______ _______ _____ _____    ______ ____
ROOT
ATOM      1  O   UNL     1     -10.454 -10.161  18.896  0.00  0.00    -0.336 OA
ATOM      5  N   UNL     1      -9.643  -9.619  16.880  0.00  0.00    -0.190 NA
ATOM      6  N   UNL     1     -11.307  -9.174  18.385  0.00  0.00    -0.056 NA
ATOM     20  C   UNL     1      -9.502 -10.362  17.947  0.00  0.00    +0.245 A 
ATOM     24  C   UNL     1     -10.763  -8.905  17.194  0.00  0.00    +0.204 A 
ENDROOT
BRANCH  24  26
ATOM      4  N   UNL     1     -12.965  -5.186  13.696  0.00  0.00    -0.315 N 
ATOM      7  N   UNL     1     -13.069  -7.296  14.763  0.00  0.00    -0.240 NA
ATOM     14  C   UNL     1     -14.164  -3.254  11.889  0.00  0.00    +0.078 C 
ATOM     16  C   UNL     1     -12.651  -3.372  12.056  0.00  0.00    +0.031 C 
ATOM     17  C   UNL     1     -14.900  -3.776  13.122  0.00  0.00    +0.031 C 
ATOM     18  C   UNL     1     -12.195  -4.754  12.526  0.00  0.00    +0.107 C 
ATOM     19  C   UNL     1     -14.426  -5.162  13.554  0.00  0.00    +0.107 C 
ATOM     22  C   UNL     1     -12.417  -6.127  14.575  0.00  0.00    +0.121 A 
ATOM     25  C   UNL     1     -11.228  -5.792  15.201  0.00  0.00    +0.044 A 
ATOM     26  C   UNL     1     -11.312  -7.932  16.297  0.00  0.00    +0.041 A 
ATOM     29  C   UNL     1     -10.672  -6.718  16.078  0.00  0.00    +0.016 A 
ATOM     30  C   UNL     1     -12.498  -8.171  15.622  0.00  0.00    +0.124 A 
BRANCH  14  23
ATOM      2  O   UNL     1     -15.678  -4.615  10.635  0.00  0.00    -0.276 OA
ATOM      8  N   UNL     1     -13.793  -3.826   9.578  0.00  0.00    -0.329 N 
ATOM     23  C   UNL     1     -14.637  -3.963  10.654  0.00  0.00    +0.214 C 
ATOM     35  H   UNL     1     -14.014  -4.262   8.688  0.00  0.00    +0.145 HD
ATOM     36  H   UNL     1     -12.907  -3.334   9.630  0.00  0.00    +0.145 HD
ENDBRANCH  14  23
ENDBRANCH  24  26
BRANCH  20  10
ATOM      3  N   UNL     1      -7.867 -11.229  19.610  0.00  0.00    -0.287 NA
ATOM     10  C   UNL     1      -8.445 -11.399  18.263  0.00  0.00    +0.146 C 
ATOM     11  C   UNL     1      -8.999 -12.836  18.254  0.00  0.00    +0.030 C 
ATOM     12  C   UNL     1      -8.633 -13.413  19.614  0.00  0.00    +0.017 C 
ATOM     13  C   UNL     1      -7.460 -12.561  20.058  0.00  0.00    +0.085 C 
BRANCH   3  15
ATOM     15  C   UNL     1      -6.763 -10.278  19.647  0.00  0.00    +0.120 C 
BRANCH  15  21
ATOM     21  C   UNL     1      -5.742 -10.563  18.577  0.00  0.00    -0.033 A 
ATOM     27  C   UNL     1      -4.690 -11.442  18.835  0.00  0.00    +0.006 A 
ATOM     28  C   UNL     1      -5.848  -9.948  17.330  0.00  0.00    +0.006 A 
ATOM     31  C   UNL     1      -3.744 -11.707  17.844  0.00  0.00    +0.019 A 
ATOM     32  C   UNL     1      -4.902 -10.212  16.340  0.00  0.00    +0.019 A 
ATOM     33  C   UNL     1      -3.850 -11.092  16.597  0.00  0.00    +0.052 A 
BRANCH  33  34
ATOM      9  N   UNL     1      -2.094 -11.584  14.758  0.00  0.00    -0.191 NA
ATOM     34  C   UNL     1      -2.881 -11.363  15.582  0.00  0.00    +0.099 C 
ENDBRANCH  33  34
ENDBRANCH  15  21
ENDBRANCH   3  15
ENDBRANCH  20  10
TORSDOF 6
ENDMDL
MODEL 6
REMARK VINA RESULT:      -7.2     16.026     20.518
REMARK  Name = 45783529
REMARK  6 active torsions:
REMARK  status: ('A' for Active; 'I' for Inactive)
REMARK    1  A    between atoms: N_3  and  C_15
REMARK    2  A    between atoms: C_10  and  C_20
REMARK    3  A    between atoms: C_14  and  C_23
REMARK    4  A    between atoms: C_15  and  C_21
REMARK    5  A    between atoms: C_24  and  C_26
REMARK    6  A    between atoms: C_33  and  C_34
REMARK                            x       y       z     vdW  Elec       q    Type
REMARK                         _______ _______ _______ _____ _____    ______ ____
ROOT
ATOM      1  O   UNL     1      12.480   7.374   5.617  0.00  0.00    -0.336 OA
ATOM      5  N   UNL     1      10.883   5.937   4.984  0.00  0.00    -0.190 NA
ATOM      6  N   UNL     1      12.744   7.064   4.277  0.00  0.00    -0.056 NA
ATOM     20  C   UNL     1      11.368   6.668   5.954  0.00  0.00    +0.245 A 
ATOM     24  C   UNL     1      11.760   6.211   3.975  0.00  0.00    +0.204 A 
ENDROOT
BRANCH  24  26
ATOM      4  N   UNL     1      11.332   3.901  -1.066  0.00  0.00    -0.315 N 
ATOM      7  N   UNL     1      12.682   4.750   0.684  0.00  0.00    -0.240 NA
ATOM     14  C   UNL     1      11.150   2.662  -3.685  0.00  0.00    +0.078 C 
ATOM     16  C   UNL     1      10.080   3.621  -3.170  0.00  0.00    +0.031 C 
ATOM     17  C   UNL     1      11.912   2.011  -2.532  0.00  0.00    +0.031 C 
ATOM     18  C   UNL     1      10.597   4.606  -2.120  0.00  0.00    +0.107 C 
ATOM     19  C   UNL     1      12.422   3.025  -1.510  0.00  0.00    +0.107 C 
ATOM     22  C   UNL     1      11.448   4.483   0.202  0.00  0.00    +0.121 A 
ATOM     25  C   UNL     1      10.273   4.749   0.888  0.00  0.00    +0.044 A 
ATOM     26  C   UNL     1      11.625   5.616   2.678  0.00  0.00    +0.041 A 
ATOM     29  C   UNL     1      10.373   5.326   2.149  0.00  0.00    +0.016 A 
ATOM     30  C   UNL     1      12.739   5.311   1.913  0.00  0.00    +0.124 A 
BRANCH  14  23
ATOM      2  O   UNL     1      11.849   4.447  -5.115  0.00  0.00    -0.276 OA
ATOM      8  N   UNL     1      13.243   2.632  -4.880  0.00  0.00    -0.329 N 
ATOM     23  C   UNL     1      12.100   3.350  -4.622  0.00  0.00    +0.214 C 
ATOM     35  H   UNL     1      13.958   3.001  -5.499  0.00  0.00    +0.145 HD
ATOM     36  H   UNL     1      13.405   1.701  -4.511  0.00  0.00    +0.145 HD
ENDBRANCH  14  23
ENDBRANCH  24  26
BRANCH  20  10
ATOM      3  N   UNL     1       9.480   7.331   7.433  0.00  0.00    -0.287 NA
ATOM     10  C   UNL     1      10.869   6.834   7.374  0.00  0.00    +0.146 C 
ATOM     11  C   UNL     1      10.844   5.508   8.155  0.00  0.00    +0.030 C 
ATOM     12  C   UNL     1       9.417   5.373   8.666  0.00  0.00    +0.017 C 
ATOM     13  C   UNL     1       8.903   6.799   8.668  0.00  0.00    +0.085 C 
BRANCH   3  15
ATOM     15  C   UNL     1       9.385   8.784   7.366  0.00  0.00    +0.120 C 
BRANCH  15  21
ATOM     21  C   UNL     1       8.757   9.244   6.077  0.00  0.00    -0.033 A 
ATOM     27  C   UNL     1       8.192   8.313   5.206  0.00  0.00    +0.006 A 
ATOM     28  C   UNL     1       8.740  10.601   5.755  0.00  0.00    +0.006 A 
ATOM     31  C   UNL     1       7.610   8.739   4.011  0.00  0.00    +0.019 A 
ATOM     32  C   UNL     1       8.159  11.027   4.561  0.00  0.00    +0.019 A 
ATOM     33  C   UNL     1       7.594  10.096   3.689  0.00  0.00    +0.052 A 
BRANCH  33  34
ATOM      9  N   UNL     1       6.514  10.887   1.473  0.00  0.00    -0.191 NA
ATOM     34  C   UNL     1       6.998  10.533   2.466  0.00  0.00    +0.099 C 
ENDBRANCH  33  34
ENDBRANCH  15  21
ENDBRANCH   3  15
ENDBRANCH  20  10
TORSDOF 6
ENDMDL
MODEL 7
REMARK VINA RESULT:      -7.1     29.558     32.451
REMARK  Name = 45783529
REMARK  6 active torsions:
REMARK  status: ('A' for Active; 'I' for Inactive)
REMARK    1  A    between atoms: N_3  and  C_15
REMARK    2  A    between atoms: C_10  and  C_20
REMARK    3  A    between atoms: C_14  and  C_23
REMARK    4  A    between atoms: C_15  and  C_21
REMARK    5  A    between atoms: C_24  and  C_26
REMARK    6  A    between atoms: C_33  and  C_34
REMARK                            x       y       z     vdW  Elec       q    Type
REMARK                         _______ _______ _______ _____ _____    ______ ____
ROOT
ATOM      1  O   UNL     1     -12.783  -5.265  14.617  0.00  0.00    -0.336 OA
ATOM      5  N   UNL     1     -13.244  -7.290  15.455  0.00  0.00    -0.190 NA
ATOM      6  N   UNL     1     -11.584  -5.744  15.159  0.00  0.00    -0.056 NA
ATOM     20  C   UNL     1     -13.709  -6.236  14.834  0.00  0.00    +0.245 A 
ATOM     24  C   UNL     1     -11.937  -6.943  15.635  0.00  0.00    +0.204 A 
ENDROOT
BRANCH  24  26
ATOM      4  N   UNL     1      -8.273 -10.298  18.133  0.00  0.00    -0.315 N 
ATOM      7  N   UNL     1      -8.762  -8.687  16.469  0.00  0.00    -0.240 NA
ATOM     14  C   UNL     1      -6.322 -12.010  19.436  0.00  0.00    +0.078 C 
ATOM     16  C   UNL     1      -7.795 -12.399  19.330  0.00  0.00    +0.031 C 
ATOM     17  C   UNL     1      -6.142 -10.495  19.351  0.00  0.00    +0.031 C 
ATOM     18  C   UNL     1      -8.516 -11.743  18.151  0.00  0.00    +0.107 C 
ATOM     19  C   UNL     1      -6.867  -9.877  18.156  0.00  0.00    +0.107 C 
ATOM     22  C   UNL     1      -9.189  -9.451  17.499  0.00  0.00    +0.121 A 
ATOM     25  C   UNL     1     -10.490  -9.453  17.977  0.00  0.00    +0.044 A 
ATOM     26  C   UNL     1     -11.010  -7.815  16.294  0.00  0.00    +0.041 A 
ATOM     29  C   UNL     1     -11.411  -8.615  17.357  0.00  0.00    +0.016 A 
ATOM     30  C   UNL     1      -9.686  -7.886  15.891  0.00  0.00    +0.124 A 
BRANCH  14  23
ATOM      2  O   UNL     1      -5.979 -13.516  17.611  0.00  0.00    -0.276 OA
ATOM      8  N   UNL     1      -4.169 -12.341  18.408  0.00  0.00    -0.329 N 
ATOM     23  C   UNL     1      -5.495 -12.698  18.390  0.00  0.00    +0.214 C 
ATOM     35  H   UNL     1      -3.515 -12.743  17.743  0.00  0.00    +0.145 HD
ATOM     36  H   UNL     1      -3.776 -11.710  19.098  0.00  0.00    +0.145 HD
ENDBRANCH  14  23
ENDBRANCH  24  26
BRANCH  20  10
ATOM      3  N   UNL     1     -15.200  -5.983  12.858  0.00  0.00    -0.287 NA
ATOM     10  C   UNL     1     -15.110  -5.956  14.332  0.00  0.00    +0.146 C 
ATOM     11  C   UNL     1     -16.132  -7.005  14.806  0.00  0.00    +0.030 C 
ATOM     12  C   UNL     1     -16.790  -7.523  13.535  0.00  0.00    +0.017 C 
ATOM     13  C   UNL     1     -16.563  -6.407  12.536  0.00  0.00    +0.085 C 
BRANCH   3  15
ATOM     15  C   UNL     1     -14.861  -4.709  12.237  0.00  0.00    +0.120 C 
BRANCH  15  21
ATOM     21  C   UNL     1     -13.626  -4.815  11.382  0.00  0.00    -0.033 A 
ATOM     27  C   UNL     1     -13.160  -6.067  10.983  0.00  0.00    +0.006 A 
ATOM     28  C   UNL     1     -12.948  -3.661  10.990  0.00  0.00    +0.006 A 
ATOM     31  C   UNL     1     -12.015  -6.165  10.191  0.00  0.00    +0.019 A 
ATOM     32  C   UNL     1     -11.804  -3.759  10.198  0.00  0.00    +0.019 A 
ATOM     33  C   UNL     1     -11.338  -5.011   9.799  0.00  0.00    +0.052 A 
BRANCH  33  34
ATOM      9  N   UNL     1      -9.214  -5.192   8.328  0.00  0.00    -0.191 NA
ATOM     34  C   UNL     1     -10.166  -5.111   8.987  0.00  0.00    +0.099 C 
ENDBRANCH  33  34
ENDBRANCH  15  21
ENDBRANCH   3  15
ENDBRANCH  20  10
TORSDOF 6
ENDMDL
MODEL 8
REMARK VINA RESULT:      -7.1     27.876     32.699
REMARK  Name = 45783529
REMARK  6 active torsions:
REMARK  status: ('A' for Active; 'I' for Inactive)
REMARK    1  A    between atoms: N_3  and  C_15
REMARK    2  A    between atoms: C_10  and  C_20
REMARK    3  A    between atoms: C_14  and  C_23
REMARK    4  A    between atoms: C_15  and  C_21
REMARK    5  A    between atoms: C_24  and  C_26
REMARK    6  A    between atoms: C_33  and  C_34
REMARK                            x       y       z     vdW  Elec       q    Type
REMARK                         _______ _______ _______ _____ _____    ______ ____
ROOT
ATOM      1  O   UNL     1      -7.176  -9.216   6.151  0.00  0.00    -0.336 OA
ATOM      5  N   UNL     1      -7.162  -8.626   8.313  0.00  0.00    -0.190 NA
ATOM      6  N   UNL     1      -8.308  -8.413   6.344  0.00  0.00    -0.056 NA
ATOM     20  C   UNL     1      -6.558  -9.291   7.360  0.00  0.00    +0.245 A 
ATOM     24  C   UNL     1      -8.230  -8.105   7.642  0.00  0.00    +0.204 A 
ENDROOT
BRANCH  24  26
ATOM      4  N   UNL     1     -12.033  -4.987  10.239  0.00  0.00    -0.315 N 
ATOM      7  N   UNL     1     -11.042  -7.103   9.856  0.00  0.00    -0.240 NA
ATOM     14  C   UNL     1     -14.008  -3.386  11.641  0.00  0.00    +0.078 C 
ATOM     16  C   UNL     1     -13.547  -3.042  10.226  0.00  0.00    +0.031 C 
ATOM     17  C   UNL     1     -12.954  -4.205  12.384  0.00  0.00    +0.031 C 
ATOM     18  C   UNL     1     -13.020  -4.248   9.446  0.00  0.00    +0.107 C 
ATOM     19  C   UNL     1     -12.460  -5.406  11.579  0.00  0.00    +0.107 C 
ATOM     22  C   UNL     1     -11.078  -5.778   9.589  0.00  0.00    +0.121 A 
ATOM     25  C   UNL     1     -10.223  -5.142   8.704  0.00  0.00    +0.044 A 
ATOM     26  C   UNL     1      -9.201  -7.282   8.299  0.00  0.00    +0.041 A 
ATOM     29  C   UNL     1      -9.270  -5.916   8.051  0.00  0.00    +0.016 A 
ATOM     30  C   UNL     1     -10.102  -7.823   9.203  0.00  0.00    +0.124 A 
BRANCH  14  23
ATOM      2  O   UNL     1     -15.612  -4.951  12.475  0.00  0.00    -0.276 OA
ATOM      8  N   UNL     1     -16.145  -3.748  10.587  0.00  0.00    -0.329 N 
ATOM     23  C   UNL     1     -15.324  -4.107  11.629  0.00  0.00    +0.214 C 
ATOM     35  H   UNL     1     -17.062  -4.170  10.481  0.00  0.00    +0.145 HD
ATOM     36  H   UNL     1     -15.865  -3.094   9.864  0.00  0.00    +0.145 HD
ENDBRANCH  14  23
ENDBRANCH  24  26
BRANCH  20  10
ATOM      3  N   UNL     1      -4.880 -10.431   8.801  0.00  0.00    -0.287 NA
ATOM     10  C   UNL     1      -5.289 -10.114   7.418  0.00  0.00    +0.146 C 
ATOM     11  C   UNL     1      -5.435 -11.483   6.730  0.00  0.00    +0.030 C 
ATOM     12  C   UNL     1      -5.031 -12.504   7.783  0.00  0.00    +0.017 C 
ATOM     13  C   UNL     1      -4.167 -11.706   8.739  0.00  0.00    +0.085 C 
BRANCH   3  15
ATOM     15  C   UNL     1      -4.078  -9.383   9.419  0.00  0.00    +0.120 C 
BRANCH  15  21
ATOM     21  C   UNL     1      -3.611  -9.774  10.797  0.00  0.00    -0.033 A 
ATOM     27  C   UNL     1      -4.544 -10.030  11.801  0.00  0.00    +0.006 A 
ATOM     28  C   UNL     1      -2.247  -9.879  11.067  0.00  0.00    +0.006 A 
ATOM     31  C   UNL     1      -4.112 -10.392  13.078  0.00  0.00    +0.019 A 
ATOM     32  C   UNL     1      -1.816 -10.240  12.343  0.00  0.00    +0.019 A 
ATOM     33  C   UNL     1      -2.748 -10.497  13.348  0.00  0.00    +0.052 A 
BRANCH  33  34
ATOM      9  N   UNL     1      -1.946 -11.170  15.717  0.00  0.00    -0.191 NA
ATOM     34  C   UNL     1      -2.305 -10.868  14.656  0.00  0.00    +0.099 C 
ENDBRANCH  33  34
ENDBRANCH  15  21
ENDBRANCH   3  15
ENDBRANCH  20  10
TORSDOF 6
ENDMDL
MODEL 9
REMARK VINA RESULT:      -7.0     26.808     31.451
REMARK  Name = 45783529
REMARK  6 active torsions:
REMARK  status: ('A' for Active; 'I' for Inactive)
REMARK    1  A    between atoms: N_3  and  C_15
REMARK    2  A    between atoms: C_10  and  C_20
REMARK    3  A    between atoms: C_14  and  C_23
REMARK    4  A    between atoms: C_15  and  C_21
REMARK    5  A    between atoms: C_24  and  C_26
REMARK    6  A    between atoms: C_33  and  C_34
REMARK                            x       y       z     vdW  Elec       q    Type
REMARK                         _______ _______ _______ _____ _____    ______ ____
ROOT
ATOM      1  O   UNL     1      -4.764 -11.860  16.694  0.00  0.00    -0.336 OA
ATOM      5  N   UNL     1      -5.239 -10.230  15.232  0.00  0.00    -0.190 NA
ATOM      6  N   UNL     1      -6.097 -11.499  16.931  0.00  0.00    -0.056 NA
ATOM     20  C   UNL     1      -4.335 -11.064  15.680  0.00  0.00    +0.245 A 
ATOM     24  C   UNL     1      -6.303 -10.533  16.031  0.00  0.00    +0.204 A 
ENDROOT
BRANCH  24  26
ATOM      4  N   UNL     1     -11.174  -7.913  15.446  0.00  0.00    -0.315 N 
ATOM      7  N   UNL     1      -9.420  -9.198  14.508  0.00  0.00    -0.240 NA
ATOM     14  C   UNL     1     -13.735  -6.587  15.111  0.00  0.00    +0.078 C 
ATOM     16  C   UNL     1     -12.681  -6.071  16.087  0.00  0.00    +0.031 C 
ATOM     17  C   UNL     1     -13.553  -8.079  14.836  0.00  0.00    +0.031 C 
ATOM     18  C   UNL     1     -11.253  -6.474  15.713  0.00  0.00    +0.107 C 
ATOM     19  C   UNL     1     -12.119  -8.442  14.456  0.00  0.00    +0.107 C 
ATOM     22  C   UNL     1      -9.948  -8.575  15.586  0.00  0.00    +0.121 A 
ATOM     25  C   UNL     1      -9.350  -8.545  16.835  0.00  0.00    +0.044 A 
ATOM     26  C   UNL     1      -7.557  -9.851  15.904  0.00  0.00    +0.041 A 
ATOM     29  C   UNL     1      -8.132  -9.199  16.988  0.00  0.00    +0.016 A 
ATOM     30  C   UNL     1      -8.236  -9.822  14.696  0.00  0.00    +0.124 A 
BRANCH  14  23
ATOM      2  O   UNL     1     -13.090  -4.763  13.705  0.00  0.00    -0.276 OA
ATOM      8  N   UNL     1     -14.491  -6.368  12.834  0.00  0.00    -0.329 N 
ATOM     23  C   UNL     1     -13.723  -5.810  13.827  0.00  0.00    +0.214 C 
ATOM     35  H   UNL     1     -14.555  -5.929  11.920  0.00  0.00    +0.145 HD
ATOM     36  H   UNL     1     -15.055  -7.200  12.973  0.00  0.00    +0.145 HD
ENDBRANCH  14  23
ENDBRANCH  24  26
BRANCH  20  10
ATOM      3  N   UNL     1      -2.599 -10.542  13.975  0.00  0.00    -0.287 NA
ATOM     10  C   UNL     1      -2.903 -11.261  15.228  0.00  0.00    +0.146 C 
ATOM     11  C   UNL     1      -1.879 -10.726  16.245  0.00  0.00    +0.030 C 
ATOM     12  C   UNL     1      -1.005  -9.759  15.459  0.00  0.00    +0.017 C 
ATOM     13  C   UNL     1      -1.174 -10.213  14.023  0.00  0.00    +0.085 C 
BRANCH   3  15
ATOM     15  C   UNL     1      -2.946 -11.299  12.778  0.00  0.00    +0.120 C 
BRANCH  15  21
ATOM     21  C   UNL     1      -3.860 -10.520  11.869  0.00  0.00    -0.033 A 
ATOM     27  C   UNL     1      -3.322  -9.710  10.869  0.00  0.00    +0.006 A 
ATOM     28  C   UNL     1      -5.242 -10.608  12.028  0.00  0.00    +0.006 A 
ATOM     31  C   UNL     1      -4.169  -8.988  10.027  0.00  0.00    +0.019 A 
ATOM     32  C   UNL     1      -6.088  -9.886  11.186  0.00  0.00    +0.019 A 
ATOM     33  C   UNL     1      -5.551  -9.076  10.186  0.00  0.00    +0.052 A 
BRANCH  33  34
ATOM      9  N   UNL     1      -7.122  -7.737   8.621  0.00  0.00    -0.191 NA
ATOM     34  C   UNL     1      -6.418  -8.337   9.323  0.00  0.00    +0.099 C 
ENDBRANCH  33  34
ENDBRANCH  15  21
ENDBRANCH   3  15
ENDBRANCH  20  10
TORSDOF 6
ENDMDL
MODEL 10
REMARK VINA RESULT:      -7.0     14.554     16.792
REMARK  Name = 45783529
REMARK  6 active torsions:
REMARK  status: ('A' for Active; 'I' for Inactive)
REMARK    1  A    between atoms: N_3  and  C_15
REMARK    2  A    between atoms: C_10  and  C_20
REMARK    3  A    between atoms: C_14  and  C_23
REMARK    4  A    between atoms: C_15  and  C_21
REMARK    5  A    between atoms: C_24  and  C_26
REMARK    6  A    between atoms: C_33  and  C_34
REMARK                            x       y       z     vdW  Elec       q    Type
REMARK                         _______ _______ _______ _____ _____    ______ ____
ROOT
ATOM      1  O   UNL     1      11.257  10.556   5.695  0.00  0.00    -0.336 OA
ATOM      5  N   UNL     1      12.209   8.548   5.976  0.00  0.00    -0.190 NA
ATOM      6  N   UNL     1      12.637  10.758   5.570  0.00  0.00    -0.056 NA
ATOM     20  C   UNL     1      11.092   9.228   5.934  0.00  0.00    +0.245 A 
ATOM     24  C   UNL     1      13.130   9.529   5.748  0.00  0.00    +0.204 A 
ENDROOT
BRANCH  24  26
ATOM      4  N   UNL     1      18.597   8.515   5.632  0.00  0.00    -0.315 N 
ATOM      7  N   UNL     1      16.791   9.911   6.264  0.00  0.00    -0.240 NA
ATOM     14  C   UNL     1      21.455   8.003   5.623  0.00  0.00    +0.078 C 
ATOM     16  C   UNL     1      20.548   7.537   4.487  0.00  0.00    +0.031 C 
ATOM     17  C   UNL     1      20.669   8.186   6.920  0.00  0.00    +0.031 C 
ATOM     18  C   UNL     1      19.275   8.372   4.341  0.00  0.00    +0.107 C 
ATOM     19  C   UNL     1      19.411   9.034   6.738  0.00  0.00    +0.107 C 
ATOM     22  C   UNL     1      17.222   8.777   5.665  0.00  0.00    +0.121 A 
ATOM     25  C   UNL     1      16.385   7.845   5.075  0.00  0.00    +0.044 A 
ATOM     26  C   UNL     1      14.534   9.247   5.706  0.00  0.00    +0.041 A 
ATOM     29  C   UNL     1      15.016   8.092   5.101  0.00  0.00    +0.016 A 
ATOM     30  C   UNL     1      15.455  10.117   6.269  0.00  0.00    +0.124 A 
BRANCH  14  23
ATOM      2  O   UNL     1      22.353   9.611   4.097  0.00  0.00    -0.276 OA
ATOM      8  N   UNL     1      22.638   9.972   6.351  0.00  0.00    -0.329 N 
ATOM     23  C   UNL     1      22.181   9.267   5.264  0.00  0.00    +0.214 C 
ATOM     35  H   UNL     1      23.142  10.845   6.228  0.00  0.00    +0.145 HD
ATOM     36  H   UNL     1      22.540   9.641   7.306  0.00  0.00    +0.145 HD
ENDBRANCH  14  23
ENDBRANCH  24  26
BRANCH  20  10
ATOM      3  N   UNL     1       9.485   7.345   5.683  0.00  0.00    -0.287 NA
ATOM     10  C   UNL     1       9.667   8.747   6.108  0.00  0.00    +0.146 C 
ATOM     11  C   UNL     1       9.205   8.774   7.576  0.00  0.00    +0.030 C 
ATOM     12  C   UNL     1       8.726   7.359   7.870  0.00  0.00    +0.017 C 
ATOM     13  C   UNL     1       8.398   6.804   6.498  0.00  0.00    +0.085 C 
BRANCH   3  15
ATOM     15  C   UNL     1       9.222   7.205   4.256  0.00  0.00    +0.120 C 
BRANCH  15  21
ATOM     21  C   UNL     1      10.220   6.295   3.590  0.00  0.00    -0.033 A 
ATOM     27  C   UNL     1      11.224   6.834   2.785  0.00  0.00    +0.006 A 
ATOM     28  C   UNL     1      10.138   4.916   3.775  0.00  0.00    +0.006 A 
ATOM     31  C   UNL     1      12.149   5.991   2.167  0.00  0.00    +0.019 A 
ATOM     32  C   UNL     1      11.062   4.074   3.157  0.00  0.00    +0.019 A 
ATOM     33  C   UNL     1      12.067   4.611   2.353  0.00  0.00    +0.052 A 
BRANCH  33  34
ATOM      9  N   UNL     1      13.783   3.047   1.206  0.00  0.00    -0.191 NA
ATOM     34  C   UNL     1      13.014   3.748   1.720  0.00  0.00    +0.099 C 
ENDBRANCH  33  34
ENDBRANCH  15  21
ENDBRANCH   3  15
ENDBRANCH  20  10
TORSDOF 6
ENDMDL
