MODEL 1
REMARK VINA RESULT:      -6.6      0.000      0.000
REMARK  Name = 40779505
REMARK  14 active torsions:
REMARK  status: ('A' for Active; 'I' for Inactive)
REMARK    1  A    between atoms: O_2  and  C_29
REMARK    2  A    between atoms: O_2  and  C_32
REMARK    3  A    between atoms: O_3  and  C_31
REMARK    4  A    between atoms: O_3  and  C_33
REMARK    5  A    between atoms: N_5  and  C_19
REMARK    6  A    between atoms: N_6  and  C_15
REMARK    7  A    between atoms: C_9  and  C_16
REMARK    8  A    between atoms: C_10  and  C_15
REMARK    9  A    between atoms: C_18  and  C_22
REMARK   10  A    between atoms: C_20  and  C_21
REMARK   11  A    between atoms: C_21  and  C_23
REMARK   12  A    between atoms: C_21  and  C_24
REMARK   13  A    between atoms: C_23  and  C_27
REMARK   14  A    between atoms: C_24  and  C_28
REMARK                            x       y       z     vdW  Elec       q    Type
REMARK                         _______ _______ _______ _____ _____    ______ ____
ROOT
ATOM      4  N   UNL     1      -6.551 -10.580  18.129  0.00  0.00    -0.297 NA
ATOM      8  C   UNL     1      -4.501 -12.083  17.561  0.00  0.00    +0.002 C 
ATOM      9  C   UNL     1      -4.383 -10.709  16.845  0.00  0.00    +0.055 C 
ATOM     10  C   UNL     1      -7.012 -11.925  17.692  0.00  0.00    +0.074 C 
ATOM     11  C   UNL     1      -5.828 -12.757  17.156  0.00  0.00    +0.024 C 
ATOM     12  C   UNL     1      -4.585 -11.789  19.075  0.00  0.00    +0.019 C 
ATOM     13  C   UNL     1      -5.726  -9.955  17.066  0.00  0.00    +0.094 C 
ATOM     14  C   UNL     1      -5.700 -10.760  19.331  0.00  0.00    +0.085 C 
ENDROOT
BRANCH   9  16
ATOM      5  N   UNL     1      -2.637 -10.663  15.004  0.00  0.00    -0.270 N 
ATOM      7  N   UNL     1      -2.462 -10.653  13.672  0.00  0.00    -0.171 NA
ATOM     16  C   UNL     1      -3.946 -10.694  15.387  0.00  0.00    +0.044 A 
ATOM     17  C   UNL     1      -4.678 -10.705  14.225  0.00  0.00    +0.053 A 
ATOM     18  C   UNL     1      -3.712 -10.679  13.201  0.00  0.00    +0.093 A 
ATOM     19  C   UNL     1      -1.480 -10.638  15.868  0.00  0.00    +0.172 C 
BRANCH  18  22
ATOM     22  C   UNL     1      -3.960 -10.677  11.783  0.00  0.00    +0.006 A 
ATOM     25  C   UNL     1      -4.538  -9.561  11.178  0.00  0.00    +0.059 A 
ATOM     26  C   UNL     1      -3.622 -11.791  11.014  0.00  0.00    +0.014 A 
ATOM     29  C   UNL     1      -4.779  -9.559   9.803  0.00  0.00    +0.162 A 
ATOM     30  C   UNL     1      -3.863 -11.790   9.641  0.00  0.00    +0.050 A 
ATOM     31  C   UNL     1      -4.442 -10.674   9.035  0.00  0.00    +0.162 A 
BRANCH  29   2
ATOM      2  O   UNL     1      -5.344  -8.464   9.224  0.00  0.00    -0.491 OA
ATOM     32  C   UNL     1      -6.768  -8.385   9.238  0.00  0.00    +0.277 C 
ENDBRANCH  29   2
BRANCH  31   3
ATOM      3  O   UNL     1      -4.671 -10.683   7.692  0.00  0.00    -0.491 OA
ATOM     33  C   UNL     1      -4.534 -11.934   7.021  0.00  0.00    +0.277 C 
ENDBRANCH  31   3
ENDBRANCH  18  22
ENDBRANCH   9  16
BRANCH  10  15
ATOM     15  C   UNL     1      -8.159 -11.847  16.682  0.00  0.00    +0.123 C 
BRANCH  15   6
ATOM      1  O   UNL     1      -8.952  -9.385  15.431  0.00  0.00    -0.276 OA
ATOM      6  N   UNL     1      -9.174 -10.946  17.132  0.00  0.00    -0.314 N 
ATOM     20  C   UNL     1      -9.499  -9.766  16.463  0.00  0.00    +0.216 C 
ATOM     34  H   UNL     1      -9.671 -11.190  17.983  0.00  0.00    +0.149 HD
BRANCH  20  21
ATOM     21  C   UNL     1     -10.608  -8.969  17.158  0.00  0.00    +0.074 C 
BRANCH  21  23
ATOM     23  C   UNL     1     -10.303  -7.462  17.201  0.00  0.00    +0.009 C 
ATOM     27  C   UNL     1     -11.150  -6.669  16.215  0.00  0.00    +0.004 C 
ENDBRANCH  21  23
BRANCH  21  24
ATOM     24  C   UNL     1     -10.873  -9.546  18.565  0.00  0.00    +0.009 C 
ATOM     28  C   UNL     1     -12.339  -9.830  18.871  0.00  0.00    +0.004 C 
ENDBRANCH  21  24
ENDBRANCH  20  21
ENDBRANCH  15   6
ENDBRANCH  10  15
TORSDOF 9
ENDMDL
MODEL 2
REMARK VINA RESULT:      -6.5      0.944      2.097
REMARK  Name = 40779505
REMARK  14 active torsions:
REMARK  status: ('A' for Active; 'I' for Inactive)
REMARK    1  A    between atoms: O_2  and  C_29
REMARK    2  A    between atoms: O_2  and  C_32
REMARK    3  A    between atoms: O_3  and  C_31
REMARK    4  A    between atoms: O_3  and  C_33
REMARK    5  A    between atoms: N_5  and  C_19
REMARK    6  A    between atoms: N_6  and  C_15
REMARK    7  A    between atoms: C_9  and  C_16
REMARK    8  A    between atoms: C_10  and  C_15
REMARK    9  A    between atoms: C_18  and  C_22
REMARK   10  A    between atoms: C_20  and  C_21
REMARK   11  A    between atoms: C_21  and  C_23
REMARK   12  A    between atoms: C_21  and  C_24
REMARK   13  A    between atoms: C_23  and  C_27
REMARK   14  A    between atoms: C_24  and  C_28
REMARK                            x       y       z     vdW  Elec       q    Type
REMARK                         _______ _______ _______ _____ _____    ______ ____
ROOT
ATOM      4  N   UNL     1      -6.455 -10.441  17.909  0.00  0.00    -0.297 NA
ATOM      8  C   UNL     1      -4.471 -12.028  17.333  0.00  0.00    +0.002 C 
ATOM      9  C   UNL     1      -4.292 -10.655  16.627  0.00  0.00    +0.055 C 
ATOM     10  C   UNL     1      -6.974 -11.760  17.462  0.00  0.00    +0.074 C 
ATOM     11  C   UNL     1      -5.827 -12.640  16.921  0.00  0.00    +0.024 C 
ATOM     12  C   UNL     1      -4.546 -11.742  18.849  0.00  0.00    +0.019 C 
ATOM     13  C   UNL     1      -5.601  -9.844  16.852  0.00  0.00    +0.094 C 
ATOM     14  C   UNL     1      -5.614 -10.666  19.110  0.00  0.00    +0.085 C 
ENDROOT
BRANCH   9  16
ATOM      5  N   UNL     1      -2.543 -10.612  14.789  0.00  0.00    -0.270 N 
ATOM      7  N   UNL     1      -2.365 -10.612  13.457  0.00  0.00    -0.171 NA
ATOM     16  C   UNL     1      -3.853 -10.649  15.170  0.00  0.00    +0.044 A 
ATOM     17  C   UNL     1      -4.582 -10.674  14.007  0.00  0.00    +0.053 A 
ATOM     18  C   UNL     1      -3.614 -10.650  12.984  0.00  0.00    +0.093 A 
ATOM     19  C   UNL     1      -1.388 -10.573  15.655  0.00  0.00    +0.172 C 
BRANCH  18  22
ATOM     22  C   UNL     1      -3.859 -10.662  11.566  0.00  0.00    +0.006 A 
ATOM     25  C   UNL     1      -4.015 -11.875  10.895  0.00  0.00    +0.059 A 
ATOM     26  C   UNL     1      -3.942  -9.460  10.862  0.00  0.00    +0.014 A 
ATOM     29  C   UNL     1      -4.252 -11.886   9.520  0.00  0.00    +0.162 A 
ATOM     30  C   UNL     1      -4.179  -9.471   9.488  0.00  0.00    +0.050 A 
ATOM     31  C   UNL     1      -4.334 -10.684   8.817  0.00  0.00    +0.162 A 
BRANCH  29   2
ATOM      2  O   UNL     1      -4.401 -13.078   8.876  0.00  0.00    -0.491 OA
ATOM     32  C   UNL     1      -4.278 -14.260   9.664  0.00  0.00    +0.277 C 
ENDBRANCH  29   2
BRANCH  31   3
ATOM      3  O   UNL     1      -4.566 -10.683   7.474  0.00  0.00    -0.491 OA
ATOM     33  C   UNL     1      -5.787 -10.096   7.029  0.00  0.00    +0.277 C 
ENDBRANCH  31   3
ENDBRANCH  18  22
ENDBRANCH   9  16
BRANCH  10  15
ATOM     15  C   UNL     1      -8.114 -11.625  16.450  0.00  0.00    +0.123 C 
BRANCH  15   6
ATOM      1  O   UNL     1      -8.741  -9.292  14.894  0.00  0.00    -0.276 OA
ATOM      6  N   UNL     1      -8.998 -10.562  16.818  0.00  0.00    -0.314 N 
ATOM     20  C   UNL     1      -9.249  -9.460  16.001  0.00  0.00    +0.216 C 
ATOM     34  H   UNL     1      -9.455 -10.627  17.722  0.00  0.00    +0.149 HD
BRANCH  20  21
ATOM     21  C   UNL     1     -10.218  -8.455  16.631  0.00  0.00    +0.074 C 
BRANCH  21  23
ATOM     23  C   UNL     1     -11.638  -9.029  16.776  0.00  0.00    +0.009 C 
ATOM     27  C   UNL     1     -12.006  -9.309  18.228  0.00  0.00    +0.004 C 
ENDBRANCH  21  23
BRANCH  21  24
ATOM     24  C   UNL     1     -10.207  -7.135  15.834  0.00  0.00    +0.009 C 
ATOM     28  C   UNL     1     -11.231  -6.104  16.293  0.00  0.00    +0.004 C 
ENDBRANCH  21  24
ENDBRANCH  20  21
ENDBRANCH  15   6
ENDBRANCH  10  15
TORSDOF 9
ENDMDL
MODEL 3
REMARK VINA RESULT:      -6.5      2.968      8.368
REMARK  Name = 40779505
REMARK  14 active torsions:
REMARK  status: ('A' for Active; 'I' for Inactive)
REMARK    1  A    between atoms: O_2  and  C_29
REMARK    2  A    between atoms: O_2  and  C_32
REMARK    3  A    between atoms: O_3  and  C_31
REMARK    4  A    between atoms: O_3  and  C_33
REMARK    5  A    between atoms: N_5  and  C_19
REMARK    6  A    between atoms: N_6  and  C_15
REMARK    7  A    between atoms: C_9  and  C_16
REMARK    8  A    between atoms: C_10  and  C_15
REMARK    9  A    between atoms: C_18  and  C_22
REMARK   10  A    between atoms: C_20  and  C_21
REMARK   11  A    between atoms: C_21  and  C_23
REMARK   12  A    between atoms: C_21  and  C_24
REMARK   13  A    between atoms: C_23  and  C_27
REMARK   14  A    between atoms: C_24  and  C_28
REMARK                            x       y       z     vdW  Elec       q    Type
REMARK                         _______ _______ _______ _____ _____    ______ ____
ROOT
ATOM      4  N   UNL     1      -5.792 -12.540  17.211  0.00  0.00    -0.297 NA
ATOM      8  C   UNL     1      -6.158 -10.503  18.792  0.00  0.00    +0.002 C 
ATOM      9  C   UNL     1      -7.507 -11.217  18.503  0.00  0.00    +0.055 C 
ATOM     10  C   UNL     1      -5.132 -11.334  16.646  0.00  0.00    +0.074 C 
ATOM     11  C   UNL     1      -5.510 -10.077  17.457  0.00  0.00    +0.024 C 
ATOM     12  C   UNL     1      -5.226 -11.556  19.431  0.00  0.00    +0.019 C 
ATOM     13  C   UNL     1      -7.241 -12.285  17.404  0.00  0.00    +0.094 C 
ATOM     14  C   UNL     1      -5.189 -12.809  18.539  0.00  0.00    +0.085 C 
ENDROOT
BRANCH   9  16
ATOM      5  N   UNL     1      -9.869 -10.390  18.926  0.00  0.00    -0.270 N 
ATOM      7  N   UNL     1     -10.824  -9.554  18.484  0.00  0.00    -0.171 NA
ATOM     16  C   UNL     1      -8.722 -10.355  18.188  0.00  0.00    +0.044 A 
ATOM     17  C   UNL     1      -8.942  -9.433  17.194  0.00  0.00    +0.053 A 
ATOM     18  C   UNL     1     -10.252  -8.972  17.426  0.00  0.00    +0.093 A 
ATOM     19  C   UNL     1     -10.132 -11.211  20.084  0.00  0.00    +0.172 C 
BRANCH  18  22
ATOM     22  C   UNL     1     -10.967  -7.988  16.656  0.00  0.00    +0.006 A 
ATOM     25  C   UNL     1     -12.361  -8.027  16.597  0.00  0.00    +0.059 A 
ATOM     26  C   UNL     1     -10.268  -6.995  15.971  0.00  0.00    +0.014 A 
ATOM     29  C   UNL     1     -13.055  -7.075  15.850  0.00  0.00    +0.162 A 
ATOM     30  C   UNL     1     -10.962  -6.042  15.224  0.00  0.00    +0.050 A 
ATOM     31  C   UNL     1     -12.355  -6.082  15.164  0.00  0.00    +0.162 A 
BRANCH  29   2
ATOM      2  O   UNL     1     -14.415  -7.124  15.799  0.00  0.00    -0.491 OA
ATOM     32  C   UNL     1     -15.042  -8.281  16.350  0.00  0.00    +0.277 C 
ENDBRANCH  29   2
BRANCH  31   3
ATOM      3  O   UNL     1     -13.021  -5.146  14.432  0.00  0.00    -0.491 OA
ATOM     33  C   UNL     1     -12.369  -4.653  13.264  0.00  0.00    +0.277 C 
ENDBRANCH  31   3
ENDBRANCH  18  22
ENDBRANCH   9  16
BRANCH  10  15
ATOM     15  C   UNL     1      -5.421 -11.158  15.153  0.00  0.00    +0.123 C 
BRANCH  15   6
ATOM      1  O   UNL     1      -3.204 -12.877  14.530  0.00  0.00    -0.276 OA
ATOM      6  N   UNL     1      -4.232 -10.800  14.443  0.00  0.00    -0.314 N 
ATOM     20  C   UNL     1      -3.199 -11.699  14.180  0.00  0.00    +0.216 C 
ATOM     34  H   UNL     1      -4.151  -9.839  14.123  0.00  0.00    +0.149 HD
BRANCH  20  21
ATOM     21  C   UNL     1      -2.031 -11.063  13.420  0.00  0.00    +0.074 C 
BRANCH  21  23
ATOM     23  C   UNL     1      -1.383  -9.911  14.206  0.00  0.00    +0.009 C 
ATOM     27  C   UNL     1      -1.057 -10.298  15.643  0.00  0.00    +0.004 C 
ENDBRANCH  21  23
BRANCH  21  24
ATOM     24  C   UNL     1      -2.491 -10.618  12.016  0.00  0.00    +0.009 C 
ATOM     28  C   UNL     1      -1.588  -9.591  11.344  0.00  0.00    +0.004 C 
ENDBRANCH  21  24
ENDBRANCH  20  21
ENDBRANCH  15   6
ENDBRANCH  10  15
TORSDOF 9
ENDMDL
MODEL 4
REMARK VINA RESULT:      -6.3      1.478      1.967
REMARK  Name = 40779505
REMARK  14 active torsions:
REMARK  status: ('A' for Active; 'I' for Inactive)
REMARK    1  A    between atoms: O_2  and  C_29
REMARK    2  A    between atoms: O_2  and  C_32
REMARK    3  A    between atoms: O_3  and  C_31
REMARK    4  A    between atoms: O_3  and  C_33
REMARK    5  A    between atoms: N_5  and  C_19
REMARK    6  A    between atoms: N_6  and  C_15
REMARK    7  A    between atoms: C_9  and  C_16
REMARK    8  A    between atoms: C_10  and  C_15
REMARK    9  A    between atoms: C_18  and  C_22
REMARK   10  A    between atoms: C_20  and  C_21
REMARK   11  A    between atoms: C_21  and  C_23
REMARK   12  A    between atoms: C_21  and  C_24
REMARK   13  A    between atoms: C_23  and  C_27
REMARK   14  A    between atoms: C_24  and  C_28
REMARK                            x       y       z     vdW  Elec       q    Type
REMARK                         _______ _______ _______ _____ _____    ______ ____
ROOT
ATOM      4  N   UNL     1      -5.376 -10.563  18.464  0.00  0.00    -0.297 NA
ATOM      8  C   UNL     1      -5.152 -12.533  16.774  0.00  0.00    +0.002 C 
ATOM      9  C   UNL     1      -4.081 -11.444  16.485  0.00  0.00    +0.055 C 
ATOM     10  C   UNL     1      -6.702 -10.876  17.869  0.00  0.00    +0.074 C 
ATOM     11  C   UNL     1      -6.556 -11.895  16.719  0.00  0.00    +0.024 C 
ATOM     12  C   UNL     1      -4.925 -13.005  18.227  0.00  0.00    +0.019 C 
ATOM     13  C   UNL     1      -4.406 -10.223  17.393  0.00  0.00    +0.094 C 
ATOM     14  C   UNL     1      -4.890 -11.781  19.158  0.00  0.00    +0.085 C 
ENDROOT
BRANCH   9  16
ATOM      5  N   UNL     1      -2.601 -10.777  14.535  0.00  0.00    -0.270 N 
ATOM      7  N   UNL     1      -2.603 -10.435  13.235  0.00  0.00    -0.171 NA
ATOM     16  C   UNL     1      -3.842 -11.038  15.038  0.00  0.00    +0.044 A 
ATOM     17  C   UNL     1      -4.716 -10.854  13.995  0.00  0.00    +0.053 A 
ATOM     18  C   UNL     1      -3.898 -10.484  12.910  0.00  0.00    +0.093 A 
ATOM     19  C   UNL     1      -1.346 -10.832  15.248  0.00  0.00    +0.172 C 
BRANCH  18  22
ATOM     22  C   UNL     1      -4.329 -10.175  11.572  0.00  0.00    +0.006 A 
ATOM     25  C   UNL     1      -5.679 -10.268  11.236  0.00  0.00    +0.059 A 
ATOM     26  C   UNL     1      -3.397  -9.782  10.612  0.00  0.00    +0.014 A 
ATOM     29  C   UNL     1      -6.098  -9.969   9.939  0.00  0.00    +0.162 A 
ATOM     30  C   UNL     1      -3.814  -9.484   9.315  0.00  0.00    +0.050 A 
ATOM     31  C   UNL     1      -5.165  -9.577   8.979  0.00  0.00    +0.162 A 
BRANCH  29   2
ATOM      2  O   UNL     1      -7.419 -10.064   9.622  0.00  0.00    -0.491 OA
ATOM     32  C   UNL     1      -8.252  -8.962   9.979  0.00  0.00    +0.277 C 
ENDBRANCH  29   2
BRANCH  31   3
ATOM      3  O   UNL     1      -5.561  -9.282   7.709  0.00  0.00    -0.491 OA
ATOM     33  C   UNL     1      -5.512 -10.340   6.754  0.00  0.00    +0.277 C 
ENDBRANCH  31   3
ENDBRANCH  18  22
ENDBRANCH   9  16
BRANCH  10  15
ATOM     15  C   UNL     1      -7.452  -9.618  17.425  0.00  0.00    +0.123 C 
BRANCH  15   6
ATOM      1  O   UNL     1     -10.080 -10.609  16.815  0.00  0.00    -0.276 OA
ATOM      6  N   UNL     1      -8.639  -9.432  18.201  0.00  0.00    -0.314 N 
ATOM     20  C   UNL     1      -9.881  -9.950  17.833  0.00  0.00    +0.216 C 
ATOM     34  H   UNL     1      -8.557  -8.893  19.058  0.00  0.00    +0.149 HD
BRANCH  20  21
ATOM     21  C   UNL     1     -10.995  -9.596  18.824  0.00  0.00    +0.074 C 
BRANCH  21  23
ATOM     23  C   UNL     1     -10.782 -10.254  20.198  0.00  0.00    +0.009 C 
ATOM     27  C   UNL     1     -10.490 -11.746  20.089  0.00  0.00    +0.004 C 
ENDBRANCH  21  23
BRANCH  21  24
ATOM     24  C   UNL     1     -12.372  -9.945  18.222  0.00  0.00    +0.009 C 
ATOM     28  C   UNL     1     -13.541  -9.825  19.193  0.00  0.00    +0.004 C 
ENDBRANCH  21  24
ENDBRANCH  20  21
ENDBRANCH  15   6
ENDBRANCH  10  15
TORSDOF 9
ENDMDL
MODEL 5
REMARK VINA RESULT:      -6.2      1.966      3.172
REMARK  Name = 40779505
REMARK  14 active torsions:
REMARK  status: ('A' for Active; 'I' for Inactive)
REMARK    1  A    between atoms: O_2  and  C_29
REMARK    2  A    between atoms: O_2  and  C_32
REMARK    3  A    between atoms: O_3  and  C_31
REMARK    4  A    between atoms: O_3  and  C_33
REMARK    5  A    between atoms: N_5  and  C_19
REMARK    6  A    between atoms: N_6  and  C_15
REMARK    7  A    between atoms: C_9  and  C_16
REMARK    8  A    between atoms: C_10  and  C_15
REMARK    9  A    between atoms: C_18  and  C_22
REMARK   10  A    between atoms: C_20  and  C_21
REMARK   11  A    between atoms: C_21  and  C_23
REMARK   12  A    between atoms: C_21  and  C_24
REMARK   13  A    between atoms: C_23  and  C_27
REMARK   14  A    between atoms: C_24  and  C_28
REMARK                            x       y       z     vdW  Elec       q    Type
REMARK                         _______ _______ _______ _____ _____    ______ ____
ROOT
ATOM      4  N   UNL     1      -5.989 -10.423  18.040  0.00  0.00    -0.297 NA
ATOM      8  C   UNL     1      -4.572 -12.346  17.002  0.00  0.00    +0.002 C 
ATOM      9  C   UNL     1      -4.037 -10.964  16.536  0.00  0.00    +0.055 C 
ATOM     10  C   UNL     1      -6.884 -11.435  17.419  0.00  0.00    +0.074 C 
ATOM     11  C   UNL     1      -6.063 -12.471  16.622  0.00  0.00    +0.024 C 
ATOM     12  C   UNL     1      -4.495 -12.355  18.545  0.00  0.00    +0.019 C 
ATOM     13  C   UNL     1      -5.046  -9.887  17.026  0.00  0.00    +0.094 C 
ATOM     14  C   UNL     1      -5.198 -11.101  19.095  0.00  0.00    +0.085 C 
ENDROOT
BRANCH   9  16
ATOM      5  N   UNL     1      -2.404 -10.559  14.636  0.00  0.00    -0.270 N 
ATOM      7  N   UNL     1      -2.297 -10.436  13.302  0.00  0.00    -0.171 NA
ATOM     16  C   UNL     1      -3.678 -10.792  15.067  0.00  0.00    +0.044 A 
ATOM     17  C   UNL     1      -4.458 -10.823  13.937  0.00  0.00    +0.053 A 
ATOM     18  C   UNL     1      -3.555 -10.598  12.880  0.00  0.00    +0.093 A 
ATOM     19  C   UNL     1      -1.220 -10.437  15.453  0.00  0.00    +0.172 C 
BRANCH  18  22
ATOM     22  C   UNL     1      -3.870 -10.534  11.477  0.00  0.00    +0.006 A 
ATOM     25  C   UNL     1      -4.381 -11.656  10.825  0.00  0.00    +0.059 A 
ATOM     26  C   UNL     1      -3.664  -9.350  10.769  0.00  0.00    +0.014 A 
ATOM     29  C   UNL     1      -4.686 -11.595   9.465  0.00  0.00    +0.162 A 
ATOM     30  C   UNL     1      -3.969  -9.288   9.409  0.00  0.00    +0.050 A 
ATOM     31  C   UNL     1      -4.480 -10.410   8.757  0.00  0.00    +0.162 A 
BRANCH  29   2
ATOM      2  O   UNL     1      -5.185 -12.697   8.840  0.00  0.00    -0.491 OA
ATOM     32  C   UNL     1      -4.308 -13.814   8.697  0.00  0.00    +0.277 C 
ENDBRANCH  29   2
BRANCH  31   3
ATOM      3  O   UNL     1      -4.775 -10.338   7.429  0.00  0.00    -0.491 OA
ATOM     33  C   UNL     1      -6.037  -9.774   7.077  0.00  0.00    +0.277 C 
ENDBRANCH  31   3
ENDBRANCH  18  22
ENDBRANCH   9  16
BRANCH  10  15
ATOM     15  C   UNL     1      -7.980 -10.796  16.564  0.00  0.00    +0.123 C 
BRANCH  15   6
ATOM      1  O   UNL     1      -9.156  -9.372  14.362  0.00  0.00    -0.276 OA
ATOM      6  N   UNL     1      -7.734 -11.016  15.172  0.00  0.00    -0.314 N 
ATOM     20  C   UNL     1      -8.348 -10.276  14.162  0.00  0.00    +0.216 C 
ATOM     34  H   UNL     1      -7.078 -11.751  14.925  0.00  0.00    +0.149 HD
BRANCH  20  21
ATOM     21  C   UNL     1      -7.927 -10.718  12.757  0.00  0.00    +0.074 C 
BRANCH  21  23
ATOM     23  C   UNL     1      -8.518  -9.815  11.661  0.00  0.00    +0.009 C 
ATOM     27  C   UNL     1      -7.442  -9.108  10.846  0.00  0.00    +0.004 C 
ENDBRANCH  21  23
BRANCH  21  24
ATOM     24  C   UNL     1      -8.286 -12.203  12.538  0.00  0.00    +0.009 C 
ATOM     28  C   UNL     1      -9.659 -12.444  11.923  0.00  0.00    +0.004 C 
ENDBRANCH  21  24
ENDBRANCH  20  21
ENDBRANCH  15   6
ENDBRANCH  10  15
TORSDOF 9
ENDMDL
MODEL 6
REMARK VINA RESULT:      -6.1     21.697     25.933
REMARK  Name = 40779505
REMARK  14 active torsions:
REMARK  status: ('A' for Active; 'I' for Inactive)
REMARK    1  A    between atoms: O_2  and  C_29
REMARK    2  A    between atoms: O_2  and  C_32
REMARK    3  A    between atoms: O_3  and  C_31
REMARK    4  A    between atoms: O_3  and  C_33
REMARK    5  A    between atoms: N_5  and  C_19
REMARK    6  A    between atoms: N_6  and  C_15
REMARK    7  A    between atoms: C_9  and  C_16
REMARK    8  A    between atoms: C_10  and  C_15
REMARK    9  A    between atoms: C_18  and  C_22
REMARK   10  A    between atoms: C_20  and  C_21
REMARK   11  A    between atoms: C_21  and  C_23
REMARK   12  A    between atoms: C_21  and  C_24
REMARK   13  A    between atoms: C_23  and  C_27
REMARK   14  A    between atoms: C_24  and  C_28
REMARK                            x       y       z     vdW  Elec       q    Type
REMARK                         _______ _______ _______ _____ _____    ______ ____
ROOT
ATOM      4  N   UNL     1     -12.283   9.617  34.173  0.00  0.00    -0.297 NA
ATOM      8  C   UNL     1     -14.730   9.192  33.387  0.00  0.00    +0.002 C 
ATOM      9  C   UNL     1     -14.146   7.920  34.061  0.00  0.00    +0.055 C 
ATOM     10  C   UNL     1     -12.443  10.042  32.757  0.00  0.00    +0.074 C 
ATOM     11  C   UNL     1     -13.820   9.610  32.212  0.00  0.00    +0.024 C 
ATOM     12  C   UNL     1     -14.660  10.323  34.437  0.00  0.00    +0.019 C 
ATOM     13  C   UNL     1     -12.634   8.182  34.316  0.00  0.00    +0.094 C 
ATOM     14  C   UNL     1     -13.229  10.409  34.995  0.00  0.00    +0.085 C 
ENDROOT
BRANCH   9  16
ATOM      5  N   UNL     1     -14.328   5.388  34.061  0.00  0.00    -0.270 N 
ATOM      7  N   UNL     1     -14.578   4.316  33.290  0.00  0.00    -0.171 NA
ATOM     16  C   UNL     1     -14.394   6.575  33.391  0.00  0.00    +0.044 A 
ATOM     17  C   UNL     1     -14.708   6.258  32.093  0.00  0.00    +0.053 A 
ATOM     18  C   UNL     1     -14.810   4.853  32.089  0.00  0.00    +0.093 A 
ATOM     19  C   UNL     1     -14.024   5.196  35.460  0.00  0.00    +0.172 C 
BRANCH  18  22
ATOM     22  C   UNL     1     -15.122   4.015  30.961  0.00  0.00    +0.006 A 
ATOM     25  C   UNL     1     -14.601   2.723  30.886  0.00  0.00    +0.059 A 
ATOM     26  C   UNL     1     -15.946   4.494  29.943  0.00  0.00    +0.014 A 
ATOM     29  C   UNL     1     -14.903   1.911  29.793  0.00  0.00    +0.162 A 
ATOM     30  C   UNL     1     -16.248   3.683  28.850  0.00  0.00    +0.050 A 
ATOM     31  C   UNL     1     -15.727   2.391  28.774  0.00  0.00    +0.162 A 
BRANCH  29   2
ATOM      2  O   UNL     1     -14.388   0.651  29.731  0.00  0.00    -0.491 OA
ATOM     32  C   UNL     1     -14.933  -0.316  30.626  0.00  0.00    +0.277 C 
ENDBRANCH  29   2
BRANCH  31   3
ATOM      3  O   UNL     1     -16.029   1.607  27.702  0.00  0.00    -0.491 OA
ATOM     33  C   UNL     1     -17.396   1.233  27.540  0.00  0.00    +0.277 C 
ENDBRANCH  31   3
ENDBRANCH  18  22
ENDBRANCH   9  16
BRANCH  10  15
ATOM     15  C   UNL     1     -11.298   9.550  31.869  0.00  0.00    +0.123 C 
BRANCH  15   6
ATOM      1  O   UNL     1     -10.866  11.647  29.952  0.00  0.00    -0.276 OA
ATOM      6  N   UNL     1     -11.686   9.546  30.492  0.00  0.00    -0.314 N 
ATOM     20  C   UNL     1     -11.437  10.610  29.625  0.00  0.00    +0.216 C 
ATOM     34  H   UNL     1     -12.168   8.722  30.146  0.00  0.00    +0.149 HD
BRANCH  20  21
ATOM     21  C   UNL     1     -11.968  10.364  28.209  0.00  0.00    +0.074 C 
BRANCH  21  23
ATOM     23  C   UNL     1     -11.075  11.004  27.133  0.00  0.00    +0.009 C 
ATOM     27  C   UNL     1      -9.863  10.144  26.797  0.00  0.00    +0.004 C 
ENDBRANCH  21  23
BRANCH  21  24
ATOM     24  C   UNL     1     -13.432  10.840  28.102  0.00  0.00    +0.009 C 
ATOM     28  C   UNL     1     -14.090  10.580  26.752  0.00  0.00    +0.004 C 
ENDBRANCH  21  24
ENDBRANCH  20  21
ENDBRANCH  15   6
ENDBRANCH  10  15
TORSDOF 9
ENDMDL
MODEL 7
REMARK VINA RESULT:      -6.1     24.337     28.055
REMARK  Name = 40779505
REMARK  14 active torsions:
REMARK  status: ('A' for Active; 'I' for Inactive)
REMARK    1  A    between atoms: O_2  and  C_29
REMARK    2  A    between atoms: O_2  and  C_32
REMARK    3  A    between atoms: O_3  and  C_31
REMARK    4  A    between atoms: O_3  and  C_33
REMARK    5  A    between atoms: N_5  and  C_19
REMARK    6  A    between atoms: N_6  and  C_15
REMARK    7  A    between atoms: C_9  and  C_16
REMARK    8  A    between atoms: C_10  and  C_15
REMARK    9  A    between atoms: C_18  and  C_22
REMARK   10  A    between atoms: C_20  and  C_21
REMARK   11  A    between atoms: C_21  and  C_23
REMARK   12  A    between atoms: C_21  and  C_24
REMARK   13  A    between atoms: C_23  and  C_27
REMARK   14  A    between atoms: C_24  and  C_28
REMARK                            x       y       z     vdW  Elec       q    Type
REMARK                         _______ _______ _______ _____ _____    ______ ____
ROOT
ATOM      4  N   UNL     1      14.328   6.033  -0.370  0.00  0.00    -0.297 NA
ATOM      8  C   UNL     1      13.236   4.044   0.909  0.00  0.00    +0.002 C 
ATOM      9  C   UNL     1      12.212   5.198   0.720  0.00  0.00    +0.055 C 
ATOM     10  C   UNL     1      15.201   5.615   0.759  0.00  0.00    +0.074 C 
ATOM     11  C   UNL     1      14.479   4.582   1.650  0.00  0.00    +0.024 C 
ATOM     12  C   UNL     1      13.698   3.624  -0.504  0.00  0.00    +0.019 C 
ATOM     13  C   UNL     1      12.986   6.414   0.137  0.00  0.00    +0.094 C 
ATOM     14  C   UNL     1      14.167   4.870  -1.276  0.00  0.00    +0.085 C 
ENDROOT
BRANCH   9  16
ATOM      5  N   UNL     1      10.264   6.416   1.796  0.00  0.00    -0.270 N 
ATOM      7  N   UNL     1       9.625   6.632   2.959  0.00  0.00    -0.171 NA
ATOM     16  C   UNL     1      11.339   5.584   1.905  0.00  0.00    +0.044 A 
ATOM     17  C   UNL     1      11.409   5.231   3.231  0.00  0.00    +0.053 A 
ATOM     18  C   UNL     1      10.329   5.906   3.832  0.00  0.00    +0.093 A 
ATOM     19  C   UNL     1       9.778   7.055   0.596  0.00  0.00    +0.172 C 
BRANCH  18  22
ATOM     22  C   UNL     1       9.958   5.871   5.222  0.00  0.00    +0.006 A 
ATOM     25  C   UNL     1       9.403   7.001   5.824  0.00  0.00    +0.059 A 
ATOM     26  C   UNL     1      10.152   4.708   5.967  0.00  0.00    +0.014 A 
ATOM     29  C   UNL     1       9.044   6.968   7.172  0.00  0.00    +0.162 A 
ATOM     30  C   UNL     1       9.793   4.675   7.315  0.00  0.00    +0.050 A 
ATOM     31  C   UNL     1       9.239   5.805   7.917  0.00  0.00    +0.162 A 
BRANCH  29   2
ATOM      2  O   UNL     1       8.504   8.078   7.749  0.00  0.00    -0.491 OA
ATOM     32  C   UNL     1       9.395   9.151   8.049  0.00  0.00    +0.277 C 
ENDBRANCH  29   2
BRANCH  31   3
ATOM      3  O   UNL     1       8.892   5.761   9.234  0.00  0.00    -0.491 OA
ATOM     33  C   UNL     1       9.244   4.583   9.957  0.00  0.00    +0.277 C 
ENDBRANCH  31   3
ENDBRANCH  18  22
ENDBRANCH   9  16
BRANCH  10  15
ATOM     15  C   UNL     1      15.714   6.807   1.570  0.00  0.00    +0.123 C 
BRANCH  15   6
ATOM      1  O   UNL     1      14.293   8.733   3.160  0.00  0.00    -0.276 OA
ATOM      6  N   UNL     1      15.352   6.680   2.947  0.00  0.00    -0.314 N 
ATOM     20  C   UNL     1      14.658   7.666   3.649  0.00  0.00    +0.216 C 
ATOM     34  H   UNL     1      15.623   5.825   3.424  0.00  0.00    +0.149 HD
BRANCH  20  21
ATOM     21  C   UNL     1      14.408   7.295   5.114  0.00  0.00    +0.074 C 
BRANCH  21  23
ATOM     23  C   UNL     1      13.033   7.775   5.609  0.00  0.00    +0.009 C 
ATOM     27  C   UNL     1      13.145   8.815   6.717  0.00  0.00    +0.004 C 
ENDBRANCH  21  23
BRANCH  21  24
ATOM     24  C   UNL     1      15.557   7.820   5.999  0.00  0.00    +0.009 C 
ATOM     28  C   UNL     1      16.560   8.714   5.278  0.00  0.00    +0.004 C 
ENDBRANCH  21  24
ENDBRANCH  20  21
ENDBRANCH  15   6
ENDBRANCH  10  15
TORSDOF 9
ENDMDL
MODEL 8
REMARK VINA RESULT:      -6.1      2.255      5.478
REMARK  Name = 40779505
REMARK  14 active torsions:
REMARK  status: ('A' for Active; 'I' for Inactive)
REMARK    1  A    between atoms: O_2  and  C_29
REMARK    2  A    between atoms: O_2  and  C_32
REMARK    3  A    between atoms: O_3  and  C_31
REMARK    4  A    between atoms: O_3  and  C_33
REMARK    5  A    between atoms: N_5  and  C_19
REMARK    6  A    between atoms: N_6  and  C_15
REMARK    7  A    between atoms: C_9  and  C_16
REMARK    8  A    between atoms: C_10  and  C_15
REMARK    9  A    between atoms: C_18  and  C_22
REMARK   10  A    between atoms: C_20  and  C_21
REMARK   11  A    between atoms: C_21  and  C_23
REMARK   12  A    between atoms: C_21  and  C_24
REMARK   13  A    between atoms: C_23  and  C_27
REMARK   14  A    between atoms: C_24  and  C_28
REMARK                            x       y       z     vdW  Elec       q    Type
REMARK                         _______ _______ _______ _____ _____    ______ ____
ROOT
ATOM      4  N   UNL     1      -6.857 -12.670  18.542  0.00  0.00    -0.297 NA
ATOM      8  C   UNL     1      -6.394 -10.159  18.025  0.00  0.00    +0.002 C 
ATOM      9  C   UNL     1      -7.584 -10.680  17.172  0.00  0.00    +0.055 C 
ATOM     10  C   UNL     1      -5.411 -12.467  18.264  0.00  0.00    +0.074 C 
ATOM     11  C   UNL     1      -5.151 -11.033  17.755  0.00  0.00    +0.024 C 
ATOM     12  C   UNL     1      -6.783 -10.371  19.505  0.00  0.00    +0.019 C 
ATOM     13  C   UNL     1      -7.667 -12.219  17.383  0.00  0.00    +0.094 C 
ATOM     14  C   UNL     1      -7.217 -11.832  19.712  0.00  0.00    +0.085 C 
ENDROOT
BRANCH   9  16
ATOM      5  N   UNL     1      -8.715  -9.695  15.125  0.00  0.00    -0.270 N 
ATOM      7  N   UNL     1      -8.560  -9.439  13.814  0.00  0.00    -0.171 NA
ATOM     16  C   UNL     1      -7.633 -10.296  15.700  0.00  0.00    +0.044 A 
ATOM     17  C   UNL     1      -6.707 -10.444  14.696  0.00  0.00    +0.053 A 
ATOM     18  C   UNL     1      -7.332  -9.898  13.558  0.00  0.00    +0.093 A 
ATOM     19  C   UNL     1      -9.952  -9.331  15.774  0.00  0.00    +0.172 C 
BRANCH  18  22
ATOM     22  C   UNL     1      -6.779  -9.808  12.232  0.00  0.00    +0.006 A 
ATOM     25  C   UNL     1      -5.433  -9.488  12.058  0.00  0.00    +0.059 A 
ATOM     26  C   UNL     1      -7.589 -10.043  11.121  0.00  0.00    +0.014 A 
ATOM     29  C   UNL     1      -4.896  -9.400  10.773  0.00  0.00    +0.162 A 
ATOM     30  C   UNL     1      -7.054  -9.956   9.837  0.00  0.00    +0.050 A 
ATOM     31  C   UNL     1      -5.707  -9.634   9.662  0.00  0.00    +0.162 A 
BRANCH  29   2
ATOM      2  O   UNL     1      -3.580  -9.086  10.616  0.00  0.00    -0.491 OA
ATOM     32  C   UNL     1      -2.627 -10.055  11.049  0.00  0.00    +0.277 C 
ENDBRANCH  29   2
BRANCH  31   3
ATOM      3  O   UNL     1      -5.195  -9.552   8.403  0.00  0.00    -0.491 OA
ATOM     33  C   UNL     1      -6.120  -9.638   7.321  0.00  0.00    +0.277 C 
ENDBRANCH  31   3
ENDBRANCH  18  22
ENDBRANCH   9  16
BRANCH  10  15
ATOM     15  C   UNL     1      -4.848 -13.522  17.309  0.00  0.00    +0.123 C 
BRANCH  15   6
ATOM      1  O   UNL     1      -5.121 -13.834  14.465  0.00  0.00    -0.276 OA
ATOM      6  N   UNL     1      -4.038 -12.915  16.299  0.00  0.00    -0.314 N 
ATOM     20  C   UNL     1      -4.238 -13.119  14.934  0.00  0.00    +0.216 C 
ATOM     34  H   UNL     1      -3.283 -12.311  16.608  0.00  0.00    +0.149 HD
BRANCH  20  21
ATOM     21  C   UNL     1      -3.225 -12.370  14.062  0.00  0.00    +0.074 C 
BRANCH  21  23
ATOM     23  C   UNL     1      -1.889 -13.121  13.946  0.00  0.00    +0.009 C 
ATOM     27  C   UNL     1      -1.937 -14.238  12.910  0.00  0.00    +0.004 C 
ENDBRANCH  21  23
BRANCH  21  24
ATOM     24  C   UNL     1      -3.036 -10.931  14.586  0.00  0.00    +0.009 C 
ATOM     28  C   UNL     1      -1.617 -10.596  15.029  0.00  0.00    +0.004 C 
ENDBRANCH  21  24
ENDBRANCH  20  21
ENDBRANCH  15   6
ENDBRANCH  10  15
TORSDOF 9
ENDMDL
MODEL 9
REMARK VINA RESULT:      -6.1     19.707     22.645
REMARK  Name = 40779505
REMARK  14 active torsions:
REMARK  status: ('A' for Active; 'I' for Inactive)
REMARK    1  A    between atoms: O_2  and  C_29
REMARK    2  A    between atoms: O_2  and  C_32
REMARK    3  A    between atoms: O_3  and  C_31
REMARK    4  A    between atoms: O_3  and  C_33
REMARK    5  A    between atoms: N_5  and  C_19
REMARK    6  A    between atoms: N_6  and  C_15
REMARK    7  A    between atoms: C_9  and  C_16
REMARK    8  A    between atoms: C_10  and  C_15
REMARK    9  A    between atoms: C_18  and  C_22
REMARK   10  A    between atoms: C_20  and  C_21
REMARK   11  A    between atoms: C_21  and  C_23
REMARK   12  A    between atoms: C_21  and  C_24
REMARK   13  A    between atoms: C_23  and  C_27
REMARK   14  A    between atoms: C_24  and  C_28
REMARK                            x       y       z     vdW  Elec       q    Type
REMARK                         _______ _______ _______ _____ _____    ______ ____
ROOT
ATOM      4  N   UNL     1       4.953 -10.377  37.164  0.00  0.00    -0.297 NA
ATOM      8  C   UNL     1       3.321 -10.462  35.135  0.00  0.00    +0.002 C 
ATOM      9  C   UNL     1       4.243 -11.713  35.145  0.00  0.00    +0.055 C 
ATOM     10  C   UNL     1       4.989  -9.086  36.428  0.00  0.00    +0.074 C 
ATOM     11  C   UNL     1       4.191  -9.188  35.111  0.00  0.00    +0.024 C 
ATOM     12  C   UNL     1       2.556 -10.463  36.477  0.00  0.00    +0.019 C 
ATOM     13  C   UNL     1       5.312 -11.492  36.253  0.00  0.00    +0.094 C 
ATOM     14  C   UNL     1       3.563 -10.593  37.634  0.00  0.00    +0.085 C 
ENDROOT
BRANCH   9  16
ATOM      5  N   UNL     1       4.264 -13.059  32.994  0.00  0.00    -0.270 N 
ATOM      7  N   UNL     1       4.972 -13.321  31.881  0.00  0.00    -0.171 NA
ATOM     16  C   UNL     1       4.861 -12.160  33.828  0.00  0.00    +0.044 A 
ATOM     17  C   UNL     1       6.042 -11.809  33.220  0.00  0.00    +0.053 A 
ATOM     18  C   UNL     1       6.057 -12.555  32.025  0.00  0.00    +0.093 A 
ATOM     19  C   UNL     1       2.997 -13.723  33.196  0.00  0.00    +0.172 C 
BRANCH  18  22
ATOM     22  C   UNL     1       7.087 -12.550  31.020  0.00  0.00    +0.006 A 
ATOM     25  C   UNL     1       6.804 -12.994  29.728  0.00  0.00    +0.059 A 
ATOM     26  C   UNL     1       8.369 -12.101  31.336  0.00  0.00    +0.014 A 
ATOM     29  C   UNL     1       7.802 -12.991  28.754  0.00  0.00    +0.162 A 
ATOM     30  C   UNL     1       9.368 -12.097  30.363  0.00  0.00    +0.050 A 
ATOM     31  C   UNL     1       9.084 -12.542  29.072  0.00  0.00    +0.162 A 
BRANCH  29   2
ATOM      2  O   UNL     1       7.513 -13.427  27.496  0.00  0.00    -0.491 OA
ATOM     32  C   UNL     1       7.116 -14.791  27.359  0.00  0.00    +0.277 C 
ENDBRANCH  29   2
BRANCH  31   3
ATOM      3  O   UNL     1      10.067 -12.533  28.128  0.00  0.00    -0.491 OA
ATOM     33  C   UNL     1      11.154 -13.437  28.318  0.00  0.00    +0.277 C 
ENDBRANCH  31   3
ENDBRANCH  18  22
ENDBRANCH   9  16
BRANCH  10  15
ATOM     15  C   UNL     1       6.418  -8.590  36.192  0.00  0.00    +0.123 C 
BRANCH  15   6
ATOM      1  O   UNL     1       7.670  -6.459  34.726  0.00  0.00    -0.276 OA
ATOM      6  N   UNL     1       6.729  -8.578  34.796  0.00  0.00    -0.314 N 
ATOM     20  C   UNL     1       7.341  -7.499  34.159  0.00  0.00    +0.216 C 
ATOM     34  H   UNL     1       6.484  -9.403  34.256  0.00  0.00    +0.149 HD
BRANCH  20  21
ATOM     21  C   UNL     1       7.550  -7.729  32.659  0.00  0.00    +0.074 C 
BRANCH  21  23
ATOM     23  C   UNL     1       6.289  -8.283  31.974  0.00  0.00    +0.009 C 
ATOM     27  C   UNL     1       6.593  -8.924  30.626  0.00  0.00    +0.004 C 
ENDBRANCH  21  23
BRANCH  21  24
ATOM     24  C   UNL     1       8.778  -8.633  32.426  0.00  0.00    +0.009 C 
ATOM     28  C   UNL     1      10.123  -7.932  32.575  0.00  0.00    +0.004 C 
ENDBRANCH  21  24
ENDBRANCH  20  21
ENDBRANCH  15   6
ENDBRANCH  10  15
TORSDOF 9
ENDMDL
MODEL 10
REMARK VINA RESULT:      -6.0     24.380     27.172
REMARK  Name = 40779505
REMARK  14 active torsions:
REMARK  status: ('A' for Active; 'I' for Inactive)
REMARK    1  A    between atoms: O_2  and  C_29
REMARK    2  A    between atoms: O_2  and  C_32
REMARK    3  A    between atoms: O_3  and  C_31
REMARK    4  A    between atoms: O_3  and  C_33
REMARK    5  A    between atoms: N_5  and  C_19
REMARK    6  A    between atoms: N_6  and  C_15
REMARK    7  A    between atoms: C_9  and  C_16
REMARK    8  A    between atoms: C_10  and  C_15
REMARK    9  A    between atoms: C_18  and  C_22
REMARK   10  A    between atoms: C_20  and  C_21
REMARK   11  A    between atoms: C_21  and  C_23
REMARK   12  A    between atoms: C_21  and  C_24
REMARK   13  A    between atoms: C_23  and  C_27
REMARK   14  A    between atoms: C_24  and  C_28
REMARK                            x       y       z     vdW  Elec       q    Type
REMARK                         _______ _______ _______ _____ _____    ______ ____
ROOT
ATOM      4  N   UNL     1      10.520   5.815   7.763  0.00  0.00    -0.297 NA
ATOM      8  C   UNL     1       9.380   7.682   6.348  0.00  0.00    +0.002 C 
ATOM      9  C   UNL     1       9.263   6.307   5.632  0.00  0.00    +0.055 C 
ATOM     10  C   UNL     1      11.442   6.972   7.611  0.00  0.00    +0.074 C 
ATOM     11  C   UNL     1      10.869   7.996   6.608  0.00  0.00    +0.024 C 
ATOM     12  C   UNL     1       8.703   7.523   7.727  0.00  0.00    +0.019 C 
ATOM     13  C   UNL     1      10.133   5.294   6.429  0.00  0.00    +0.094 C 
ATOM     14  C   UNL     1       9.294   6.297   8.445  0.00  0.00    +0.085 C 
ENDROOT
BRANCH   9  16
ATOM      5  N   UNL     1       9.064   7.184   3.259  0.00  0.00    -0.270 N 
ATOM      7  N   UNL     1       9.416   6.956   1.982  0.00  0.00    -0.171 NA
ATOM     16  C   UNL     1       9.536   6.252   4.136  0.00  0.00    +0.044 A 
ATOM     17  C   UNL     1      10.245   5.350   3.380  0.00  0.00    +0.053 A 
ATOM     18  C   UNL     1      10.137   5.834   2.062  0.00  0.00    +0.093 A 
ATOM     19  C   UNL     1       8.257   8.340   3.572  0.00  0.00    +0.172 C 
BRANCH  18  22
ATOM     22  C   UNL     1      10.707   5.244   0.879  0.00  0.00    +0.006 A 
ATOM     25  C   UNL     1      11.929   4.575   0.953  0.00  0.00    +0.059 A 
ATOM     26  C   UNL     1      10.039   5.342  -0.341  0.00  0.00    +0.014 A 
ATOM     29  C   UNL     1      12.483   4.004  -0.193  0.00  0.00    +0.162 A 
ATOM     30  C   UNL     1      10.592   4.772  -1.487  0.00  0.00    +0.050 A 
ATOM     31  C   UNL     1      11.814   4.103  -1.413  0.00  0.00    +0.162 A 
BRANCH  29   2
ATOM      2  O   UNL     1      13.676   3.353  -0.108  0.00  0.00    -0.491 OA
ATOM     32  C   UNL     1      14.852   4.122  -0.354  0.00  0.00    +0.277 C 
ENDBRANCH  29   2
BRANCH  31   3
ATOM      3  O   UNL     1      12.344   3.549  -2.539  0.00  0.00    -0.491 OA
ATOM     33  C   UNL     1      11.969   2.205  -2.838  0.00  0.00    +0.277 C 
ENDBRANCH  31   3
ENDBRANCH  18  22
ENDBRANCH   9  16
BRANCH  10  15
ATOM     15  C   UNL     1      12.861   6.540   7.237  0.00  0.00    +0.123 C 
BRANCH  15   6
ATOM      1  O   UNL     1      14.871   8.423   6.419  0.00  0.00    -0.276 OA
ATOM      6  N   UNL     1      13.176   6.929   5.897  0.00  0.00    -0.314 N 
ATOM     20  C   UNL     1      14.171   7.854   5.584  0.00  0.00    +0.216 C 
ATOM     34  H   UNL     1      12.637   6.503   5.149  0.00  0.00    +0.149 HD
BRANCH  20  21
ATOM     21  C   UNL     1      14.298   8.110   4.079  0.00  0.00    +0.074 C 
BRANCH  21  23
ATOM     23  C   UNL     1      12.968   7.895   3.338  0.00  0.00    +0.009 C 
ATOM     27  C   UNL     1      12.184   9.190   3.162  0.00  0.00    +0.004 C 
ENDBRANCH  21  23
BRANCH  21  24
ATOM     24  C   UNL     1      15.435   7.250   3.488  0.00  0.00    +0.009 C 
ATOM     28  C   UNL     1      14.987   6.223   2.455  0.00  0.00    +0.004 C 
ENDBRANCH  21  24
ENDBRANCH  20  21
ENDBRANCH  15   6
ENDBRANCH  10  15
TORSDOF 9
ENDMDL
