REMARK  Name = 45783575
REMARK  6 active torsions:
REMARK  status: ('A' for Active; 'I' for Inactive)
REMARK    1  A    between atoms: O_2  and  C_20
REMARK    2  A    between atoms: O_2  and  C_29
REMARK    3  A    between atoms: N_4  and  C_9
REMARK    4  A    between atoms: C_10  and  C_18
REMARK    5  A    between atoms: C_19  and  C_27
REMARK    6  A    between atoms: C_26  and  C_28
REMARK                            x       y       z     vdW  Elec       q    Type
REMARK                         _______ _______ _______ _____ _____    ______ ____
ROOT
ATOM      1  O   UNL     1       1.448   2.388   1.873  0.00  0.00    -0.336 OA
ATOM      6  N   UNL     1       1.120   1.513  -0.162  0.00  0.00    -0.190 NA
ATOM      7  N   UNL     1       0.090   2.055   1.807  0.00  0.00    -0.056 NA
ATOM     18  C   UNL     1       1.981   2.037   0.674  0.00  0.00    +0.245 A 
ATOM     26  C   UNL     1      -0.026   1.545   0.578  0.00  0.00    +0.204 A 
ENDROOT
BRANCH  26  28
ATOM      8  N   UNL     1      -3.632   0.655   0.390  0.00  0.00    -0.221 NA
ATOM     28  C   UNL     1      -1.272   1.060   0.057  0.00  0.00    +0.041 A 
ATOM     29  C   UNL     1      -3.675   0.154  -0.865  0.00  0.00    +0.215 A 
ATOM     30  C   UNL     1      -1.356   0.536  -1.228  0.00  0.00    +0.018 A 
ATOM     31  C   UNL     1      -2.428   1.097   0.819  0.00  0.00    +0.126 A 
ATOM     32  C   UNL     1      -2.576   0.073  -1.706  0.00  0.00    +0.068 A 
BRANCH  29   2
ATOM      2  O   UNL     1      -4.889  -0.297  -1.312  0.00  0.00    -0.473 OA
BRANCH   2  20
ATOM     20  C   UNL     1      -5.984  -0.190  -0.409  0.00  0.00    +0.175 C 
ATOM     21  C   UNL     1      -7.276   0.036  -1.193  0.00  0.00    +0.044 C 
ATOM     22  C   UNL     1      -6.062  -1.450   0.453  0.00  0.00    +0.044 C 
ATOM     23  C   UNL     1      -8.493   0.060  -0.274  0.00  0.00    +0.004 C 
ATOM     24  C   UNL     1      -7.279  -1.426   1.372  0.00  0.00    +0.004 C 
ATOM     25  C   UNL     1      -8.570  -1.198   0.589  0.00  0.00    +0.000 C 
ENDBRANCH   2  20
ENDBRANCH  29   2
ENDBRANCH  26  28
BRANCH  18  10
ATOM      4  N   UNL     1       4.085   1.372  -0.476  0.00  0.00    -0.288 NA
ATOM     10  C   UNL     1       3.461   2.298   0.490  0.00  0.00    +0.146 C 
ATOM     11  C   UNL     1       5.201   2.098  -1.083  0.00  0.00    +0.085 C 
ATOM     12  C   UNL     1       3.752   3.702  -0.071  0.00  0.00    +0.030 C 
ATOM     15  C   UNL     1       4.594   3.467  -1.316  0.00  0.00    +0.017 C 
BRANCH   4   9
ATOM      3  O   UNL     1       4.523  -4.746  -0.908  0.00  0.00    -0.276 OA
ATOM      5  N   UNL     1       4.351  -2.773   0.306  0.00  0.00    -0.302 N 
ATOM      9  C   UNL     1       4.513   0.112   0.128  0.00  0.00    +0.060 C 
ATOM     13  C   UNL     1       5.140  -0.796  -0.938  0.00  0.00    +0.038 C 
ATOM     14  C   UNL     1       3.319  -0.586   0.792  0.00  0.00    +0.038 C 
ATOM     16  C   UNL     1       5.507  -2.157  -0.347  0.00  0.00    +0.109 C 
ATOM     17  C   UNL     1       3.722  -1.951   1.348  0.00  0.00    +0.109 C 
ATOM     19  C   UNL     1       3.955  -4.061  -0.053  0.00  0.00    +0.212 C 
ATOM     27  C   UNL     1       2.754  -4.624   0.663  0.00  0.00    +0.109 C 
ENDBRANCH   4   9
ENDBRANCH  18  10
TORSDOF 5
