MODEL 1
REMARK VINA RESULT:      -6.4      0.000      0.000
REMARK  Name = 75367647
REMARK  7 active torsions:
REMARK  status: ('A' for Active; 'I' for Inactive)
REMARK    1  A    between atoms: O_2  and  C_7
REMARK    2  A    between atoms: O_2  and  C_15
REMARK    3  A    between atoms: O_3  and  C_18
REMARK    4  A    between atoms: O_3  and  C_24
REMARK    5  A    between atoms: N_4  and  C_10
REMARK    6  A    between atoms: C_10  and  C_12
REMARK    7  A    between atoms: C_20  and  C_23
REMARK                            x       y       z     vdW  Elec       q    Type
REMARK                         _______ _______ _______ _____ _____    ______ ____
ROOT
ATOM      1  O   UNL     1      12.565   9.775  17.187  0.00  0.00    -0.375 OA
ATOM      4  N   UNL     1      13.974   7.914  19.256  0.00  0.00    -0.292 NA
ATOM      6  C   UNL     1      13.852   9.120  20.082  0.00  0.00    +0.131 C 
ATOM      7  C   UNL     1      13.137  10.337  19.471  0.00  0.00    +0.215 C 
ATOM      8  C   UNL     1      12.811   7.641  18.410  0.00  0.00    +0.113 C 
ATOM      9  C   UNL     1      13.432  10.564  17.996  0.00  0.00    +0.205 C 
ATOM     11  C   UNL     1      12.934   8.406  17.091  0.00  0.00    +0.175 C 
ENDROOT
BRANCH   7   2
ATOM      2  O   UNL     1      13.551  11.501  20.189  0.00  0.00    -0.469 OA
BRANCH   2  15
ATOM      5  N   UNL     1      12.151  11.599  22.033  0.00  0.00    -0.218 NA
ATOM     15  C   UNL     1      12.581  12.168  20.885  0.00  0.00    +0.215 A 
ATOM     19  C   UNL     1      12.098  13.366  20.385  0.00  0.00    +0.067 A 
ATOM     20  C   UNL     1      11.192  12.267  22.711  0.00  0.00    +0.042 A 
ATOM     21  C   UNL     1      11.111  14.023  21.110  0.00  0.00    +0.007 A 
ATOM     22  C   UNL     1      10.644  13.470  22.297  0.00  0.00    +0.023 A 
ATOM     23  C   UNL     1      10.711  11.642  23.980  0.00  0.00    +0.066 C 
ENDBRANCH   2  15
ENDBRANCH   7   2
BRANCH   4  10
ATOM     10  C   UNL     1      14.308   6.762  20.094  0.00  0.00    +0.119 C 
BRANCH  10  12
ATOM     12  C   UNL     1      15.794   6.525  20.156  0.00  0.00    -0.033 A 
ATOM     13  C   UNL     1      16.466   6.022  19.042  0.00  0.00    +0.008 A 
ATOM     14  C   UNL     1      16.497   6.806  21.328  0.00  0.00    +0.008 A 
ATOM     16  C   UNL     1      17.842   5.802  19.101  0.00  0.00    +0.046 A 
ATOM     17  C   UNL     1      17.873   6.585  21.385  0.00  0.00    +0.046 A 
ATOM     18  C   UNL     1      18.546   6.083  20.271  0.00  0.00    +0.120 A 
BRANCH  18   3
ATOM      3  O   UNL     1      19.888   5.867  20.328  0.00  0.00    -0.495 OA
ATOM     24  C   UNL     1      20.712   6.985  20.649  0.00  0.00    +0.277 C 
ENDBRANCH  18   3
ENDBRANCH  10  12
ENDBRANCH   4  10
TORSDOF 5
ENDMDL
MODEL 2
REMARK VINA RESULT:      -6.1      2.606      8.401
REMARK  Name = 75367647
REMARK  7 active torsions:
REMARK  status: ('A' for Active; 'I' for Inactive)
REMARK    1  A    between atoms: O_2  and  C_7
REMARK    2  A    between atoms: O_2  and  C_15
REMARK    3  A    between atoms: O_3  and  C_18
REMARK    4  A    between atoms: O_3  and  C_24
REMARK    5  A    between atoms: N_4  and  C_10
REMARK    6  A    between atoms: C_10  and  C_12
REMARK    7  A    between atoms: C_20  and  C_23
REMARK                            x       y       z     vdW  Elec       q    Type
REMARK                         _______ _______ _______ _____ _____    ______ ____
ROOT
ATOM      1  O   UNL     1      12.670   7.106  21.635  0.00  0.00    -0.375 OA
ATOM      4  N   UNL     1      12.298  10.200  21.515  0.00  0.00    -0.292 NA
ATOM      6  C   UNL     1      13.665  10.115  20.990  0.00  0.00    +0.131 C 
ATOM      7  C   UNL     1      14.277   8.717  20.810  0.00  0.00    +0.215 C 
ATOM      8  C   UNL     1      11.403   9.143  21.042  0.00  0.00    +0.113 C 
ATOM      9  C   UNL     1      13.921   7.727  21.910  0.00  0.00    +0.205 C 
ATOM     11  C   UNL     1      11.536   7.908  21.934  0.00  0.00    +0.175 C 
ENDROOT
BRANCH   7   2
ATOM      2  O   UNL     1      15.699   8.854  20.784  0.00  0.00    -0.469 OA
BRANCH   2  15
ATOM      5  N   UNL     1      17.643   7.591  20.782  0.00  0.00    -0.218 NA
ATOM     15  C   UNL     1      16.406   7.800  20.276  0.00  0.00    +0.215 A 
ATOM     19  C   UNL     1      15.832   7.018  19.287  0.00  0.00    +0.067 A 
ATOM     20  C   UNL     1      18.332   6.547  20.271  0.00  0.00    +0.042 A 
ATOM     21  C   UNL     1      16.572   5.954  18.786  0.00  0.00    +0.007 A 
ATOM     22  C   UNL     1      17.847   5.706  19.282  0.00  0.00    +0.023 A 
ATOM     23  C   UNL     1      19.699   6.312  20.824  0.00  0.00    +0.066 C 
ENDBRANCH   2  15
ENDBRANCH   7   2
BRANCH   4  10
ATOM     10  C   UNL     1      11.742  11.529  21.256  0.00  0.00    +0.119 C 
BRANCH  10  12
ATOM     12  C   UNL     1      11.346  12.230  22.528  0.00  0.00    -0.033 A 
ATOM     13  C   UNL     1      11.711  11.692  23.763  0.00  0.00    +0.008 A 
ATOM     14  C   UNL     1      10.613  13.415  22.473  0.00  0.00    +0.008 A 
ATOM     16  C   UNL     1      11.343  12.342  24.941  0.00  0.00    +0.046 A 
ATOM     17  C   UNL     1      10.246  14.063  23.652  0.00  0.00    +0.046 A 
ATOM     18  C   UNL     1      10.611  13.527  24.886  0.00  0.00    +0.120 A 
BRANCH  18   3
ATOM      3  O   UNL     1      10.252  14.159  26.036  0.00  0.00    -0.495 OA
ATOM     24  C   UNL     1      11.266  14.899  26.714  0.00  0.00    +0.277 C 
ENDBRANCH  18   3
ENDBRANCH  10  12
ENDBRANCH   4  10
TORSDOF 5
ENDMDL
MODEL 3
REMARK VINA RESULT:      -6.1     27.645     29.052
REMARK  Name = 75367647
REMARK  7 active torsions:
REMARK  status: ('A' for Active; 'I' for Inactive)
REMARK    1  A    between atoms: O_2  and  C_7
REMARK    2  A    between atoms: O_2  and  C_15
REMARK    3  A    between atoms: O_3  and  C_18
REMARK    4  A    between atoms: O_3  and  C_24
REMARK    5  A    between atoms: N_4  and  C_10
REMARK    6  A    between atoms: C_10  and  C_12
REMARK    7  A    between atoms: C_20  and  C_23
REMARK                            x       y       z     vdW  Elec       q    Type
REMARK                         _______ _______ _______ _____ _____    ______ ____
ROOT
ATOM      1  O   UNL     1      -3.447 -13.789  14.991  0.00  0.00    -0.375 OA
ATOM      4  N   UNL     1      -2.875 -11.535  12.913  0.00  0.00    -0.292 NA
ATOM      6  C   UNL     1      -3.483 -10.720  13.969  0.00  0.00    +0.131 C 
ATOM      7  C   UNL     1      -3.892 -11.426  15.272  0.00  0.00    +0.215 C 
ATOM      8  C   UNL     1      -1.985 -12.590  13.400  0.00  0.00    +0.113 C 
ATOM      9  C   UNL     1      -4.482 -12.815  15.076  0.00  0.00    +0.205 C 
ATOM     11  C   UNL     1      -2.794 -13.845  13.731  0.00  0.00    +0.175 C 
ENDROOT
BRANCH   7   2
ATOM      2  O   UNL     1      -4.872 -10.618  15.926  0.00  0.00    -0.469 OA
BRANCH   2  15
ATOM      5  N   UNL     1      -6.470 -10.838  17.591  0.00  0.00    -0.218 NA
ATOM     15  C   UNL     1      -5.175 -10.950  17.218  0.00  0.00    +0.215 A 
ATOM     19  C   UNL     1      -4.159 -11.371  18.060  0.00  0.00    +0.067 A 
ATOM     20  C   UNL     1      -6.756 -11.167  18.870  0.00  0.00    +0.042 A 
ATOM     21  C   UNL     1      -4.493 -11.700  19.369  0.00  0.00    +0.007 A 
ATOM     22  C   UNL     1      -5.814 -11.600  19.790  0.00  0.00    +0.023 A 
ATOM     23  C   UNL     1      -8.184 -11.045  19.289  0.00  0.00    +0.066 C 
ENDBRANCH   2  15
ENDBRANCH   7   2
BRANCH   4  10
ATOM     10  C   UNL     1      -2.202 -10.675  11.938  0.00  0.00    +0.119 C 
BRANCH  10  12
ATOM     12  C   UNL     1      -3.058 -10.426  10.725  0.00  0.00    -0.033 A 
ATOM     13  C   UNL     1      -3.648 -11.498  10.056  0.00  0.00    +0.008 A 
ATOM     14  C   UNL     1      -3.257  -9.123  10.268  0.00  0.00    +0.008 A 
ATOM     16  C   UNL     1      -4.440 -11.267   8.931  0.00  0.00    +0.046 A 
ATOM     17  C   UNL     1      -4.049  -8.893   9.142  0.00  0.00    +0.046 A 
ATOM     18  C   UNL     1      -4.641  -9.965   8.474  0.00  0.00    +0.120 A 
BRANCH  18   3
ATOM      3  O   UNL     1      -5.412  -9.740   7.376  0.00  0.00    -0.495 OA
ATOM     24  C   UNL     1      -5.503 -10.794   6.420  0.00  0.00    +0.277 C 
ENDBRANCH  18   3
ENDBRANCH  10  12
ENDBRANCH   4  10
TORSDOF 5
ENDMDL
MODEL 4
REMARK VINA RESULT:      -6.1     27.910     29.212
REMARK  Name = 75367647
REMARK  7 active torsions:
REMARK  status: ('A' for Active; 'I' for Inactive)
REMARK    1  A    between atoms: O_2  and  C_7
REMARK    2  A    between atoms: O_2  and  C_15
REMARK    3  A    between atoms: O_3  and  C_18
REMARK    4  A    between atoms: O_3  and  C_24
REMARK    5  A    between atoms: N_4  and  C_10
REMARK    6  A    between atoms: C_10  and  C_12
REMARK    7  A    between atoms: C_20  and  C_23
REMARK                            x       y       z     vdW  Elec       q    Type
REMARK                         _______ _______ _______ _____ _____    ______ ____
ROOT
ATOM      1  O   UNL     1      -2.759 -14.528  14.457  0.00  0.00    -0.375 OA
ATOM      4  N   UNL     1      -2.692 -11.959  12.690  0.00  0.00    -0.292 NA
ATOM      6  C   UNL     1      -3.730 -11.552  13.643  0.00  0.00    +0.131 C 
ATOM      7  C   UNL     1      -4.075 -12.523  14.784  0.00  0.00    +0.215 C 
ATOM      8  C   UNL     1      -1.579 -12.698  13.288  0.00  0.00    +0.113 C 
ATOM      9  C   UNL     1      -4.075 -13.991  14.381  0.00  0.00    +0.205 C 
ATOM     11  C   UNL     1      -1.921 -14.187  13.361  0.00  0.00    +0.175 C 
ENDROOT
BRANCH   7   2
ATOM      2  O   UNL     1      -5.380 -12.197  15.264  0.00  0.00    -0.469 OA
BRANCH   2  15
ATOM      5  N   UNL     1      -4.510 -12.181  17.413  0.00  0.00    -0.218 NA
ATOM     15  C   UNL     1      -5.463 -11.753  16.555  0.00  0.00    +0.215 A 
ATOM     19  C   UNL     1      -6.501 -10.906  16.910  0.00  0.00    +0.067 A 
ATOM     20  C   UNL     1      -4.604 -11.737  18.686  0.00  0.00    +0.042 A 
ATOM     21  C   UNL     1      -6.564 -10.470  18.228  0.00  0.00    +0.007 A 
ATOM     22  C   UNL     1      -5.601 -10.888  19.140  0.00  0.00    +0.023 A 
ATOM     23  C   UNL     1      -3.555 -12.208  19.638  0.00  0.00    +0.066 C 
ENDBRANCH   2  15
ENDBRANCH   7   2
BRANCH   4  10
ATOM     10  C   UNL     1      -2.219 -10.797  11.935  0.00  0.00    +0.119 C 
BRANCH  10  12
ATOM     12  C   UNL     1      -3.089 -10.514  10.739  0.00  0.00    -0.033 A 
ATOM     13  C   UNL     1      -3.705 -11.565  10.060  0.00  0.00    +0.008 A 
ATOM     14  C   UNL     1      -3.275  -9.200  10.308  0.00  0.00    +0.008 A 
ATOM     16  C   UNL     1      -4.510 -11.302   8.952  0.00  0.00    +0.046 A 
ATOM     17  C   UNL     1      -4.079  -8.938   9.199  0.00  0.00    +0.046 A 
ATOM     18  C   UNL     1      -4.697  -9.989   8.521  0.00  0.00    +0.120 A 
BRANCH  18   3
ATOM      3  O   UNL     1      -5.482  -9.733   7.439  0.00  0.00    -0.495 OA
ATOM     24  C   UNL     1      -5.442 -10.677   6.371  0.00  0.00    +0.277 C 
ENDBRANCH  18   3
ENDBRANCH  10  12
ENDBRANCH   4  10
TORSDOF 5
ENDMDL
MODEL 5
REMARK VINA RESULT:      -6.0      2.819      4.506
REMARK  Name = 75367647
REMARK  7 active torsions:
REMARK  status: ('A' for Active; 'I' for Inactive)
REMARK    1  A    between atoms: O_2  and  C_7
REMARK    2  A    between atoms: O_2  and  C_15
REMARK    3  A    between atoms: O_3  and  C_18
REMARK    4  A    between atoms: O_3  and  C_24
REMARK    5  A    between atoms: N_4  and  C_10
REMARK    6  A    between atoms: C_10  and  C_12
REMARK    7  A    between atoms: C_20  and  C_23
REMARK                            x       y       z     vdW  Elec       q    Type
REMARK                         _______ _______ _______ _____ _____    ______ ____
ROOT
ATOM      1  O   UNL     1      15.904   6.097  19.009  0.00  0.00    -0.375 OA
ATOM      4  N   UNL     1      17.698   7.840  20.872  0.00  0.00    -0.292 NA
ATOM      6  C   UNL     1      16.402   8.471  21.149  0.00  0.00    +0.131 C 
ATOM      7  C   UNL     1      15.158   7.881  20.466  0.00  0.00    +0.215 C 
ATOM      8  C   UNL     1      17.644   6.383  20.740  0.00  0.00    +0.113 C 
ATOM      9  C   UNL     1      15.386   7.423  19.032  0.00  0.00    +0.205 C 
ATOM     11  C   UNL     1      17.291   6.002  19.302  0.00  0.00    +0.175 C 
ENDROOT
BRANCH   7   2
ATOM      2  O   UNL     1      14.141   8.884  20.452  0.00  0.00    -0.469 OA
BRANCH   2  15
ATOM      5  N   UNL     1      12.601   7.258  21.049  0.00  0.00    -0.218 NA
ATOM     15  C   UNL     1      12.956   8.562  21.054  0.00  0.00    +0.215 A 
ATOM     19  C   UNL     1      12.195   9.570  21.622  0.00  0.00    +0.067 A 
ATOM     20  C   UNL     1      11.428   6.952  21.645  0.00  0.00    +0.042 A 
ATOM     21  C   UNL     1      10.993   9.217  22.226  0.00  0.00    +0.007 A 
ATOM     22  C   UNL     1      10.595   7.885  22.242  0.00  0.00    +0.023 A 
ATOM     23  C   UNL     1      11.030   5.513  21.641  0.00  0.00    +0.066 C 
ENDBRANCH   2  15
ENDBRANCH   7   2
BRANCH   4  10
ATOM     10  C   UNL     1      18.681   8.251  21.874  0.00  0.00    +0.119 C 
BRANCH  10  12
ATOM     12  C   UNL     1      19.928   7.409  21.816  0.00  0.00    -0.033 A 
ATOM     13  C   UNL     1      20.694   7.378  20.651  0.00  0.00    +0.008 A 
ATOM     14  C   UNL     1      20.315   6.659  22.926  0.00  0.00    +0.008 A 
ATOM     16  C   UNL     1      21.849   6.597  20.597  0.00  0.00    +0.046 A 
ATOM     17  C   UNL     1      21.470   5.878  22.871  0.00  0.00    +0.046 A 
ATOM     18  C   UNL     1      22.237   5.848  21.706  0.00  0.00    +0.120 A 
BRANCH  18   3
ATOM      3  O   UNL     1      23.363   5.085  21.653  0.00  0.00    -0.495 OA
ATOM     24  C   UNL     1      23.848   4.734  20.358  0.00  0.00    +0.277 C 
ENDBRANCH  18   3
ENDBRANCH  10  12
ENDBRANCH   4  10
TORSDOF 5
ENDMDL
MODEL 6
REMARK VINA RESULT:      -5.9      2.063      3.094
REMARK  Name = 75367647
REMARK  7 active torsions:
REMARK  status: ('A' for Active; 'I' for Inactive)
REMARK    1  A    between atoms: O_2  and  C_7
REMARK    2  A    between atoms: O_2  and  C_15
REMARK    3  A    between atoms: O_3  and  C_18
REMARK    4  A    between atoms: O_3  and  C_24
REMARK    5  A    between atoms: N_4  and  C_10
REMARK    6  A    between atoms: C_10  and  C_12
REMARK    7  A    between atoms: C_20  and  C_23
REMARK                            x       y       z     vdW  Elec       q    Type
REMARK                         _______ _______ _______ _____ _____    ______ ____
ROOT
ATOM      1  O   UNL     1      15.057  11.845  21.857  0.00  0.00    -0.375 OA
ATOM      4  N   UNL     1      14.757   8.875  20.951  0.00  0.00    -0.292 NA
ATOM      6  C   UNL     1      13.444   9.054  21.581  0.00  0.00    +0.131 C 
ATOM      7  C   UNL     1      13.104  10.443  22.145  0.00  0.00    +0.215 C 
ATOM      8  C   UNL     1      15.222  10.032  20.185  0.00  0.00    +0.113 C 
ATOM      9  C   UNL     1      14.271  11.150  22.819  0.00  0.00    +0.205 C 
ATOM     11  C   UNL     1      15.938  11.017  21.110  0.00  0.00    +0.175 C 
ENDROOT
BRANCH   7   2
ATOM      2  O   UNL     1      12.064  10.287  23.112  0.00  0.00    -0.469 OA
BRANCH   2  15
ATOM      5  N   UNL     1      11.034  12.294  22.580  0.00  0.00    -0.218 NA
ATOM     15  C   UNL     1      11.445  11.431  23.535  0.00  0.00    +0.215 A 
ATOM     19  C   UNL     1      11.279  11.642  24.894  0.00  0.00    +0.067 A 
ATOM     20  C   UNL     1      10.425  13.421  23.010  0.00  0.00    +0.042 A 
ATOM     21  C   UNL     1      10.650  12.814  25.299  0.00  0.00    +0.007 A 
ATOM     22  C   UNL     1      10.210  13.725  24.345  0.00  0.00    +0.023 A 
ATOM     23  C   UNL     1       9.970  14.379  21.960  0.00  0.00    +0.066 C 
ENDBRANCH   2  15
ENDBRANCH   7   2
BRANCH   4  10
ATOM     10  C   UNL     1      14.763   7.657  20.140  0.00  0.00    +0.119 C 
BRANCH  10  12
ATOM     12  C   UNL     1      16.113   6.990  20.140  0.00  0.00    -0.033 A 
ATOM     13  C   UNL     1      16.981   7.171  21.217  0.00  0.00    +0.008 A 
ATOM     14  C   UNL     1      16.497   6.193  19.061  0.00  0.00    +0.008 A 
ATOM     16  C   UNL     1      18.231   6.554  21.215  0.00  0.00    +0.046 A 
ATOM     17  C   UNL     1      17.748   5.576  19.060  0.00  0.00    +0.046 A 
ATOM     18  C   UNL     1      18.615   5.756  20.138  0.00  0.00    +0.120 A 
BRANCH  18   3
ATOM      3  O   UNL     1      19.836   5.155  20.136  0.00  0.00    -0.495 OA
ATOM     24  C   UNL     1      20.773   5.586  21.122  0.00  0.00    +0.277 C 
ENDBRANCH  18   3
ENDBRANCH  10  12
ENDBRANCH   4  10
TORSDOF 5
ENDMDL
MODEL 7
REMARK VINA RESULT:      -5.9      3.173      6.270
REMARK  Name = 75367647
REMARK  7 active torsions:
REMARK  status: ('A' for Active; 'I' for Inactive)
REMARK    1  A    between atoms: O_2  and  C_7
REMARK    2  A    between atoms: O_2  and  C_15
REMARK    3  A    between atoms: O_3  and  C_18
REMARK    4  A    between atoms: O_3  and  C_24
REMARK    5  A    between atoms: N_4  and  C_10
REMARK    6  A    between atoms: C_10  and  C_12
REMARK    7  A    between atoms: C_20  and  C_23
REMARK                            x       y       z     vdW  Elec       q    Type
REMARK                         _______ _______ _______ _____ _____    ______ ____
ROOT
ATOM      1  O   UNL     1      13.652  10.118  14.960  0.00  0.00    -0.375 OA
ATOM      4  N   UNL     1      13.770  11.249  17.865  0.00  0.00    -0.292 NA
ATOM      6  C   UNL     1      13.506   9.840  18.180  0.00  0.00    +0.131 C 
ATOM      7  C   UNL     1      13.421   8.848  17.008  0.00  0.00    +0.215 C 
ATOM      8  C   UNL     1      14.701  11.455  16.754  0.00  0.00    +0.113 C 
ATOM      9  C   UNL     1      12.728   9.397  15.769  0.00  0.00    +0.205 C 
ATOM     11  C   UNL     1      13.944  11.428  15.426  0.00  0.00    +0.175 C 
ENDROOT
BRANCH   7   2
ATOM      2  O   UNL     1      12.692   7.702  17.450  0.00  0.00    -0.469 OA
BRANCH   2  15
ATOM      5  N   UNL     1      11.668   7.505  19.520  0.00  0.00    -0.218 NA
ATOM     15  C   UNL     1      12.792   7.388  18.777  0.00  0.00    +0.215 A 
ATOM     19  C   UNL     1      14.015   6.977  19.281  0.00  0.00    +0.067 A 
ATOM     20  C   UNL     1      11.780   7.193  20.831  0.00  0.00    +0.042 A 
ATOM     21  C   UNL     1      14.091   6.666  20.634  0.00  0.00    +0.007 A 
ATOM     22  C   UNL     1      12.956   6.772  21.431  0.00  0.00    +0.023 A 
ATOM     23  C   UNL     1      10.543   7.323  21.657  0.00  0.00    +0.066 C 
ENDBRANCH   2  15
ENDBRANCH   7   2
BRANCH   4  10
ATOM     10  C   UNL     1      14.204  11.960  19.067  0.00  0.00    +0.119 C 
BRANCH  10  12
ATOM     12  C   UNL     1      13.344  11.627  20.258  0.00  0.00    -0.033 A 
ATOM     13  C   UNL     1      12.164  12.335  20.485  0.00  0.00    +0.008 A 
ATOM     14  C   UNL     1      13.730  10.612  21.134  0.00  0.00    +0.008 A 
ATOM     16  C   UNL     1      11.369  12.026  21.589  0.00  0.00    +0.046 A 
ATOM     17  C   UNL     1      12.934  10.305  22.237  0.00  0.00    +0.046 A 
ATOM     18  C   UNL     1      11.753  11.012  22.465  0.00  0.00    +0.120 A 
BRANCH  18   3
ATOM      3  O   UNL     1      10.977  10.712  23.542  0.00  0.00    -0.495 OA
ATOM     24  C   UNL     1      11.212  11.454  24.737  0.00  0.00    +0.277 C 
ENDBRANCH  18   3
ENDBRANCH  10  12
ENDBRANCH   4  10
TORSDOF 5
ENDMDL
MODEL 8
REMARK VINA RESULT:      -5.8      2.296      7.779
REMARK  Name = 75367647
REMARK  7 active torsions:
REMARK  status: ('A' for Active; 'I' for Inactive)
REMARK    1  A    between atoms: O_2  and  C_7
REMARK    2  A    between atoms: O_2  and  C_15
REMARK    3  A    between atoms: O_3  and  C_18
REMARK    4  A    between atoms: O_3  and  C_24
REMARK    5  A    between atoms: N_4  and  C_10
REMARK    6  A    between atoms: C_10  and  C_12
REMARK    7  A    between atoms: C_20  and  C_23
REMARK                            x       y       z     vdW  Elec       q    Type
REMARK                         _______ _______ _______ _____ _____    ______ ____
ROOT
ATOM      1  O   UNL     1      15.009   6.664  18.345  0.00  0.00    -0.375 OA
ATOM      4  N   UNL     1      13.869   9.353  19.439  0.00  0.00    -0.292 NA
ATOM      6  C   UNL     1      15.022   9.213  20.336  0.00  0.00    +0.131 C 
ATOM      7  C   UNL     1      15.953   8.009  20.122  0.00  0.00    +0.215 C 
ATOM      8  C   UNL     1      14.128   8.955  18.055  0.00  0.00    +0.113 C 
ATOM      9  C   UNL     1      15.237   6.719  19.749  0.00  0.00    +0.205 C 
ATOM     11  C   UNL     1      13.914   7.449  17.895  0.00  0.00    +0.175 C 
ENDROOT
BRANCH   7   2
ATOM      2  O   UNL     1      16.669   7.781  21.338  0.00  0.00    -0.469 OA
BRANCH   2  15
ATOM      5  N   UNL     1      18.520   6.459  20.890  0.00  0.00    -0.218 NA
ATOM     15  C   UNL     1      18.028   7.670  21.235  0.00  0.00    +0.215 A 
ATOM     19  C   UNL     1      18.814   8.782  21.488  0.00  0.00    +0.067 A 
ATOM     20  C   UNL     1      19.865   6.362  20.794  0.00  0.00    +0.042 A 
ATOM     21  C   UNL     1      20.193   8.644  21.380  0.00  0.00    +0.007 A 
ATOM     22  C   UNL     1      20.737   7.414  21.025  0.00  0.00    +0.023 A 
ATOM     23  C   UNL     1      20.414   5.027  20.415  0.00  0.00    +0.066 C 
ENDBRANCH   2  15
ENDBRANCH   7   2
BRANCH   4  10
ATOM     10  C   UNL     1      13.336  10.713  19.515  0.00  0.00    +0.119 C 
BRANCH  10  12
ATOM     12  C   UNL     1      12.541  10.936  20.774  0.00  0.00    -0.033 A 
ATOM     13  C   UNL     1      12.656  12.141  21.467  0.00  0.00    +0.008 A 
ATOM     14  C   UNL     1      11.692   9.936  21.249  0.00  0.00    +0.008 A 
ATOM     16  C   UNL     1      11.919  12.346  22.634  0.00  0.00    +0.046 A 
ATOM     17  C   UNL     1      10.957  10.141  22.416  0.00  0.00    +0.046 A 
ATOM     18  C   UNL     1      11.070  11.347  23.109  0.00  0.00    +0.120 A 
BRANCH  18   3
ATOM      3  O   UNL     1      10.353  11.547  24.248  0.00  0.00    -0.495 OA
ATOM     24  C   UNL     1      10.990  12.277  25.295  0.00  0.00    +0.277 C 
ENDBRANCH  18   3
ENDBRANCH  10  12
ENDBRANCH   4  10
TORSDOF 5
ENDMDL
MODEL 9
REMARK VINA RESULT:      -5.7     25.949     29.031
REMARK  Name = 75367647
REMARK  7 active torsions:
REMARK  status: ('A' for Active; 'I' for Inactive)
REMARK    1  A    between atoms: O_2  and  C_7
REMARK    2  A    between atoms: O_2  and  C_15
REMARK    3  A    between atoms: O_3  and  C_18
REMARK    4  A    between atoms: O_3  and  C_24
REMARK    5  A    between atoms: N_4  and  C_10
REMARK    6  A    between atoms: C_10  and  C_12
REMARK    7  A    between atoms: C_20  and  C_23
REMARK                            x       y       z     vdW  Elec       q    Type
REMARK                         _______ _______ _______ _____ _____    ______ ____
ROOT
ATOM      1  O   UNL     1     -15.999   7.396  22.111  0.00  0.00    -0.375 OA
ATOM      4  N   UNL     1     -13.141   6.688  21.083  0.00  0.00    -0.292 NA
ATOM      6  C   UNL     1     -13.350   5.544  21.977  0.00  0.00    +0.131 C 
ATOM      7  C   UNL     1     -14.706   5.433  22.693  0.00  0.00    +0.215 C 
ATOM      8  C   UNL     1     -14.325   7.083  20.320  0.00  0.00    +0.113 C 
ATOM      9  C   UNL     1     -15.278   6.763  23.163  0.00  0.00    +0.205 C 
ATOM     11  C   UNL     1     -15.182   8.043  21.146  0.00  0.00    +0.175 C 
ENDROOT
BRANCH   7   2
ATOM      2  O   UNL     1     -14.536   4.595  23.838  0.00  0.00    -0.469 OA
BRANCH   2  15
ATOM      5  N   UNL     1     -16.209   3.159  23.122  0.00  0.00    -0.218 NA
ATOM     15  C   UNL     1     -15.580   3.769  24.151  0.00  0.00    +0.215 A 
ATOM     19  C   UNL     1     -15.933   3.607  25.481  0.00  0.00    +0.067 A 
ATOM     20  C   UNL     1     -17.239   2.347  23.444  0.00  0.00    +0.042 A 
ATOM     21  C   UNL     1     -16.999   2.764  25.773  0.00  0.00    +0.007 A 
ATOM     22  C   UNL     1     -17.670   2.117  24.741  0.00  0.00    +0.023 A 
ATOM     23  C   UNL     1     -17.939   1.671  22.311  0.00  0.00    +0.066 C 
ENDBRANCH   2  15
ENDBRANCH   7   2
BRANCH   4  10
ATOM     10  C   UNL     1     -11.997   6.437  20.205  0.00  0.00    +0.119 C 
BRANCH  10  12
ATOM     12  C   UNL     1     -11.463   7.709  19.602  0.00  0.00    -0.033 A 
ATOM     13  C   UNL     1     -11.017   7.720  18.280  0.00  0.00    +0.008 A 
ATOM     14  C   UNL     1     -11.411   8.875  20.366  0.00  0.00    +0.008 A 
ATOM     16  C   UNL     1     -10.522   8.899  17.722  0.00  0.00    +0.046 A 
ATOM     17  C   UNL     1     -10.915  10.053  19.807  0.00  0.00    +0.046 A 
ATOM     18  C   UNL     1     -10.470  10.064  18.484  0.00  0.00    +0.120 A 
BRANCH  18   3
ATOM      3  O   UNL     1      -9.986  11.214  17.940  0.00  0.00    -0.495 OA
ATOM     24  C   UNL     1     -10.706  12.414  18.212  0.00  0.00    +0.277 C 
ENDBRANCH  18   3
ENDBRANCH  10  12
ENDBRANCH   4  10
TORSDOF 5
ENDMDL
MODEL 10
REMARK VINA RESULT:      -5.7     27.151     29.261
REMARK  Name = 75367647
REMARK  7 active torsions:
REMARK  status: ('A' for Active; 'I' for Inactive)
REMARK    1  A    between atoms: O_2  and  C_7
REMARK    2  A    between atoms: O_2  and  C_15
REMARK    3  A    between atoms: O_3  and  C_18
REMARK    4  A    between atoms: O_3  and  C_24
REMARK    5  A    between atoms: N_4  and  C_10
REMARK    6  A    between atoms: C_10  and  C_12
REMARK    7  A    between atoms: C_20  and  C_23
REMARK                            x       y       z     vdW  Elec       q    Type
REMARK                         _______ _______ _______ _____ _____    ______ ____
ROOT
ATOM      1  O   UNL     1      -3.577 -13.999  13.296  0.00  0.00    -0.375 OA
ATOM      4  N   UNL     1      -2.869 -11.623  15.189  0.00  0.00    -0.292 NA
ATOM      6  C   UNL     1      -2.732 -10.935  13.900  0.00  0.00    +0.131 C 
ATOM      7  C   UNL     1      -3.054 -11.732  12.626  0.00  0.00    +0.215 C 
ATOM      8  C   UNL     1      -3.995 -12.556  15.259  0.00  0.00    +0.113 C 
ATOM      9  C   UNL     1      -2.598 -13.184  12.660  0.00  0.00    +0.205 C 
ATOM     11  C   UNL     1      -3.575 -13.922  14.715  0.00  0.00    +0.175 C 
ENDROOT
BRANCH   7   2
ATOM      2  O   UNL     1      -2.404 -11.092  11.526  0.00  0.00    -0.469 OA
BRANCH   2  15
ATOM      5  N   UNL     1      -3.914 -11.548   9.827  0.00  0.00    -0.218 NA
ATOM     15  C   UNL     1      -3.212 -10.627  10.525  0.00  0.00    +0.215 A 
ATOM     19  C   UNL     1      -3.264  -9.264  10.281  0.00  0.00    +0.067 A 
ATOM     20  C   UNL     1      -4.707 -11.076   8.840  0.00  0.00    +0.042 A 
ATOM     21  C   UNL     1      -4.091  -8.817   9.257  0.00  0.00    +0.007 A 
ATOM     22  C   UNL     1      -4.830  -9.734   8.518  0.00  0.00    +0.023 A 
ATOM     23  C   UNL     1      -5.483 -12.089   8.064  0.00  0.00    +0.066 C 
ENDBRANCH   2  15
ENDBRANCH   7   2
BRANCH   4  10
ATOM     10  C   UNL     1      -2.915 -10.646  16.277  0.00  0.00    +0.119 C 
BRANCH  10  12
ATOM     12  C   UNL     1      -4.260 -10.620  16.953  0.00  0.00    -0.033 A 
ATOM     13  C   UNL     1      -4.443 -11.282  18.168  0.00  0.00    +0.008 A 
ATOM     14  C   UNL     1      -5.324  -9.937  16.364  0.00  0.00    +0.008 A 
ATOM     16  C   UNL     1      -5.690 -11.259  18.793  0.00  0.00    +0.046 A 
ATOM     17  C   UNL     1      -6.570  -9.915  16.989  0.00  0.00    +0.046 A 
ATOM     18  C   UNL     1      -6.753 -10.576  18.205  0.00  0.00    +0.120 A 
BRANCH  18   3
ATOM      3  O   UNL     1      -7.969 -10.554  18.814  0.00  0.00    -0.495 OA
ATOM     24  C   UNL     1      -8.478 -11.799  19.291  0.00  0.00    +0.277 C 
ENDBRANCH  18   3
ENDBRANCH  10  12
ENDBRANCH   4  10
TORSDOF 5
ENDMDL
