REMARK  Name = 71693045
REMARK  9 active torsions:
REMARK  status: ('A' for Active; 'I' for Inactive)
REMARK    1  A    between atoms: N_1  and  C_12
REMARK    2  A    between atoms: C_4  and  C_8
REMARK    3  A    between atoms: C_6  and  C_12
REMARK    4  A    between atoms: C_7  and  C_11
REMARK    5  A    between atoms: C_8  and  C_13
REMARK    6  A    between atoms: C_8  and  C_14
REMARK    7  A    between atoms: C_9  and  C_15
REMARK    8  A    between atoms: C_11  and  C_16
REMARK    9  A    between atoms: C_21  and  C_23
REMARK                            x       y       z     vdW  Elec       q    Type
REMARK                         _______ _______ _______ _____ _____    ______ ____
ROOT
ATOM      4  C   UNL     1      -2.606   1.085   0.153  0.00  0.00    +0.000 C 
ATOM      5  C   UNL     1      -1.361   0.217   0.382  0.00  0.00    +0.012 C 
ATOM      6  C   UNL     1      -3.893   0.245   0.335  0.00  0.00    +0.029 C 
ATOM      7  C   UNL     1      -1.301  -1.022  -0.538  0.00  0.00    +0.022 C 
ATOM      9  C   UNL     1      -2.656  -1.682  -0.737  0.00  0.00    -0.073 C 
ATOM     10  C   UNL     1      -3.802  -1.105  -0.329  0.00  0.00    -0.023 C 
ATOM     15  C   UNL     1      -2.688  -2.996  -1.468  0.00  0.00    +0.039 C 
ENDROOT
BRANCH   4   8
ATOM      8  C   UNL     1      -2.568   1.757  -1.226  0.00  0.00    -0.013 C 
ATOM     13  C   UNL     1      -3.530   2.940  -1.269  0.00  0.00    +0.007 C 
ATOM     14  C   UNL     1      -1.148   2.203  -1.561  0.00  0.00    +0.007 C 
ENDBRANCH   4   8
BRANCH   7  11
ATOM     11  C   UNL     1      -0.242  -1.987   0.010  0.00  0.00    +0.082 C 
BRANCH  11  16
ATOM      2  N   UNL     1       1.891  -1.026  -0.877  0.00  0.00    -0.342 N 
ATOM      3  N   UNL     1       1.613  -0.903   1.324  0.00  0.00    -0.232 NA
ATOM     16  C   UNL     1       1.083  -1.303   0.190  0.00  0.00    +0.109 A 
ATOM     17  C   UNL     1       3.017  -0.405  -0.401  0.00  0.00    +0.066 A 
ATOM     18  C   UNL     1       2.819  -0.340   0.976  0.00  0.00    +0.089 A 
ATOM     19  C   UNL     1       4.156   0.090  -1.036  0.00  0.00    +0.031 A 
ATOM     20  C   UNL     1       3.807   0.250   1.782  0.00  0.00    +0.030 A 
ATOM     21  C   UNL     1       5.129   0.674  -0.218  0.00  0.00    -0.048 A 
ATOM     22  C   UNL     1       4.960   0.754   1.166  0.00  0.00    +0.005 A 
ATOM     23  C   UNL     1       6.372   1.223  -0.839  0.00  0.00    +0.044 C 
ATOM     26  H   UNL     1       1.694  -1.238  -1.847  0.00  0.00    +0.167 HD
ENDBRANCH  11  16
ENDBRANCH   7  11
BRANCH   6  12
ATOM     12  C   UNL     1      -4.240   0.057   1.815  0.00  0.00    +0.085 C 
BRANCH  12   1
ATOM      1  N   UNL     1      -4.812   1.272   2.367  0.00  0.00    -0.329 NA
ATOM     24  H   UNL     1      -4.123   2.022   2.364  0.00  0.00    +0.118 HD
ATOM     25  H   UNL     1      -5.056   1.119   3.345  0.00  0.00    +0.118 HD
ENDBRANCH  12   1
ENDBRANCH   6  12
TORSDOF 5
