MODEL 1
REMARK VINA RESULT:      -7.0      0.000      0.000
REMARK  Name = 26763399
REMARK  8 active torsions:
REMARK  status: ('A' for Active; 'I' for Inactive)
REMARK    1  A    between atoms: O_6  and  C_15
REMARK    2  A    between atoms: O_6  and  C_19
REMARK    3  A    between atoms: O_8  and  C_20
REMARK    4  A    between atoms: O_8  and  C_27
REMARK    5  A    between atoms: N_10  and  C_14
REMARK    6  A    between atoms: N_11  and  C_21
REMARK    7  A    between atoms: C_19  and  C_20
REMARK    8  A    between atoms: C_24  and  C_28
REMARK                            x       y       z     vdW  Elec       q    Type
REMARK                         _______ _______ _______ _____ _____    ______ ____
ROOT
ATOM      7  O   UNL     1      12.055   6.602   4.100  0.00  0.00    -0.252 OA
ATOM     10  N   UNL     1      11.657   4.678   2.882  0.00  0.00    -0.292 N 
ATOM     11  N   UNL     1      10.374   5.095   4.741  0.00  0.00    -0.269 N 
ATOM     18  C   UNL     1      11.416   5.566   3.938  0.00  0.00    +0.304 C 
ATOM     29  H   UNL     1      11.041   3.877   2.777  0.00  0.00    +0.151 HD
ATOM     30  H   UNL     1       9.949   4.213   4.467  0.00  0.00    +0.156 HD
ENDROOT
BRANCH  10  14
ATOM      4  O   UNL     1      12.668   3.011   0.436  0.00  0.00    -0.369 OA
ATOM      5  O   UNL     1      13.056   5.974  -0.250  0.00  0.00    -0.369 OA
ATOM     12  C   UNL     1      12.070   5.302   0.561  0.00  0.00    +0.172 C 
ATOM     13  C   UNL     1      11.767   3.983  -0.120  0.00  0.00    +0.180 C 
ATOM     14  C   UNL     1      12.676   4.896   1.885  0.00  0.00    +0.131 C 
ATOM     15  C   UNL     1      12.087   4.280  -1.565  0.00  0.00    +0.176 C 
ATOM     16  C   UNL     1      13.388   3.603   1.529  0.00  0.00    +0.185 C 
ATOM     17  C   UNL     1      13.273   5.209  -1.445  0.00  0.00    +0.194 C 
BRANCH  15   6
ATOM      6  O   UNL     1      12.389   3.130  -2.323  0.00  0.00    -0.360 OA
BRANCH   6  19
ATOM     19  C   UNL     1      11.573   3.032  -3.488  0.00  0.00    +0.280 C 
BRANCH  19  20
ATOM      9  O   UNL     1      10.125   1.300  -2.601  0.00  0.00    -0.248 OA
ATOM     20  C   UNL     1      10.256   2.407  -3.108  0.00  0.00    +0.333 C 
BRANCH  20   8
ATOM      8  O   UNL     1       9.248   3.272  -3.422  0.00  0.00    -0.466 OA
ATOM     27  C   UNL     1       9.537   4.199  -4.473  0.00  0.00    +0.280 C 
ENDBRANCH  20   8
ENDBRANCH  19  20
ENDBRANCH   6  19
ENDBRANCH  15   6
ENDBRANCH  10  14
BRANCH  11  21
ATOM     21  C   UNL     1       9.831   5.697   5.900  0.00  0.00    +0.035 A 
ATOM     22  C   UNL     1       9.857   5.017   7.117  0.00  0.00    +0.035 A 
ATOM     23  C   UNL     1       9.270   6.972   5.825  0.00  0.00    +0.023 A 
ATOM     24  C   UNL     1       9.323   5.612   8.261  0.00  0.00    +0.057 A 
ATOM     25  C   UNL     1       8.734   7.566   6.968  0.00  0.00    +0.002 A 
ATOM     26  C   UNL     1       8.761   6.886   8.186  0.00  0.00    +0.012 A 
BRANCH  24  28
ATOM      1  F   UNL     1      10.425   5.223  10.331  0.00  0.00    -0.166 F 
ATOM      2  F   UNL     1       8.254   5.119  10.343  0.00  0.00    -0.166 F 
ATOM      3  F   UNL     1       9.407   3.526   9.430  0.00  0.00    -0.166 F 
ATOM     28  C   UNL     1       9.350   4.885   9.562  0.00  0.00    +0.417 C 
ENDBRANCH  24  28
ENDBRANCH  11  21
TORSDOF 7
ENDMDL
MODEL 2
REMARK VINA RESULT:      -6.8     17.662     20.505
REMARK  Name = 26763399
REMARK  8 active torsions:
REMARK  status: ('A' for Active; 'I' for Inactive)
REMARK    1  A    between atoms: O_6  and  C_15
REMARK    2  A    between atoms: O_6  and  C_19
REMARK    3  A    between atoms: O_8  and  C_20
REMARK    4  A    between atoms: O_8  and  C_27
REMARK    5  A    between atoms: N_10  and  C_14
REMARK    6  A    between atoms: N_11  and  C_21
REMARK    7  A    between atoms: C_19  and  C_20
REMARK    8  A    between atoms: C_24  and  C_28
REMARK                            x       y       z     vdW  Elec       q    Type
REMARK                         _______ _______ _______ _____ _____    ______ ____
ROOT
ATOM      7  O   UNL     1      17.349   8.465  20.540  0.00  0.00    -0.252 OA
ATOM     10  N   UNL     1      18.409   6.436  20.863  0.00  0.00    -0.292 N 
ATOM     11  N   UNL     1      16.226   6.441  20.146  0.00  0.00    -0.269 N 
ATOM     18  C   UNL     1      17.314   7.237  20.513  0.00  0.00    +0.304 C 
ATOM     29  H   UNL     1      18.324   5.430  20.749  0.00  0.00    +0.151 HD
ATOM     30  H   UNL     1      16.365   5.435  20.180  0.00  0.00    +0.156 HD
ENDROOT
BRANCH  10  14
ATOM      4  O   UNL     1      20.822   5.256  22.465  0.00  0.00    -0.369 OA
ATOM      5  O   UNL     1      21.945   7.342  20.519  0.00  0.00    -0.369 OA
ATOM     12  C   UNL     1      20.808   6.461  20.423  0.00  0.00    +0.172 C 
ATOM     13  C   UNL     1      21.205   5.156  21.083  0.00  0.00    +0.180 C 
ATOM     14  C   UNL     1      19.678   6.975  21.286  0.00  0.00    +0.131 C 
ATOM     15  C   UNL     1      22.706   5.151  20.918  0.00  0.00    +0.176 C 
ATOM     16  C   UNL     1      20.066   6.461  22.661  0.00  0.00    +0.185 C 
ATOM     17  C   UNL     1      23.050   6.614  21.076  0.00  0.00    +0.194 C 
BRANCH  15   6
ATOM      6  O   UNL     1      23.374   4.344  21.862  0.00  0.00    -0.360 OA
BRANCH   6  19
ATOM     19  C   UNL     1      24.664   3.947  21.405  0.00  0.00    +0.280 C 
BRANCH  19  20
ATOM      9  O   UNL     1      24.939   3.071  19.160  0.00  0.00    -0.248 OA
ATOM     20  C   UNL     1      24.499   2.942  20.295  0.00  0.00    +0.333 C 
BRANCH  20   8
ATOM      8  O   UNL     1      23.785   1.877  20.763  0.00  0.00    -0.466 OA
ATOM     27  C   UNL     1      24.516   0.959  21.584  0.00  0.00    +0.280 C 
ENDBRANCH  20   8
ENDBRANCH  19  20
ENDBRANCH   6  19
ENDBRANCH  15   6
ENDBRANCH  10  14
BRANCH  11  21
ATOM     21  C   UNL     1      14.943   6.864  19.730  0.00  0.00    +0.035 A 
ATOM     22  C   UNL     1      13.872   6.828  20.623  0.00  0.00    +0.035 A 
ATOM     23  C   UNL     1      14.748   7.320  18.426  0.00  0.00    +0.023 A 
ATOM     24  C   UNL     1      12.606   7.246  20.212  0.00  0.00    +0.057 A 
ATOM     25  C   UNL     1      13.482   7.738  18.015  0.00  0.00    +0.002 A 
ATOM     26  C   UNL     1      12.411   7.701  18.909  0.00  0.00    +0.012 A 
BRANCH  24  28
ATOM      1  F   UNL     1      10.375   7.897  20.714  0.00  0.00    -0.166 F 
ATOM      2  F   UNL     1      11.009   5.944  21.427  0.00  0.00    -0.166 F 
ATOM      3  F   UNL     1      11.749   7.740  22.391  0.00  0.00    -0.166 F 
ATOM     28  C   UNL     1      11.461   7.206  21.167  0.00  0.00    +0.417 C 
ENDBRANCH  24  28
ENDBRANCH  11  21
TORSDOF 7
ENDMDL
MODEL 3
REMARK VINA RESULT:      -6.7     26.007     27.909
REMARK  Name = 26763399
REMARK  8 active torsions:
REMARK  status: ('A' for Active; 'I' for Inactive)
REMARK    1  A    between atoms: O_6  and  C_15
REMARK    2  A    between atoms: O_6  and  C_19
REMARK    3  A    between atoms: O_8  and  C_20
REMARK    4  A    between atoms: O_8  and  C_27
REMARK    5  A    between atoms: N_10  and  C_14
REMARK    6  A    between atoms: N_11  and  C_21
REMARK    7  A    between atoms: C_19  and  C_20
REMARK    8  A    between atoms: C_24  and  C_28
REMARK                            x       y       z     vdW  Elec       q    Type
REMARK                         _______ _______ _______ _____ _____    ______ ____
ROOT
ATOM      7  O   UNL     1      -8.725 -10.586  16.445  0.00  0.00    -0.252 OA
ATOM     10  N   UNL     1      -9.101  -8.307  16.371  0.00  0.00    -0.292 N 
ATOM     11  N   UNL     1      -6.935  -9.068  16.452  0.00  0.00    -0.269 N 
ATOM     18  C   UNL     1      -8.281  -9.441  16.426  0.00  0.00    +0.304 C 
ATOM     29  H   UNL     1      -8.657  -7.396  16.289  0.00  0.00    +0.151 HD
ATOM     30  H   UNL     1      -6.737  -8.071  16.431  0.00  0.00    +0.156 HD
ENDROOT
BRANCH  10  14
ATOM      4  O   UNL     1     -11.352  -6.149  16.118  0.00  0.00    -0.369 OA
ATOM      5  O   UNL     1     -12.394  -8.721  14.814  0.00  0.00    -0.369 OA
ATOM     12  C   UNL     1     -11.062  -8.180  14.928  0.00  0.00    +0.172 C 
ATOM     13  C   UNL     1     -11.186  -6.676  14.791  0.00  0.00    +0.180 C 
ATOM     14  C   UNL     1     -10.541  -8.374  16.333  0.00  0.00    +0.131 C 
ATOM     15  C   UNL     1     -12.443  -6.526  13.969  0.00  0.00    +0.176 C 
ATOM     16  C   UNL     1     -11.169  -7.207  17.073  0.00  0.00    +0.185 C 
ATOM     17  C   UNL     1     -13.301  -7.658  14.486  0.00  0.00    +0.194 C 
BRANCH  15   6
ATOM      6  O   UNL     1     -13.071  -5.272  14.123  0.00  0.00    -0.360 OA
BRANCH   6  19
ATOM     19  C   UNL     1     -13.976  -4.996  13.058  0.00  0.00    +0.280 C 
BRANCH  19  20
ATOM      9  O   UNL     1     -14.924  -2.779  12.793  0.00  0.00    -0.248 OA
ATOM     20  C   UNL     1     -13.948  -3.518  12.766  0.00  0.00    +0.333 C 
BRANCH  20   8
ATOM      8  O   UNL     1     -12.668  -3.148  12.472  0.00  0.00    -0.466 OA
ATOM     27  C   UNL     1     -12.188  -3.559  11.187  0.00  0.00    +0.280 C 
ENDBRANCH  20   8
ENDBRANCH  19  20
ENDBRANCH   6  19
ENDBRANCH  15   6
ENDBRANCH  10  14
BRANCH  11  21
ATOM     21  C   UNL     1      -5.801  -9.912  16.507  0.00  0.00    +0.035 A 
ATOM     22  C   UNL     1      -5.461 -10.546  17.701  0.00  0.00    +0.035 A 
ATOM     23  C   UNL     1      -5.025 -10.111  15.366  0.00  0.00    +0.023 A 
ATOM     24  C   UNL     1      -4.343 -11.380  17.755  0.00  0.00    +0.057 A 
ATOM     25  C   UNL     1      -3.907 -10.943  15.419  0.00  0.00    +0.002 A 
ATOM     26  C   UNL     1      -3.566 -11.578  16.614  0.00  0.00    +0.012 A 
BRANCH  24  28
ATOM      1  F   UNL     1      -4.140 -13.411  18.973  0.00  0.00    -0.166 F 
ATOM      2  F   UNL     1      -2.679 -11.861  19.405  0.00  0.00    -0.166 F 
ATOM      3  F   UNL     1      -4.722 -11.647  20.102  0.00  0.00    -0.166 F 
ATOM     28  C   UNL     1      -3.978 -12.058  19.032  0.00  0.00    +0.417 C 
ENDBRANCH  24  28
ENDBRANCH  11  21
TORSDOF 7
ENDMDL
MODEL 4
REMARK VINA RESULT:      -6.5     25.230     27.451
REMARK  Name = 26763399
REMARK  8 active torsions:
REMARK  status: ('A' for Active; 'I' for Inactive)
REMARK    1  A    between atoms: O_6  and  C_15
REMARK    2  A    between atoms: O_6  and  C_19
REMARK    3  A    between atoms: O_8  and  C_20
REMARK    4  A    between atoms: O_8  and  C_27
REMARK    5  A    between atoms: N_10  and  C_14
REMARK    6  A    between atoms: N_11  and  C_21
REMARK    7  A    between atoms: C_19  and  C_20
REMARK    8  A    between atoms: C_24  and  C_28
REMARK                            x       y       z     vdW  Elec       q    Type
REMARK                         _______ _______ _______ _____ _____    ______ ____
ROOT
ATOM      7  O   UNL     1      -9.333  -9.917  17.440  0.00  0.00    -0.252 OA
ATOM     10  N   UNL     1      -9.439  -7.944  16.241  0.00  0.00    -0.292 N 
ATOM     11  N   UNL     1      -7.382  -8.889  16.635  0.00  0.00    -0.269 N 
ATOM     18  C   UNL     1      -8.760  -9.014  16.836  0.00  0.00    +0.304 C 
ATOM     29  H   UNL     1      -8.900  -7.273  15.700  0.00  0.00    +0.151 HD
ATOM     30  H   UNL     1      -7.070  -8.076  16.111  0.00  0.00    +0.156 HD
ENDROOT
BRANCH  10  14
ATOM      4  O   UNL     1     -11.425  -5.847  15.040  0.00  0.00    -0.369 OA
ATOM      5  O   UNL     1     -12.896  -8.534  15.172  0.00  0.00    -0.369 OA
ATOM     12  C   UNL     1     -11.503  -8.216  14.972  0.00  0.00    +0.172 C 
ATOM     13  C   UNL     1     -11.457  -6.958  14.128  0.00  0.00    +0.180 C 
ATOM     14  C   UNL     1     -10.873  -7.799  16.281  0.00  0.00    +0.131 C 
ATOM     15  C   UNL     1     -12.761  -7.024  13.372  0.00  0.00    +0.176 C 
ATOM     16  C   UNL     1     -11.279  -6.339  16.382  0.00  0.00    +0.185 C 
ATOM     17  C   UNL     1     -13.695  -7.628  14.396  0.00  0.00    +0.194 C 
BRANCH  15   6
ATOM      6  O   UNL     1     -13.213  -5.768  12.918  0.00  0.00    -0.360 OA
BRANCH   6  19
ATOM     19  C   UNL     1     -12.524  -5.345  11.745  0.00  0.00    +0.280 C 
BRANCH  19  20
ATOM      9  O   UNL     1     -12.513  -3.170  12.815  0.00  0.00    -0.248 OA
ATOM     20  C   UNL     1     -12.266  -3.864  11.838  0.00  0.00    +0.333 C 
BRANCH  20   8
ATOM      8  O   UNL     1     -11.719  -3.434  10.664  0.00  0.00    -0.466 OA
ATOM     27  C   UNL     1     -11.402  -4.462   9.719  0.00  0.00    +0.280 C 
ENDBRANCH  20   8
ENDBRANCH  19  20
ENDBRANCH   6  19
ENDBRANCH  15   6
ENDBRANCH  10  14
BRANCH  11  21
ATOM     21  C   UNL     1      -6.359  -9.759  17.076  0.00  0.00    +0.035 A 
ATOM     22  C   UNL     1      -5.243  -9.988  16.271  0.00  0.00    +0.035 A 
ATOM     23  C   UNL     1      -6.464 -10.387  18.317  0.00  0.00    +0.023 A 
ATOM     24  C   UNL     1      -4.232 -10.845  16.707  0.00  0.00    +0.057 A 
ATOM     25  C   UNL     1      -5.454 -11.245  18.752  0.00  0.00    +0.002 A 
ATOM     26  C   UNL     1      -4.337 -11.475  17.947  0.00  0.00    +0.012 A 
BRANCH  24  28
ATOM      1  F   UNL     1      -1.864 -10.940  16.522  0.00  0.00    -0.166 F 
ATOM      2  F   UNL     1      -2.997 -12.349  15.315  0.00  0.00    -0.166 F 
ATOM      3  F   UNL     1      -2.956 -10.250  14.773  0.00  0.00    -0.166 F 
ATOM     28  C   UNL     1      -3.039 -11.091  15.846  0.00  0.00    +0.417 C 
ENDBRANCH  24  28
ENDBRANCH  11  21
TORSDOF 7
ENDMDL
MODEL 5
REMARK VINA RESULT:      -6.2     26.146     28.250
REMARK  Name = 26763399
REMARK  8 active torsions:
REMARK  status: ('A' for Active; 'I' for Inactive)
REMARK    1  A    between atoms: O_6  and  C_15
REMARK    2  A    between atoms: O_6  and  C_19
REMARK    3  A    between atoms: O_8  and  C_20
REMARK    4  A    between atoms: O_8  and  C_27
REMARK    5  A    between atoms: N_10  and  C_14
REMARK    6  A    between atoms: N_11  and  C_21
REMARK    7  A    between atoms: C_19  and  C_20
REMARK    8  A    between atoms: C_24  and  C_28
REMARK                            x       y       z     vdW  Elec       q    Type
REMARK                         _______ _______ _______ _____ _____    ______ ____
ROOT
ATOM      7  O   UNL     1     -12.982  -7.215  14.029  0.00  0.00    -0.252 OA
ATOM     10  N   UNL     1     -11.317  -6.653  15.530  0.00  0.00    -0.292 N 
ATOM     11  N   UNL     1     -11.999  -5.084  13.996  0.00  0.00    -0.269 N 
ATOM     18  C   UNL     1     -12.185  -6.389  14.463  0.00  0.00    +0.304 C 
ATOM     29  H   UNL     1     -10.735  -5.896  15.876  0.00  0.00    +0.151 HD
ATOM     30  H   UNL     1     -11.292  -4.527  14.469  0.00  0.00    +0.156 HD
ENDROOT
BRANCH  10  14
ATOM      4  O   UNL     1      -9.480  -9.174  15.297  0.00  0.00    -0.369 OA
ATOM      5  O   UNL     1     -10.403  -8.977  18.214  0.00  0.00    -0.369 OA
ATOM     12  C   UNL     1     -10.146  -7.962  17.223  0.00  0.00    +0.172 C 
ATOM     13  C   UNL     1      -8.956  -8.431  16.411  0.00  0.00    +0.180 C 
ATOM     14  C   UNL     1     -11.276  -7.919  16.220  0.00  0.00    +0.131 C 
ATOM     15  C   UNL     1      -8.227  -9.323  17.385  0.00  0.00    +0.176 C 
ATOM     16  C   UNL     1     -10.911  -9.052  15.276  0.00  0.00    +0.185 C 
ATOM     17  C   UNL     1      -9.366  -9.968  18.142  0.00  0.00    +0.194 C 
BRANCH  15   6
ATOM      6  O   UNL     1      -7.397 -10.278  16.763  0.00  0.00    -0.360 OA
BRANCH   6  19
ATOM     19  C   UNL     1      -6.034  -9.862  16.737  0.00  0.00    +0.280 C 
BRANCH  19  20
ATOM      9  O   UNL     1      -4.491 -11.645  17.302  0.00  0.00    -0.248 OA
ATOM     20  C   UNL     1      -5.238 -10.745  17.663  0.00  0.00    +0.333 C 
BRANCH  20   8
ATOM      8  O   UNL     1      -5.489 -10.377  18.953  0.00  0.00    -0.466 OA
ATOM     27  C   UNL     1      -5.961 -11.422  19.810  0.00  0.00    +0.280 C 
ENDBRANCH  20   8
ENDBRANCH  19  20
ENDBRANCH   6  19
ENDBRANCH  15   6
ENDBRANCH  10  14
BRANCH  11  21
ATOM     21  C   UNL     1     -12.677  -4.437  12.938  0.00  0.00    +0.035 A 
ATOM     22  C   UNL     1     -12.068  -4.314  11.690  0.00  0.00    +0.035 A 
ATOM     23  C   UNL     1     -13.957  -3.921  13.142  0.00  0.00    +0.023 A 
ATOM     24  C   UNL     1     -12.737  -3.677  10.645  0.00  0.00    +0.057 A 
ATOM     25  C   UNL     1     -14.627  -3.283  12.098  0.00  0.00    +0.002 A 
ATOM     26  C   UNL     1     -14.016  -3.160  10.849  0.00  0.00    +0.012 A 
BRANCH  24  28
ATOM      1  F   UNL     1     -12.791  -2.747   8.458  0.00  0.00    -0.166 F 
ATOM      2  F   UNL     1     -10.832  -3.005   9.364  0.00  0.00    -0.166 F 
ATOM      3  F   UNL     1     -11.932  -4.735   8.656  0.00  0.00    -0.166 F 
ATOM     28  C   UNL     1     -12.085  -3.545   9.310  0.00  0.00    +0.417 C 
ENDBRANCH  24  28
ENDBRANCH  11  21
TORSDOF 7
ENDMDL
MODEL 6
REMARK VINA RESULT:      -5.7     19.304     22.178
REMARK  Name = 26763399
REMARK  8 active torsions:
REMARK  status: ('A' for Active; 'I' for Inactive)
REMARK    1  A    between atoms: O_6  and  C_15
REMARK    2  A    between atoms: O_6  and  C_19
REMARK    3  A    between atoms: O_8  and  C_20
REMARK    4  A    between atoms: O_8  and  C_27
REMARK    5  A    between atoms: N_10  and  C_14
REMARK    6  A    between atoms: N_11  and  C_21
REMARK    7  A    between atoms: C_19  and  C_20
REMARK    8  A    between atoms: C_24  and  C_28
REMARK                            x       y       z     vdW  Elec       q    Type
REMARK                         _______ _______ _______ _____ _____    ______ ____
ROOT
ATOM      7  O   UNL     1      16.071   8.805  20.477  0.00  0.00    -0.252 OA
ATOM     10  N   UNL     1      17.202   7.206  21.704  0.00  0.00    -0.292 N 
ATOM     11  N   UNL     1      14.914   7.320  21.879  0.00  0.00    -0.269 N 
ATOM     18  C   UNL     1      16.047   7.872  21.275  0.00  0.00    +0.304 C 
ATOM     29  H   UNL     1      17.094   6.399  22.313  0.00  0.00    +0.151 HD
ATOM     30  H   UNL     1      15.070   6.547  22.521  0.00  0.00    +0.156 HD
ENDROOT
BRANCH  10  14
ATOM      4  O   UNL     1      19.882   7.849  23.183  0.00  0.00    -0.369 OA
ATOM      5  O   UNL     1      20.603   6.562  20.494  0.00  0.00    -0.369 OA
ATOM     12  C   UNL     1      19.471   6.377  21.369  0.00  0.00    +0.172 C 
ATOM     13  C   UNL     1      19.993   6.470  22.789  0.00  0.00    +0.180 C 
ATOM     14  C   UNL     1      18.527   7.552  21.252  0.00  0.00    +0.131 C 
ATOM     15  C   UNL     1      21.433   6.047  22.635  0.00  0.00    +0.176 C 
ATOM     16  C   UNL     1      19.174   8.576  22.167  0.00  0.00    +0.185 C 
ATOM     17  C   UNL     1      21.797   6.629  21.289  0.00  0.00    +0.194 C 
BRANCH  15   6
ATOM      6  O   UNL     1      22.273   6.523  23.663  0.00  0.00    -0.360 OA
BRANCH   6  19
ATOM     19  C   UNL     1      22.792   5.462  24.461  0.00  0.00    +0.280 C 
BRANCH  19  20
ATOM      9  O   UNL     1      23.381   5.924  26.767  0.00  0.00    -0.248 OA
ATOM     20  C   UNL     1      22.520   5.766  25.911  0.00  0.00    +0.333 C 
BRANCH  20   8
ATOM      8  O   UNL     1      21.171   5.834  26.105  0.00  0.00    -0.466 OA
ATOM     27  C   UNL     1      20.744   5.830  27.472  0.00  0.00    +0.280 C 
ENDBRANCH  20   8
ENDBRANCH  19  20
ENDBRANCH   6  19
ENDBRANCH  15   6
ENDBRANCH  10  14
BRANCH  11  21
ATOM     21  C   UNL     1      13.565   7.708  21.710  0.00  0.00    +0.035 A 
ATOM     22  C   UNL     1      13.139   8.963  22.143  0.00  0.00    +0.035 A 
ATOM     23  C   UNL     1      12.659   6.834  21.108  0.00  0.00    +0.023 A 
ATOM     24  C   UNL     1      11.808   9.346  21.975  0.00  0.00    +0.057 A 
ATOM     25  C   UNL     1      11.328   7.216  20.940  0.00  0.00    +0.002 A 
ATOM     26  C   UNL     1      10.902   8.473  21.374  0.00  0.00    +0.012 A 
BRANCH  24  28
ATOM      1  F   UNL     1      12.277  11.314  23.224  0.00  0.00    -0.166 F 
ATOM      2  F   UNL     1      11.089  11.559  21.421  0.00  0.00    -0.166 F 
ATOM      3  F   UNL     1      10.207  10.651  23.182  0.00  0.00    -0.166 F 
ATOM     28  C   UNL     1      11.353  10.688  22.439  0.00  0.00    +0.417 C 
ENDBRANCH  24  28
ENDBRANCH  11  21
TORSDOF 7
ENDMDL
MODEL 7
REMARK VINA RESULT:      -5.7     25.638     28.852
REMARK  Name = 26763399
REMARK  8 active torsions:
REMARK  status: ('A' for Active; 'I' for Inactive)
REMARK    1  A    between atoms: O_6  and  C_15
REMARK    2  A    between atoms: O_6  and  C_19
REMARK    3  A    between atoms: O_8  and  C_20
REMARK    4  A    between atoms: O_8  and  C_27
REMARK    5  A    between atoms: N_10  and  C_14
REMARK    6  A    between atoms: N_11  and  C_21
REMARK    7  A    between atoms: C_19  and  C_20
REMARK    8  A    between atoms: C_24  and  C_28
REMARK                            x       y       z     vdW  Elec       q    Type
REMARK                         _______ _______ _______ _____ _____    ______ ____
ROOT
ATOM      7  O   UNL     1      -4.847  -9.794  16.457  0.00  0.00    -0.252 OA
ATOM     10  N   UNL     1      -6.815 -11.006  16.466  0.00  0.00    -0.292 N 
ATOM     11  N   UNL     1      -5.333 -11.315  14.737  0.00  0.00    -0.269 N 
ATOM     18  C   UNL     1      -5.580 -10.624  15.926  0.00  0.00    +0.304 C 
ATOM     29  H   UNL     1      -7.332 -11.749  16.004  0.00  0.00    +0.151 HD
ATOM     30  H   UNL     1      -6.049 -11.971  14.434  0.00  0.00    +0.156 HD
ENDROOT
BRANCH  10  14
ATOM      4  O   UNL     1      -9.567  -9.746  17.254  0.00  0.00    -0.369 OA
ATOM      5  O   UNL     1      -8.435 -11.115  19.753  0.00  0.00    -0.369 OA
ATOM     12  C   UNL     1      -8.304 -11.426  18.351  0.00  0.00    +0.172 C 
ATOM     13  C   UNL     1      -9.637 -11.109  17.704  0.00  0.00    +0.180 C 
ATOM     14  C   UNL     1      -7.343 -10.463  17.693  0.00  0.00    +0.131 C 
ATOM     15  C   UNL     1     -10.603 -11.270  18.852  0.00  0.00    +0.176 C 
ATOM     16  C   UNL     1      -8.227  -9.257  17.429  0.00  0.00    +0.185 C 
ATOM     17  C   UNL     1      -9.798 -10.755  20.023  0.00  0.00    +0.194 C 
BRANCH  15   6
ATOM      6  O   UNL     1     -11.806 -10.555  18.681  0.00  0.00    -0.360 OA
BRANCH   6  19
ATOM     19  C   UNL     1     -12.160  -9.819  19.849  0.00  0.00    +0.280 C 
BRANCH  19  20
ATOM      9  O   UNL     1     -14.469  -9.320  20.392  0.00  0.00    -0.248 OA
ATOM     20  C   UNL     1     -13.584 -10.146  20.217  0.00  0.00    +0.333 C 
BRANCH  20   8
ATOM      8  O   UNL     1     -13.716 -11.500  20.323  0.00  0.00    -0.466 OA
ATOM     27  C   UNL     1     -13.393 -12.053  21.603  0.00  0.00    +0.280 C 
ENDBRANCH  20   8
ENDBRANCH  19  20
ENDBRANCH   6  19
ENDBRANCH  15   6
ENDBRANCH  10  14
BRANCH  11  21
ATOM     21  C   UNL     1      -4.203 -11.214  13.893  0.00  0.00    +0.035 A 
ATOM     22  C   UNL     1      -4.275 -10.467  12.717  0.00  0.00    +0.035 A 
ATOM     23  C   UNL     1      -3.016 -11.860  14.237  0.00  0.00    +0.023 A 
ATOM     24  C   UNL     1      -3.160 -10.366  11.885  0.00  0.00    +0.057 A 
ATOM     25  C   UNL     1      -1.901 -11.760  13.405  0.00  0.00    +0.002 A 
ATOM     26  C   UNL     1      -1.973 -11.013  12.229  0.00  0.00    +0.012 A 
BRANCH  24  28
ATOM      1  F   UNL     1      -4.186  -8.591  10.682  0.00  0.00    -0.166 F 
ATOM      2  F   UNL     1      -2.071  -8.928  10.314  0.00  0.00    -0.166 F 
ATOM      3  F   UNL     1      -3.541 -10.314   9.524  0.00  0.00    -0.166 F 
ATOM     28  C   UNL     1      -3.236  -9.568  10.628  0.00  0.00    +0.417 C 
ENDBRANCH  24  28
ENDBRANCH  11  21
TORSDOF 7
ENDMDL
MODEL 8
REMARK VINA RESULT:      -5.7     23.560     25.205
REMARK  Name = 26763399
REMARK  8 active torsions:
REMARK  status: ('A' for Active; 'I' for Inactive)
REMARK    1  A    between atoms: O_6  and  C_15
REMARK    2  A    between atoms: O_6  and  C_19
REMARK    3  A    between atoms: O_8  and  C_20
REMARK    4  A    between atoms: O_8  and  C_27
REMARK    5  A    between atoms: N_10  and  C_14
REMARK    6  A    between atoms: N_11  and  C_21
REMARK    7  A    between atoms: C_19  and  C_20
REMARK    8  A    between atoms: C_24  and  C_28
REMARK                            x       y       z     vdW  Elec       q    Type
REMARK                         _______ _______ _______ _____ _____    ______ ____
ROOT
ATOM      7  O   UNL     1      -7.119 -11.498  13.665  0.00  0.00    -0.252 OA
ATOM     10  N   UNL     1      -6.156  -9.823  12.396  0.00  0.00    -0.292 N 
ATOM     11  N   UNL     1      -6.034  -9.684  14.686  0.00  0.00    -0.269 N 
ATOM     18  C   UNL     1      -6.498 -10.440  13.606  0.00  0.00    +0.304 C 
ATOM     29  H   UNL     1      -5.582  -8.986  12.428  0.00  0.00    +0.151 HD
ATOM     30  H   UNL     1      -5.535  -8.827  14.462  0.00  0.00    +0.156 HD
ENDROOT
BRANCH  10  14
ATOM      4  O   UNL     1      -8.351  -9.127  10.279  0.00  0.00    -0.369 OA
ATOM      5  O   UNL     1      -5.925 -10.225   8.759  0.00  0.00    -0.369 OA
ATOM     12  C   UNL     1      -6.023  -9.474   9.986  0.00  0.00    +0.172 C 
ATOM     13  C   UNL     1      -7.156  -8.483   9.805  0.00  0.00    +0.180 C 
ATOM     14  C   UNL     1      -6.500 -10.370  11.106  0.00  0.00    +0.131 C 
ATOM     15  C   UNL     1      -7.182  -8.288   8.309  0.00  0.00    +0.176 C 
ATOM     16  C   UNL     1      -8.003 -10.379  10.893  0.00  0.00    +0.185 C 
ATOM     17  C   UNL     1      -6.835  -9.667   7.799  0.00  0.00    +0.194 C 
BRANCH  15   6
ATOM      6  O   UNL     1      -8.427  -7.839   7.821  0.00  0.00    -0.360 OA
BRANCH   6  19
ATOM     19  C   UNL     1      -8.420  -6.440   7.549  0.00  0.00    +0.280 C 
BRANCH  19  20
ATOM      9  O   UNL     1      -9.427  -4.559   8.700  0.00  0.00    -0.248 OA
ATOM     20  C   UNL     1      -9.398  -5.761   8.471  0.00  0.00    +0.333 C 
BRANCH  20   8
ATOM      8  O   UNL     1     -10.234  -6.700   9.002  0.00  0.00    -0.466 OA
ATOM     27  C   UNL     1     -11.375  -6.186   9.698  0.00  0.00    +0.280 C 
ENDBRANCH  20   8
ENDBRANCH  19  20
ENDBRANCH   6  19
ENDBRANCH  15   6
ENDBRANCH  10  14
BRANCH  11  21
ATOM     21  C   UNL     1      -6.174  -9.964  16.065  0.00  0.00    +0.035 A 
ATOM     22  C   UNL     1      -5.224 -10.748  16.718  0.00  0.00    +0.035 A 
ATOM     23  C   UNL     1      -7.263  -9.454  16.772  0.00  0.00    +0.023 A 
ATOM     24  C   UNL     1      -5.362 -11.022  18.079  0.00  0.00    +0.057 A 
ATOM     25  C   UNL     1      -7.402  -9.729  18.133  0.00  0.00    +0.002 A 
ATOM     26  C   UNL     1      -6.451 -10.514  18.786  0.00  0.00    +0.012 A 
BRANCH  24  28
ATOM      1  F   UNL     1      -4.489 -13.191  18.510  0.00  0.00    -0.166 F 
ATOM      2  F   UNL     1      -3.058 -11.557  18.440  0.00  0.00    -0.166 F 
ATOM      3  F   UNL     1      -4.391 -11.755  20.140  0.00  0.00    -0.166 F 
ATOM     28  C   UNL     1      -4.346 -11.861  18.778  0.00  0.00    +0.417 C 
ENDBRANCH  24  28
ENDBRANCH  11  21
TORSDOF 7
ENDMDL
MODEL 9
REMARK VINA RESULT:      -5.6      7.483     10.625
REMARK  Name = 26763399
REMARK  8 active torsions:
REMARK  status: ('A' for Active; 'I' for Inactive)
REMARK    1  A    between atoms: O_6  and  C_15
REMARK    2  A    between atoms: O_6  and  C_19
REMARK    3  A    between atoms: O_8  and  C_20
REMARK    4  A    between atoms: O_8  and  C_27
REMARK    5  A    between atoms: N_10  and  C_14
REMARK    6  A    between atoms: N_11  and  C_21
REMARK    7  A    between atoms: C_19  and  C_20
REMARK    8  A    between atoms: C_24  and  C_28
REMARK                            x       y       z     vdW  Elec       q    Type
REMARK                         _______ _______ _______ _____ _____    ______ ____
ROOT
ATOM      7  O   UNL     1      16.620  10.049   4.965  0.00  0.00    -0.252 OA
ATOM     10  N   UNL     1      15.332   8.445   6.021  0.00  0.00    -0.292 N 
ATOM     11  N   UNL     1      17.611   8.401   6.312  0.00  0.00    -0.269 N 
ATOM     18  C   UNL     1      16.546   9.063   5.695  0.00  0.00    +0.304 C 
ATOM     29  H   UNL     1      15.347   7.676   6.685  0.00  0.00    +0.151 HD
ATOM     30  H   UNL     1      17.376   7.597   6.887  0.00  0.00    +0.156 HD
ENDROOT
BRANCH  10  14
ATOM      4  O   UNL     1      12.557   7.061   5.616  0.00  0.00    -0.369 OA
ATOM      5  O   UNL     1      12.026  10.014   6.247  0.00  0.00    -0.369 OA
ATOM     12  C   UNL     1      13.080   9.122   6.665  0.00  0.00    +0.172 C 
ATOM     13  C   UNL     1      12.448   7.760   6.867  0.00  0.00    +0.180 C 
ATOM     14  C   UNL     1      14.056   8.904   5.531  0.00  0.00    +0.131 C 
ATOM     15  C   UNL     1      11.015   8.109   7.189  0.00  0.00    +0.176 C 
ATOM     16  C   UNL     1      13.360   7.834   4.710  0.00  0.00    +0.185 C 
ATOM     17  C   UNL     1      10.774   9.315   6.310  0.00  0.00    +0.194 C 
BRANCH  15   6
ATOM      6  O   UNL     1      10.106   7.066   6.920  0.00  0.00    -0.360 OA
BRANCH   6  19
ATOM     19  C   UNL     1       9.550   6.523   8.114  0.00  0.00    +0.280 C 
BRANCH  19  20
ATOM      9  O   UNL     1       9.965   4.305   7.225  0.00  0.00    -0.248 OA
ATOM     20  C   UNL     1       9.892   5.057   8.188  0.00  0.00    +0.333 C 
BRANCH  20   8
ATOM      8  O   UNL     1      10.102   4.715   9.492  0.00  0.00    -0.466 OA
ATOM     27  C   UNL     1       8.923   4.594  10.295  0.00  0.00    +0.280 C 
ENDBRANCH  20   8
ENDBRANCH  19  20
ENDBRANCH   6  19
ENDBRANCH  15   6
ENDBRANCH  10  14
BRANCH  11  21
ATOM     21  C   UNL     1      18.988   8.713   6.235  0.00  0.00    +0.035 A 
ATOM     22  C   UNL     1      19.836   7.938   5.445  0.00  0.00    +0.035 A 
ATOM     23  C   UNL     1      19.498   9.797   6.949  0.00  0.00    +0.023 A 
ATOM     24  C   UNL     1      21.194   8.246   5.368  0.00  0.00    +0.057 A 
ATOM     25  C   UNL     1      20.857  10.105   6.873  0.00  0.00    +0.002 A 
ATOM     26  C   UNL     1      21.705   9.329   6.083  0.00  0.00    +0.012 A 
BRANCH  24  28
ATOM      1  F   UNL     1      21.928   7.640   3.189  0.00  0.00    -0.166 F 
ATOM      2  F   UNL     1      23.428   7.639   4.762  0.00  0.00    -0.166 F 
ATOM      3  F   UNL     1      21.931   6.071   4.695  0.00  0.00    -0.166 F 
ATOM     28  C   UNL     1      22.102   7.416   4.524  0.00  0.00    +0.417 C 
ENDBRANCH  24  28
ENDBRANCH  11  21
TORSDOF 7
ENDMDL
MODEL 10
REMARK VINA RESULT:      -5.5      5.668      8.088
REMARK  Name = 26763399
REMARK  8 active torsions:
REMARK  status: ('A' for Active; 'I' for Inactive)
REMARK    1  A    between atoms: O_6  and  C_15
REMARK    2  A    between atoms: O_6  and  C_19
REMARK    3  A    between atoms: O_8  and  C_20
REMARK    4  A    between atoms: O_8  and  C_27
REMARK    5  A    between atoms: N_10  and  C_14
REMARK    6  A    between atoms: N_11  and  C_21
REMARK    7  A    between atoms: C_19  and  C_20
REMARK    8  A    between atoms: C_24  and  C_28
REMARK                            x       y       z     vdW  Elec       q    Type
REMARK                         _______ _______ _______ _____ _____    ______ ____
ROOT
ATOM      7  O   UNL     1      12.532   8.984   4.754  0.00  0.00    -0.252 OA
ATOM     10  N   UNL     1      14.519   7.828   4.513  0.00  0.00    -0.292 N 
ATOM     11  N   UNL     1      12.666   6.698   5.268  0.00  0.00    -0.269 N 
ATOM     18  C   UNL     1      13.161   7.934   4.842  0.00  0.00    +0.304 C 
ATOM     29  H   UNL     1      14.952   6.910   4.547  0.00  0.00    +0.151 HD
ATOM     30  H   UNL     1      13.325   5.924   5.283  0.00  0.00    +0.156 HD
ENDROOT
BRANCH  10  14
ATOM      4  O   UNL     1      17.398   8.862   5.167  0.00  0.00    -0.369 OA
ATOM      5  O   UNL     1      16.799   9.597   2.251  0.00  0.00    -0.369 OA
ATOM     12  C   UNL     1      16.367   8.487   3.065  0.00  0.00    +0.172 C 
ATOM     13  C   UNL     1      17.537   8.110   3.950  0.00  0.00    +0.180 C 
ATOM     14  C   UNL     1      15.305   8.941   4.040  0.00  0.00    +0.131 C 
ATOM     15  C   UNL     1      18.723   8.573   3.139  0.00  0.00    +0.176 C 
ATOM     16  C   UNL     1      16.135   9.547   5.159  0.00  0.00    +0.185 C 
ATOM     17  C   UNL     1      18.195   9.833   2.491  0.00  0.00    +0.194 C 
BRANCH  15   6
ATOM      6  O   UNL     1      19.874   8.819   3.915  0.00  0.00    -0.360 OA
BRANCH   6  19
ATOM     19  C   UNL     1      20.548   7.613   4.265  0.00  0.00    +0.280 C 
BRANCH  19  20
ATOM      9  O   UNL     1      22.531   8.109   5.570  0.00  0.00    -0.248 OA
ATOM     20  C   UNL     1      21.336   7.844   5.528  0.00  0.00    +0.333 C 
BRANCH  20   8
ATOM      8  O   UNL     1      20.504   7.711   6.601  0.00  0.00    -0.466 OA
ATOM     27  C   UNL     1      20.355   8.881   7.414  0.00  0.00    +0.280 C 
ENDBRANCH  20   8
ENDBRANCH  19  20
ENDBRANCH   6  19
ENDBRANCH  15   6
ENDBRANCH  10  14
BRANCH  11  21
ATOM     21  C   UNL     1      11.352   6.387   5.685  0.00  0.00    +0.035 A 
ATOM     22  C   UNL     1      11.114   5.981   6.998  0.00  0.00    +0.035 A 
ATOM     23  C   UNL     1      10.292   6.489   4.784  0.00  0.00    +0.023 A 
ATOM     24  C   UNL     1       9.817   5.676   7.410  0.00  0.00    +0.057 A 
ATOM     25  C   UNL     1       8.994   6.182   5.196  0.00  0.00    +0.002 A 
ATOM     26  C   UNL     1       8.757   5.776   6.509  0.00  0.00    +0.012 A 
BRANCH  24  28
ATOM      1  F   UNL     1       8.515   5.901   9.387  0.00  0.00    -0.166 F 
ATOM      2  F   UNL     1       9.265   3.913   8.930  0.00  0.00    -0.166 F 
ATOM      3  F   UNL     1      10.624   5.441   9.650  0.00  0.00    -0.166 F 
ATOM     28  C   UNL     1       9.562   5.240   8.814  0.00  0.00    +0.417 C 
ENDBRANCH  24  28
ENDBRANCH  11  21
TORSDOF 7
ENDMDL
