MODEL 1
REMARK VINA RESULT:      -6.6      0.000      0.000
REMARK  Name = 45784231
REMARK  2 active torsions:
REMARK  status: ('A' for Active; 'I' for Inactive)
REMARK    1  A    between atoms: N_2  and  C_5
REMARK    2  A    between atoms: C_8  and  C_13
REMARK                            x       y       z     vdW  Elec       q    Type
REMARK                         _______ _______ _______ _____ _____    ______ ____
ROOT
ATOM      1  F   UNL     1       9.410   4.861  10.165  0.00  0.00    -0.205 F 
ATOM      3  N   UNL     1      10.188   4.299   5.384  0.00  0.00    -0.341 N 
ATOM      4  N   UNL     1       9.587   6.382   4.893  0.00  0.00    -0.232 NA
ATOM     13  C   UNL     1      10.012   5.238   4.406  0.00  0.00    +0.113 A 
ATOM     14  C   UNL     1       9.853   4.876   6.583  0.00  0.00    +0.069 A 
ATOM     15  C   UNL     1       9.483   6.176   6.250  0.00  0.00    +0.089 A 
ATOM     16  C   UNL     1       9.845   4.388   7.889  0.00  0.00    +0.066 A 
ATOM     17  C   UNL     1       9.076   7.054   7.268  0.00  0.00    +0.032 A 
ATOM     18  C   UNL     1       9.438   5.276   8.890  0.00  0.00    +0.125 A 
ATOM     19  C   UNL     1       9.059   6.586   8.588  0.00  0.00    +0.040 A 
ATOM     20  H   UNL     1      10.506   3.348   5.252  0.00  0.00    +0.167 HD
ENDROOT
BRANCH  13   8
ATOM      2  N   UNL     1      11.961   4.147   1.498  0.00  0.00    -0.299 NA
ATOM      8  C   UNL     1      10.294   4.922   2.955  0.00  0.00    +0.070 C 
ATOM      9  C   UNL     1      11.329   3.803   2.776  0.00  0.00    +0.096 C 
ATOM     11  C   UNL     1      12.164   5.595   1.558  0.00  0.00    +0.085 C 
ATOM     12  C   UNL     1      10.846   6.099   2.133  0.00  0.00    +0.028 C 
BRANCH   2   5
ATOM      5  C   UNL     1      13.241   3.447   1.346  0.00  0.00    +0.057 C 
ATOM      6  C   UNL     1      14.395   4.385   1.757  0.00  0.00    +0.019 C 
ATOM      7  C   UNL     1      13.743   3.593  -0.106  0.00  0.00    +0.019 C 
ATOM     10  C   UNL     1      15.131   3.912   0.486  0.00  0.00    +0.003 C 
ENDBRANCH   2   5
ENDBRANCH  13   8
TORSDOF 2
ENDMDL
MODEL 2
REMARK VINA RESULT:      -6.2     16.105     18.069
REMARK  Name = 45784231
REMARK  2 active torsions:
REMARK  status: ('A' for Active; 'I' for Inactive)
REMARK    1  A    between atoms: N_2  and  C_5
REMARK    2  A    between atoms: C_8  and  C_13
REMARK                            x       y       z     vdW  Elec       q    Type
REMARK                         _______ _______ _______ _____ _____    ______ ____
ROOT
ATOM      1  F   UNL     1      20.224   7.563  22.046  0.00  0.00    -0.205 F 
ATOM      3  N   UNL     1      15.567   8.038  20.680  0.00  0.00    -0.341 N 
ATOM      4  N   UNL     1      15.682   6.388  19.195  0.00  0.00    -0.232 NA
ATOM     13  C   UNL     1      14.906   7.299  19.739  0.00  0.00    +0.113 A 
ATOM     14  C   UNL     1      16.856   7.573  20.748  0.00  0.00    +0.069 A 
ATOM     15  C   UNL     1      16.901   6.543  19.813  0.00  0.00    +0.089 A 
ATOM     16  C   UNL     1      17.951   7.952  21.524  0.00  0.00    +0.066 A 
ATOM     17  C   UNL     1      18.104   5.839  19.627  0.00  0.00    +0.032 A 
ATOM     18  C   UNL     1      19.139   7.241  21.327  0.00  0.00    +0.125 A 
ATOM     19  C   UNL     1      19.217   6.203  20.395  0.00  0.00    +0.040 A 
ATOM     20  H   UNL     1      15.180   8.794  21.229  0.00  0.00    +0.167 HD
ENDROOT
BRANCH  13   8
ATOM      2  N   UNL     1      11.520   8.624  20.210  0.00  0.00    -0.299 NA
ATOM      8  C   UNL     1      13.453   7.559  19.415  0.00  0.00    +0.070 C 
ATOM      9  C   UNL     1      12.943   8.892  19.979  0.00  0.00    +0.096 C 
ATOM     11  C   UNL     1      11.483   7.291  20.811  0.00  0.00    +0.085 C 
ATOM     12  C   UNL     1      12.471   6.506  19.958  0.00  0.00    +0.028 C 
BRANCH   2   5
ATOM      5  C   UNL     1      10.944   9.621  21.119  0.00  0.00    +0.057 C 
ATOM      6  C   UNL     1      12.050  10.582  21.602  0.00  0.00    +0.019 C 
ATOM      7  C   UNL     1      10.913   9.058  22.555  0.00  0.00    +0.019 C 
ATOM     10  C   UNL     1      11.464  10.421  23.020  0.00  0.00    +0.003 C 
ENDBRANCH   2   5
ENDBRANCH  13   8
TORSDOF 2
ENDMDL
MODEL 3
REMARK VINA RESULT:      -6.1     22.195     24.432
REMARK  Name = 45784231
REMARK  2 active torsions:
REMARK  status: ('A' for Active; 'I' for Inactive)
REMARK    1  A    between atoms: N_2  and  C_5
REMARK    2  A    between atoms: C_8  and  C_13
REMARK                            x       y       z     vdW  Elec       q    Type
REMARK                         _______ _______ _______ _____ _____    ______ ____
ROOT
ATOM      1  F   UNL     1      -8.304 -10.195  18.855  0.00  0.00    -0.205 F 
ATOM      3  N   UNL     1      -4.657 -10.353  15.622  0.00  0.00    -0.341 N 
ATOM      4  N   UNL     1      -3.227 -11.262  17.061  0.00  0.00    -0.232 NA
ATOM     13  C   UNL     1      -3.392 -10.825  15.832  0.00  0.00    +0.113 A 
ATOM     14  C   UNL     1      -5.356 -10.495  16.794  0.00  0.00    +0.069 A 
ATOM     15  C   UNL     1      -4.442 -11.065  17.675  0.00  0.00    +0.089 A 
ATOM     16  C   UNL     1      -6.669 -10.183  17.147  0.00  0.00    +0.066 A 
ATOM     17  C   UNL     1      -4.845 -11.348  18.991  0.00  0.00    +0.032 A 
ATOM     18  C   UNL     1      -7.054 -10.473  18.460  0.00  0.00    +0.125 A 
ATOM     19  C   UNL     1      -6.159 -11.044  19.368  0.00  0.00    +0.040 A 
ATOM     20  H   UNL     1      -5.017  -9.966  14.760  0.00  0.00    +0.167 HD
ENDROOT
BRANCH  13   8
ATOM      2  N   UNL     1      -2.099 -10.926  12.403  0.00  0.00    -0.299 NA
ATOM      8  C   UNL     1      -2.356 -10.812  14.731  0.00  0.00    +0.070 C 
ATOM      9  C   UNL     1      -2.886 -10.219  13.419  0.00  0.00    +0.096 C 
ATOM     11  C   UNL     1      -2.079 -12.320  12.847  0.00  0.00    +0.085 C 
ATOM     12  C   UNL     1      -1.810 -12.196  14.341  0.00  0.00    +0.028 C 
BRANCH   2   5
ATOM      5  C   UNL     1      -2.728 -10.809  11.083  0.00  0.00    +0.057 C 
ATOM      6  C   UNL     1      -2.528  -9.379  10.539  0.00  0.00    +0.019 C 
ATOM      7  C   UNL     1      -4.220 -10.453  11.249  0.00  0.00    +0.019 C 
ATOM     10  C   UNL     1      -4.017  -9.405  10.136  0.00  0.00    +0.003 C 
ENDBRANCH   2   5
ENDBRANCH  13   8
TORSDOF 2
ENDMDL
MODEL 4
REMARK VINA RESULT:      -6.0     26.625     30.361
REMARK  Name = 45784231
REMARK  2 active torsions:
REMARK  status: ('A' for Active; 'I' for Inactive)
REMARK    1  A    between atoms: N_2  and  C_5
REMARK    2  A    between atoms: C_8  and  C_13
REMARK                            x       y       z     vdW  Elec       q    Type
REMARK                         _______ _______ _______ _____ _____    ______ ____
ROOT
ATOM      1  F   UNL     1     -10.134   8.325  16.961  0.00  0.00    -0.205 F 
ATOM      3  N   UNL     1     -11.835  10.780  20.816  0.00  0.00    -0.341 N 
ATOM      4  N   UNL     1     -12.760   8.981  21.737  0.00  0.00    -0.232 NA
ATOM     13  C   UNL     1     -12.552  10.273  21.863  0.00  0.00    +0.113 A 
ATOM     14  C   UNL     1     -11.562   9.747  19.956  0.00  0.00    +0.069 A 
ATOM     15  C   UNL     1     -12.149   8.635  20.554  0.00  0.00    +0.089 A 
ATOM     16  C   UNL     1     -10.873   9.691  18.745  0.00  0.00    +0.066 A 
ATOM     17  C   UNL     1     -12.052   7.385  19.920  0.00  0.00    +0.032 A 
ATOM     18  C   UNL     1     -10.785   8.439  18.128  0.00  0.00    +0.125 A 
ATOM     19  C   UNL     1     -11.365   7.305  18.702  0.00  0.00    +0.040 A 
ATOM     20  H   UNL     1     -11.555  11.744  20.692  0.00  0.00    +0.167 HD
ENDROOT
BRANCH  13   8
ATOM      2  N   UNL     1     -12.741  11.561  25.290  0.00  0.00    -0.299 NA
ATOM      8  C   UNL     1     -13.018  11.157  22.996  0.00  0.00    +0.070 C 
ATOM      9  C   UNL     1     -11.945  11.364  24.074  0.00  0.00    +0.096 C 
ATOM     11  C   UNL     1     -13.795  10.550  25.216  0.00  0.00    +0.085 C 
ATOM     12  C   UNL     1     -14.245  10.633  23.763  0.00  0.00    +0.028 C 
BRANCH   2   5
ATOM      5  C   UNL     1     -11.916  11.368  26.488  0.00  0.00    +0.057 C 
ATOM      6  C   UNL     1     -10.632  10.600  26.113  0.00  0.00    +0.019 C 
ATOM      7  C   UNL     1     -12.370  10.093  27.230  0.00  0.00    +0.019 C 
ATOM     10  C   UNL     1     -10.877   9.733  27.366  0.00  0.00    +0.003 C 
ENDBRANCH   2   5
ENDBRANCH  13   8
TORSDOF 2
ENDMDL
MODEL 5
REMARK VINA RESULT:      -5.9     16.136     18.677
REMARK  Name = 45784231
REMARK  2 active torsions:
REMARK  status: ('A' for Active; 'I' for Inactive)
REMARK    1  A    between atoms: N_2  and  C_5
REMARK    2  A    between atoms: C_8  and  C_13
REMARK                            x       y       z     vdW  Elec       q    Type
REMARK                         _______ _______ _______ _____ _____    ______ ____
ROOT
ATOM      1  F   UNL     1      13.402  14.081  25.758  0.00  0.00    -0.205 F 
ATOM      3  N   UNL     1      12.841  10.194  22.867  0.00  0.00    -0.341 N 
ATOM      4  N   UNL     1      10.621  10.276  22.943  0.00  0.00    -0.232 NA
ATOM     13  C   UNL     1      11.663   9.636  22.459  0.00  0.00    +0.113 A 
ATOM     14  C   UNL     1      12.541  11.266  23.668  0.00  0.00    +0.069 A 
ATOM     15  C   UNL     1      11.150  11.297  23.699  0.00  0.00    +0.089 A 
ATOM     16  C   UNL     1      13.343  12.184  24.347  0.00  0.00    +0.066 A 
ATOM     17  C   UNL     1      10.503  12.295  24.447  0.00  0.00    +0.032 A 
ATOM     18  C   UNL     1      12.682  13.171  25.086  0.00  0.00    +0.125 A 
ATOM     19  C   UNL     1      11.287  13.227  25.137  0.00  0.00    +0.040 A 
ATOM     20  H   UNL     1      13.771   9.876  22.625  0.00  0.00    +0.167 HD
ENDROOT
BRANCH  13   8
ATOM      2  N   UNL     1      12.976   7.122  20.136  0.00  0.00    -0.299 NA
ATOM      8  C   UNL     1      11.639   8.424  21.557  0.00  0.00    +0.070 C 
ATOM      9  C   UNL     1      12.995   7.708  21.480  0.00  0.00    +0.096 C 
ATOM     11  C   UNL     1      12.435   8.174  19.275  0.00  0.00    +0.085 C 
ATOM     12  C   UNL     1      11.268   8.715  20.092  0.00  0.00    +0.028 C 
BRANCH   2   5
ATOM      5  C   UNL     1      14.330   6.748  19.713  0.00  0.00    +0.057 C 
ATOM      6  C   UNL     1      15.287   6.817  20.921  0.00  0.00    +0.019 C 
ATOM      7  C   UNL     1      15.062   7.989  19.160  0.00  0.00    +0.019 C 
ATOM     10  C   UNL     1      16.282   7.547  19.994  0.00  0.00    +0.003 C 
ENDBRANCH   2   5
ENDBRANCH  13   8
TORSDOF 2
ENDMDL
MODEL 6
REMARK VINA RESULT:      -5.7     22.014     25.536
REMARK  Name = 45784231
REMARK  2 active torsions:
REMARK  status: ('A' for Active; 'I' for Inactive)
REMARK    1  A    between atoms: N_2  and  C_5
REMARK    2  A    between atoms: C_8  and  C_13
REMARK                            x       y       z     vdW  Elec       q    Type
REMARK                         _______ _______ _______ _____ _____    ______ ____
ROOT
ATOM      1  F   UNL     1      14.842  -2.868  22.293  0.00  0.00    -0.205 F 
ATOM      3  N   UNL     1      17.646  -3.210  26.267  0.00  0.00    -0.341 N 
ATOM      4  N   UNL     1      18.921  -1.482  25.695  0.00  0.00    -0.232 NA
ATOM     13  C   UNL     1      18.705  -2.412  26.598  0.00  0.00    +0.113 A 
ATOM     14  C   UNL     1      17.144  -2.765  25.070  0.00  0.00    +0.069 A 
ATOM     15  C   UNL     1      17.957  -1.686  24.735  0.00  0.00    +0.089 A 
ATOM     16  C   UNL     1      16.082  -3.200  24.278  0.00  0.00    +0.066 A 
ATOM     17  C   UNL     1      17.709  -0.988  23.540  0.00  0.00    +0.032 A 
ATOM     18  C   UNL     1      15.850  -2.494  23.094  0.00  0.00    +0.125 A 
ATOM     19  C   UNL     1      16.648  -1.407  22.729  0.00  0.00    +0.040 A 
ATOM     20  H   UNL     1      17.292  -3.990  26.805  0.00  0.00    +0.167 HD
ENDROOT
BRANCH  13   8
ATOM      2  N   UNL     1      19.513  -2.147  30.164  0.00  0.00    -0.299 NA
ATOM      8  C   UNL     1      19.489  -2.636  27.870  0.00  0.00    +0.070 C 
ATOM      9  C   UNL     1      18.605  -2.643  29.125  0.00  0.00    +0.096 C 
ATOM     11  C   UNL     1      20.224  -1.031  29.540  0.00  0.00    +0.085 C 
ATOM     12  C   UNL     1      20.568  -1.577  28.160  0.00  0.00    +0.028 C 
BRANCH   2   5
ATOM      5  C   UNL     1      18.760  -1.693  31.339  0.00  0.00    +0.057 C 
ATOM      6  C   UNL     1      17.262  -1.594  30.986  0.00  0.00    +0.019 C 
ATOM      7  C   UNL     1      18.770  -0.152  31.397  0.00  0.00    +0.019 C 
ATOM     10  C   UNL     1      17.261  -0.230  31.707  0.00  0.00    +0.003 C 
ENDBRANCH   2   5
ENDBRANCH  13   8
TORSDOF 2
ENDMDL
MODEL 7
REMARK VINA RESULT:      -5.7     25.173     27.706
REMARK  Name = 45784231
REMARK  2 active torsions:
REMARK  status: ('A' for Active; 'I' for Inactive)
REMARK    1  A    between atoms: N_2  and  C_5
REMARK    2  A    between atoms: C_8  and  C_13
REMARK                            x       y       z     vdW  Elec       q    Type
REMARK                         _______ _______ _______ _____ _____    ______ ____
ROOT
ATOM      1  F   UNL     1     -12.656  -8.825  17.862  0.00  0.00    -0.205 F 
ATOM      3  N   UNL     1      -7.916  -9.956  18.048  0.00  0.00    -0.341 N 
ATOM      4  N   UNL     1      -8.162 -11.332  19.777  0.00  0.00    -0.232 NA
ATOM     13  C   UNL     1      -7.307 -10.807  18.927  0.00  0.00    +0.113 A 
ATOM     14  C   UNL     1      -9.254  -9.929  18.350  0.00  0.00    +0.069 A 
ATOM     15  C   UNL     1      -9.382 -10.796  19.432  0.00  0.00    +0.089 A 
ATOM     16  C   UNL     1     -10.330  -9.242  17.787  0.00  0.00    +0.066 A 
ATOM     17  C   UNL     1     -10.652 -11.001  19.999  0.00  0.00    +0.032 A 
ATOM     18  C   UNL     1     -11.586  -9.459  18.363  0.00  0.00    +0.125 A 
ATOM     19  C   UNL     1     -11.746 -10.322  19.450  0.00  0.00    +0.040 A 
ATOM     20  H   UNL     1      -7.465  -9.437  17.307  0.00  0.00    +0.167 HD
ENDROOT
BRANCH  13   8
ATOM      2  N   UNL     1      -3.989 -11.135  17.402  0.00  0.00    -0.299 NA
ATOM      8  C   UNL     1      -5.820 -11.065  18.868  0.00  0.00    +0.070 C 
ATOM      9  C   UNL     1      -5.118 -10.269  17.759  0.00  0.00    +0.096 C 
ATOM     11  C   UNL     1      -4.552 -12.485  17.359  0.00  0.00    +0.085 C 
ATOM     12  C   UNL     1      -5.426 -12.529  18.605  0.00  0.00    +0.028 C 
BRANCH   2   5
ATOM      5  C   UNL     1      -3.437 -10.759  16.097  0.00  0.00    +0.057 C 
ATOM      6  C   UNL     1      -3.260 -12.020  15.227  0.00  0.00    +0.019 C 
ATOM      7  C   UNL     1      -1.897 -10.697  16.183  0.00  0.00    +0.019 C 
ATOM     10  C   UNL     1      -1.867 -11.473  14.851  0.00  0.00    +0.003 C 
ENDBRANCH   2   5
ENDBRANCH  13   8
TORSDOF 2
ENDMDL
MODEL 8
REMARK VINA RESULT:      -5.7     22.441     25.364
REMARK  Name = 45784231
REMARK  2 active torsions:
REMARK  status: ('A' for Active; 'I' for Inactive)
REMARK    1  A    between atoms: N_2  and  C_5
REMARK    2  A    between atoms: C_8  and  C_13
REMARK                            x       y       z     vdW  Elec       q    Type
REMARK                         _______ _______ _______ _____ _____    ______ ____
ROOT
ATOM      1  F   UNL     1      -3.722  -8.666   8.857  0.00  0.00    -0.205 F 
ATOM      3  N   UNL     1      -3.242 -10.977  13.124  0.00  0.00    -0.341 N 
ATOM      4  N   UNL     1      -5.244 -10.347  13.857  0.00  0.00    -0.232 NA
ATOM     13  C   UNL     1      -4.153 -11.023  14.141  0.00  0.00    +0.113 A 
ATOM     14  C   UNL     1      -3.780 -10.220  12.114  0.00  0.00    +0.069 A 
ATOM     15  C   UNL     1      -5.030  -9.840  12.595  0.00  0.00    +0.089 A 
ATOM     16  C   UNL     1      -3.297  -9.849  10.860  0.00  0.00    +0.066 A 
ATOM     17  C   UNL     1      -5.859  -9.040  11.791  0.00  0.00    +0.032 A 
ATOM     18  C   UNL     1      -4.135  -9.054  10.072  0.00  0.00    +0.125 A 
ATOM     19  C   UNL     1      -5.394  -8.655  10.527  0.00  0.00    +0.040 A 
ATOM     20  H   UNL     1      -2.332 -11.419  13.113  0.00  0.00    +0.167 HD
ENDROOT
BRANCH  13   8
ATOM      2  N   UNL     1      -4.751 -12.292  17.529  0.00  0.00    -0.299 NA
ATOM      8  C   UNL     1      -3.868 -11.783  15.416  0.00  0.00    +0.070 C 
ATOM      9  C   UNL     1      -5.141 -12.278  16.115  0.00  0.00    +0.096 C 
ATOM     11  C   UNL     1      -4.013 -11.044  17.726  0.00  0.00    +0.085 C 
ATOM     12  C   UNL     1      -3.119 -10.980  16.494  0.00  0.00    +0.028 C 
BRANCH   2   5
ATOM      5  C   UNL     1      -5.934 -12.340  18.395  0.00  0.00    +0.057 C 
ATOM      6  C   UNL     1      -7.058 -11.477  17.783  0.00  0.00    +0.019 C 
ATOM      7  C   UNL     1      -5.815 -11.267  19.497  0.00  0.00    +0.019 C 
ATOM     10  C   UNL     1      -7.285 -10.907  19.199  0.00  0.00    +0.003 C 
ENDBRANCH   2   5
ENDBRANCH  13   8
TORSDOF 2
ENDMDL
MODEL 9
REMARK VINA RESULT:      -5.7     12.959     15.616
REMARK  Name = 45784231
REMARK  2 active torsions:
REMARK  status: ('A' for Active; 'I' for Inactive)
REMARK    1  A    between atoms: N_2  and  C_5
REMARK    2  A    between atoms: C_8  and  C_13
REMARK                            x       y       z     vdW  Elec       q    Type
REMARK                         _______ _______ _______ _____ _____    ______ ____
ROOT
ATOM      1  F   UNL     1      15.844  14.401  15.494  0.00  0.00    -0.205 F 
ATOM      3  N   UNL     1      14.631  10.039  17.305  0.00  0.00    -0.341 N 
ATOM      4  N   UNL     1      13.301   9.537  15.596  0.00  0.00    -0.232 NA
ATOM     13  C   UNL     1      13.790   9.120  16.743  0.00  0.00    +0.113 A 
ATOM     14  C   UNL     1      14.689  11.122  16.465  0.00  0.00    +0.069 A 
ATOM     15  C   UNL     1      13.852  10.783  15.405  0.00  0.00    +0.089 A 
ATOM     16  C   UNL     1      15.382  12.331  16.538  0.00  0.00    +0.066 A 
ATOM     17  C   UNL     1      13.683  11.694  14.348  0.00  0.00    +0.032 A 
ATOM     18  C   UNL     1      15.203  13.224  15.477  0.00  0.00    +0.125 A 
ATOM     19  C   UNL     1      14.368  12.914  14.400  0.00  0.00    +0.040 A 
ATOM     20  H   UNL     1      15.123   9.943  18.183  0.00  0.00    +0.167 HD
ENDROOT
BRANCH  13   8
ATOM      2  N   UNL     1      12.558   6.852  19.347  0.00  0.00    -0.299 NA
ATOM      8  C   UNL     1      13.503   7.801  17.421  0.00  0.00    +0.070 C 
ATOM      9  C   UNL     1      12.253   7.843  18.310  0.00  0.00    +0.096 C 
ATOM     11  C   UNL     1      13.955   7.100  19.703  0.00  0.00    +0.085 C 
ATOM     12  C   UNL     1      14.622   7.292  18.347  0.00  0.00    +0.028 C 
BRANCH   2   5
ATOM      5  C   UNL     1      11.684   7.032  20.511  0.00  0.00    +0.057 C 
ATOM      6  C   UNL     1      10.939   8.379  20.396  0.00  0.00    +0.019 C 
ATOM      7  C   UNL     1      12.486   7.663  21.669  0.00  0.00    +0.019 C 
ATOM     10  C   UNL     1      11.288   8.611  21.881  0.00  0.00    +0.003 C 
ENDBRANCH   2   5
ENDBRANCH  13   8
TORSDOF 2
ENDMDL
MODEL 10
REMARK VINA RESULT:      -5.7     25.984     29.046
REMARK  Name = 45784231
REMARK  2 active torsions:
REMARK  status: ('A' for Active; 'I' for Inactive)
REMARK    1  A    between atoms: N_2  and  C_5
REMARK    2  A    between atoms: C_8  and  C_13
REMARK                            x       y       z     vdW  Elec       q    Type
REMARK                         _______ _______ _______ _____ _____    ______ ____
ROOT
ATOM      1  F   UNL     1      -3.396 -12.381  19.709  0.00  0.00    -0.205 F 
ATOM      3  N   UNL     1      -7.672 -10.237  18.759  0.00  0.00    -0.341 N 
ATOM      4  N   UNL     1      -7.075  -9.626  16.706  0.00  0.00    -0.232 NA
ATOM     13  C   UNL     1      -8.037  -9.607  17.602  0.00  0.00    +0.113 A 
ATOM     14  C   UNL     1      -6.389 -10.694  18.599  0.00  0.00    +0.069 A 
ATOM     15  C   UNL     1      -6.039 -10.302  17.310  0.00  0.00    +0.089 A 
ATOM     16  C   UNL     1      -5.530 -11.397  19.445  0.00  0.00    +0.066 A 
ATOM     17  C   UNL     1      -4.761 -10.619  16.819  0.00  0.00    +0.032 A 
ATOM     18  C   UNL     1      -4.263 -11.706  18.940  0.00  0.00    +0.125 A 
ATOM     19  C   UNL     1      -3.883 -11.325  17.651  0.00  0.00    +0.040 A 
ATOM     20  H   UNL     1      -8.242 -10.348  19.587  0.00  0.00    +0.167 HD
ENDROOT
BRANCH  13   8
ATOM      2  N   UNL     1     -11.689  -9.365  17.815  0.00  0.00    -0.299 NA
ATOM      8  C   UNL     1      -9.404  -8.983  17.447  0.00  0.00    +0.070 C 
ATOM      9  C   UNL     1     -10.402  -9.454  18.513  0.00  0.00    +0.096 C 
ATOM     11  C   UNL     1     -11.431  -9.912  16.483  0.00  0.00    +0.085 C 
ATOM     12  C   UNL     1     -10.100  -9.275  16.106  0.00  0.00    +0.028 C 
BRANCH   2   5
ATOM      5  C   UNL     1     -12.714 -10.150  18.512  0.00  0.00    +0.057 C 
ATOM      6  C   UNL     1     -14.071  -9.420  18.427  0.00  0.00    +0.019 C 
ATOM      7  C   UNL     1     -12.705  -9.798  20.014  0.00  0.00    +0.019 C 
ATOM     10  C   UNL     1     -14.244  -9.730  19.929  0.00  0.00    +0.003 C 
ENDBRANCH   2   5
ENDBRANCH  13   8
TORSDOF 2
ENDMDL
