MODEL 1
REMARK VINA RESULT:      -7.1      0.000      0.000
REMARK  Name = 45361052
REMARK  9 active torsions:
REMARK  status: ('A' for Active; 'I' for Inactive)
REMARK    1  A    between atoms: S_1  and  C_27
REMARK    2  A    between atoms: S_1  and  C_29
REMARK    3  A    between atoms: N_6  and  C_17
REMARK    4  A    between atoms: N_7  and  C_19
REMARK    5  A    between atoms: N_9  and  C_28
REMARK    6  A    between atoms: C_14  and  C_18
REMARK    7  A    between atoms: C_17  and  C_21
REMARK    8  A    between atoms: C_18  and  C_20
REMARK    9  A    between atoms: C_20  and  C_24
REMARK                            x       y       z     vdW  Elec       q    Type
REMARK                         _______ _______ _______ _____ _____    ______ ____
ROOT
ATOM      2  O   UNL     1      -5.956  -9.567  13.409  0.00  0.00    -0.274 OA
ATOM      6  N   UNL     1      -3.845 -10.617  12.093  0.00  0.00    -0.286 NA
ATOM      7  N   UNL     1      -3.085 -10.852  15.665  0.00  0.00    -0.296 NA
ATOM      8  N   UNL     1      -5.907 -11.089  15.118  0.00  0.00    -0.312 N 
ATOM     10  C   UNL     1      -2.951 -11.273  14.253  0.00  0.00    +0.084 C 
ATOM     11  C   UNL     1      -4.225 -11.277  13.357  0.00  0.00    +0.161 C 
ATOM     12  C   UNL     1      -1.983 -10.403  13.430  0.00  0.00    +0.036 C 
ATOM     13  C   UNL     1      -2.391 -10.679  11.998  0.00  0.00    +0.087 C 
ATOM     14  C   UNL     1      -3.951 -11.736  16.493  0.00  0.00    +0.074 C 
ATOM     15  C   UNL     1      -5.428 -10.542  13.942  0.00  0.00    +0.232 C 
ATOM     16  C   UNL     1      -5.259 -12.184  15.812  0.00  0.00    +0.123 C 
ATOM     19  C   UNL     1      -1.761 -10.702  16.294  0.00  0.00    +0.105 C 
ATOM     35  H   UNL     1      -6.746 -10.687  15.523  0.00  0.00    +0.149 HD
ENDROOT
BRANCH   6  17
ATOM     17  C   UNL     1      -4.496 -11.193  10.923  0.00  0.00    +0.120 C 
BRANCH  17  21
ATOM     21  C   UNL     1      -5.445 -10.221  10.274  0.00  0.00    -0.033 A 
ATOM     22  C   UNL     1      -6.733 -10.629   9.926  0.00  0.00    +0.007 A 
ATOM     23  C   UNL     1      -5.035  -8.912  10.021  0.00  0.00    +0.007 A 
ATOM     25  C   UNL     1      -7.611  -9.728   9.325  0.00  0.00    +0.027 A 
ATOM     26  C   UNL     1      -5.914  -8.011   9.418  0.00  0.00    +0.027 A 
ATOM     27  C   UNL     1      -7.202  -8.420   9.071  0.00  0.00    +0.088 A 
BRANCH  27   1
ATOM      1  S   UNL     1      -8.304  -7.291   8.321  0.00  0.00    -0.006 S 
ATOM      4  O   UNL     1      -9.563  -7.305   9.054  0.00  0.00    -0.170 OA
ATOM      5  O   UNL     1      -7.595  -6.035   8.126  0.00  0.00    -0.170 OA
ATOM     29  C   UNL     1      -8.630  -7.990   6.718  0.00  0.00    +0.200 C 
ENDBRANCH  27   1
ENDBRANCH  17  21
ENDBRANCH   6  17
BRANCH  14  18
ATOM     18  C   UNL     1      -4.332 -11.035  17.814  0.00  0.00    +0.029 C 
BRANCH  18  20
ATOM     20  C   UNL     1      -5.218 -11.912  18.683  0.00  0.00    +0.098 C 
BRANCH  20  24
ATOM      3  O   UNL     1      -6.324 -10.566  20.351  0.00  0.00    -0.275 OA
ATOM      9  N   UNL     1      -7.529 -11.307  18.476  0.00  0.00    -0.285 N 
ATOM     24  C   UNL     1      -6.409 -11.182  19.293  0.00  0.00    +0.217 C 
ATOM     36  H   UNL     1      -7.427 -11.845  17.617  0.00  0.00    +0.155 HD
BRANCH   9  28
ATOM     28  C   UNL     1      -8.821 -10.772  18.697  0.00  0.00    +0.033 A 
ATOM     30  C   UNL     1      -9.332  -9.807  17.830  0.00  0.00    +0.023 A 
ATOM     31  C   UNL     1      -9.582 -11.210  19.780  0.00  0.00    +0.023 A 
ATOM     32  C   UNL     1     -10.605  -9.279  18.046  0.00  0.00    +0.002 A 
ATOM     33  C   UNL     1     -10.856 -10.683  19.996  0.00  0.00    +0.002 A 
ATOM     34  C   UNL     1     -11.367  -9.717  19.128  0.00  0.00    +0.000 A 
ENDBRANCH   9  28
ENDBRANCH  20  24
ENDBRANCH  18  20
ENDBRANCH  14  18
TORSDOF 7
ENDMDL
MODEL 2
REMARK VINA RESULT:      -6.9      5.199      9.475
REMARK  Name = 45361052
REMARK  9 active torsions:
REMARK  status: ('A' for Active; 'I' for Inactive)
REMARK    1  A    between atoms: S_1  and  C_27
REMARK    2  A    between atoms: S_1  and  C_29
REMARK    3  A    between atoms: N_6  and  C_17
REMARK    4  A    between atoms: N_7  and  C_19
REMARK    5  A    between atoms: N_9  and  C_28
REMARK    6  A    between atoms: C_14  and  C_18
REMARK    7  A    between atoms: C_17  and  C_21
REMARK    8  A    between atoms: C_18  and  C_20
REMARK    9  A    between atoms: C_20  and  C_24
REMARK                            x       y       z     vdW  Elec       q    Type
REMARK                         _______ _______ _______ _____ _____    ______ ____
ROOT
ATOM      2  O   UNL     1      -7.284  -8.743  10.490  0.00  0.00    -0.274 OA
ATOM      6  N   UNL     1      -5.225  -9.676   9.012  0.00  0.00    -0.286 NA
ATOM      7  N   UNL     1      -8.150  -9.597   6.814  0.00  0.00    -0.296 NA
ATOM      8  N   UNL     1      -8.201  -7.503   8.798  0.00  0.00    -0.312 N 
ATOM     10  C   UNL     1      -6.695  -9.579   7.082  0.00  0.00    +0.084 C 
ATOM     11  C   UNL     1      -6.179  -8.788   8.321  0.00  0.00    +0.161 C 
ATOM     12  C   UNL     1      -6.085 -10.974   7.316  0.00  0.00    +0.036 C 
ATOM     13  C   UNL     1      -4.791 -10.676   8.042  0.00  0.00    +0.087 C 
ATOM     14  C   UNL     1      -8.736  -8.264   6.502  0.00  0.00    +0.074 C 
ATOM     15  C   UNL     1      -7.259  -8.373   9.317  0.00  0.00    +0.232 C 
ATOM     16  C   UNL     1      -8.246  -7.113   7.402  0.00  0.00    +0.123 C 
ATOM     19  C   UNL     1      -8.473 -10.559   5.746  0.00  0.00    +0.105 C 
ATOM     35  H   UNL     1      -8.908  -7.136   9.426  0.00  0.00    +0.149 HD
ENDROOT
BRANCH   6  17
ATOM     17  C   UNL     1      -4.101  -8.964   9.607  0.00  0.00    +0.120 C 
BRANCH  17  21
ATOM     21  C   UNL     1      -3.640  -9.613  10.885  0.00  0.00    -0.033 A 
ATOM     22  C   UNL     1      -4.569  -9.962  11.865  0.00  0.00    +0.007 A 
ATOM     23  C   UNL     1      -2.283  -9.865  11.088  0.00  0.00    +0.007 A 
ATOM     25  C   UNL     1      -4.140 -10.564  13.049  0.00  0.00    +0.027 A 
ATOM     26  C   UNL     1      -1.855 -10.465  12.272  0.00  0.00    +0.027 A 
ATOM     27  C   UNL     1      -2.784 -10.815  13.252  0.00  0.00    +0.088 A 
BRANCH  27   1
ATOM      1  S   UNL     1      -2.250 -11.571  14.733  0.00  0.00    -0.006 S 
ATOM      4  O   UNL     1      -3.413 -11.862  15.559  0.00  0.00    -0.170 OA
ATOM      5  O   UNL     1      -1.327 -12.641  14.381  0.00  0.00    -0.170 OA
ATOM     29  C   UNL     1      -1.325 -10.303  15.568  0.00  0.00    +0.200 C 
ENDBRANCH  27   1
ENDBRANCH  17  21
ENDBRANCH   6  17
BRANCH  14  18
ATOM     18  C   UNL     1     -10.275  -8.313   6.607  0.00  0.00    +0.029 C 
BRANCH  18  20
ATOM     20  C   UNL     1     -10.887  -6.922   6.589  0.00  0.00    +0.098 C 
BRANCH  20  24
ATOM      3  O   UNL     1     -12.310  -7.459   8.460  0.00  0.00    -0.275 OA
ATOM      9  N   UNL     1     -11.680  -5.227   8.087  0.00  0.00    -0.285 N 
ATOM     24  C   UNL     1     -11.722  -6.593   7.820  0.00  0.00    +0.217 C 
ATOM     36  H   UNL     1     -11.130  -4.642   7.462  0.00  0.00    +0.155 HD
BRANCH   9  28
ATOM     28  C   UNL     1     -12.324  -4.536   9.141  0.00  0.00    +0.033 A 
ATOM     30  C   UNL     1     -11.702  -4.427  10.385  0.00  0.00    +0.023 A 
ATOM     31  C   UNL     1     -13.579  -3.963   8.937  0.00  0.00    +0.023 A 
ATOM     32  C   UNL     1     -12.335  -3.744  11.424  0.00  0.00    +0.002 A 
ATOM     33  C   UNL     1     -14.212  -3.281   9.976  0.00  0.00    +0.002 A 
ATOM     34  C   UNL     1     -13.590  -3.172  11.220  0.00  0.00    +0.000 A 
ENDBRANCH   9  28
ENDBRANCH  20  24
ENDBRANCH  18  20
ENDBRANCH  14  18
TORSDOF 7
ENDMDL
MODEL 3
REMARK VINA RESULT:      -6.9      6.688      9.414
REMARK  Name = 45361052
REMARK  9 active torsions:
REMARK  status: ('A' for Active; 'I' for Inactive)
REMARK    1  A    between atoms: S_1  and  C_27
REMARK    2  A    between atoms: S_1  and  C_29
REMARK    3  A    between atoms: N_6  and  C_17
REMARK    4  A    between atoms: N_7  and  C_19
REMARK    5  A    between atoms: N_9  and  C_28
REMARK    6  A    between atoms: C_14  and  C_18
REMARK    7  A    between atoms: C_17  and  C_21
REMARK    8  A    between atoms: C_18  and  C_20
REMARK    9  A    between atoms: C_20  and  C_24
REMARK                            x       y       z     vdW  Elec       q    Type
REMARK                         _______ _______ _______ _____ _____    ______ ____
ROOT
ATOM      2  O   UNL     1     -11.884  -4.739  12.505  0.00  0.00    -0.274 OA
ATOM      6  N   UNL     1     -14.570  -4.876  12.746  0.00  0.00    -0.286 NA
ATOM      7  N   UNL     1     -13.198  -7.705  14.618  0.00  0.00    -0.296 NA
ATOM      8  N   UNL     1     -11.455  -5.407  14.652  0.00  0.00    -0.312 N 
ATOM     10  C   UNL     1     -14.238  -6.696  14.318  0.00  0.00    +0.084 C 
ATOM     11  C   UNL     1     -13.785  -5.256  13.935  0.00  0.00    +0.161 C 
ATOM     12  C   UNL     1     -15.149  -7.070  13.133  0.00  0.00    +0.036 C 
ATOM     13  C   UNL     1     -15.743  -5.743  12.712  0.00  0.00    +0.087 C 
ATOM     14  C   UNL     1     -12.366  -7.395  15.814  0.00  0.00    +0.074 C 
ATOM     15  C   UNL     1     -12.303  -5.113  13.600  0.00  0.00    +0.232 C 
ATOM     16  C   UNL     1     -11.912  -5.927  15.925  0.00  0.00    +0.123 C 
ATOM     19  C   UNL     1     -13.793  -9.047  14.744  0.00  0.00    +0.105 C 
ATOM     35  H   UNL     1     -10.459  -5.268  14.515  0.00  0.00    +0.149 HD
ENDROOT
BRANCH   6  17
ATOM     17  C   UNL     1     -14.931  -3.464  12.719  0.00  0.00    +0.120 C 
BRANCH  17  21
ATOM     21  C   UNL     1     -15.016  -2.934  11.313  0.00  0.00    -0.033 A 
ATOM     22  C   UNL     1     -14.176  -3.444  10.323  0.00  0.00    +0.007 A 
ATOM     23  C   UNL     1     -15.935  -1.932  11.000  0.00  0.00    +0.007 A 
ATOM     25  C   UNL     1     -14.256  -2.952   9.020  0.00  0.00    +0.027 A 
ATOM     26  C   UNL     1     -16.014  -1.440   9.697  0.00  0.00    +0.027 A 
ATOM     27  C   UNL     1     -15.174  -1.950   8.707  0.00  0.00    +0.088 A 
BRANCH  27   1
ATOM      1  S   UNL     1     -15.275  -1.338   7.075  0.00  0.00    -0.006 S 
ATOM      4  O   UNL     1     -16.311  -0.316   7.019  0.00  0.00    -0.170 OA
ATOM      5  O   UNL     1     -13.925  -1.024   6.630  0.00  0.00    -0.170 OA
ATOM     29  C   UNL     1     -15.858  -2.720   6.119  0.00  0.00    +0.200 C 
ENDBRANCH  27   1
ENDBRANCH  17  21
ENDBRANCH   6  17
BRANCH  14  18
ATOM     18  C   UNL     1     -11.099  -8.276  15.833  0.00  0.00    +0.029 C 
BRANCH  18  20
ATOM     20  C   UNL     1     -10.497  -8.369  17.225  0.00  0.00    +0.098 C 
BRANCH  20  24
ATOM      3  O   UNL     1      -9.857 -10.693  17.284  0.00  0.00    -0.275 OA
ATOM      9  N   UNL     1      -8.239  -9.037  17.678  0.00  0.00    -0.285 N 
ATOM     24  C   UNL     1      -9.515  -9.521  17.402  0.00  0.00    +0.217 C 
ATOM     36  H   UNL     1      -8.120  -8.027  17.729  0.00  0.00    +0.155 HD
BRANCH   9  28
ATOM     28  C   UNL     1      -7.062  -9.790  17.906  0.00  0.00    +0.033 A 
ATOM     30  C   UNL     1      -6.869 -10.426  19.132  0.00  0.00    +0.023 A 
ATOM     31  C   UNL     1      -6.097  -9.896  16.905  0.00  0.00    +0.023 A 
ATOM     32  C   UNL     1      -5.709 -11.169  19.357  0.00  0.00    +0.002 A 
ATOM     33  C   UNL     1      -4.938 -10.639  17.130  0.00  0.00    +0.002 A 
ATOM     34  C   UNL     1      -4.744 -11.275  18.357  0.00  0.00    +0.000 A 
ENDBRANCH   9  28
ENDBRANCH  20  24
ENDBRANCH  18  20
ENDBRANCH  14  18
TORSDOF 7
ENDMDL
MODEL 4
REMARK VINA RESULT:      -6.8     25.549     28.948
REMARK  Name = 45361052
REMARK  9 active torsions:
REMARK  status: ('A' for Active; 'I' for Inactive)
REMARK    1  A    between atoms: S_1  and  C_27
REMARK    2  A    between atoms: S_1  and  C_29
REMARK    3  A    between atoms: N_6  and  C_17
REMARK    4  A    between atoms: N_7  and  C_19
REMARK    5  A    between atoms: N_9  and  C_28
REMARK    6  A    between atoms: C_14  and  C_18
REMARK    7  A    between atoms: C_17  and  C_21
REMARK    8  A    between atoms: C_18  and  C_20
REMARK    9  A    between atoms: C_20  and  C_24
REMARK                            x       y       z     vdW  Elec       q    Type
REMARK                         _______ _______ _______ _____ _____    ______ ____
ROOT
ATOM      2  O   UNL     1      12.280   5.842   7.867  0.00  0.00    -0.274 OA
ATOM      6  N   UNL     1       9.939   7.089   7.359  0.00  0.00    -0.286 NA
ATOM      7  N   UNL     1      12.562   9.630   7.120  0.00  0.00    -0.296 NA
ATOM      8  N   UNL     1      13.476   7.017   6.310  0.00  0.00    -0.312 N 
ATOM     10  C   UNL     1      11.228   9.071   6.807  0.00  0.00    +0.084 C 
ATOM     11  C   UNL     1      11.104   7.536   6.573  0.00  0.00    +0.161 C 
ATOM     12  C   UNL     1      10.174   9.314   7.904  0.00  0.00    +0.036 C 
ATOM     13  C   UNL     1       9.119   8.268   7.616  0.00  0.00    +0.087 C 
ATOM     14  C   UNL     1      13.566   9.477   6.032  0.00  0.00    +0.074 C 
ATOM     15  C   UNL     1      12.318   6.718   7.003  0.00  0.00    +0.232 C 
ATOM     16  C   UNL     1      13.575   8.097   5.347  0.00  0.00    +0.123 C 
ATOM     19  C   UNL     1      12.455  11.044   7.520  0.00  0.00    +0.105 C 
ATOM     35  H   UNL     1      14.304   6.463   6.501  0.00  0.00    +0.149 HD
ENDROOT
BRANCH   6  17
ATOM     17  C   UNL     1       9.182   6.024   6.714  0.00  0.00    +0.120 C 
BRANCH  17  21
ATOM     21  C   UNL     1       9.544   5.880   5.260  0.00  0.00    -0.033 A 
ATOM     22  C   UNL     1      10.247   4.757   4.824  0.00  0.00    +0.007 A 
ATOM     23  C   UNL     1       9.176   6.870   4.350  0.00  0.00    +0.007 A 
ATOM     25  C   UNL     1      10.582   4.624   3.476  0.00  0.00    +0.027 A 
ATOM     26  C   UNL     1       9.513   6.738   3.002  0.00  0.00    +0.027 A 
ATOM     27  C   UNL     1      10.215   5.615   2.566  0.00  0.00    +0.088 A 
BRANCH  27   1
ATOM      1  S   UNL     1      10.632   5.445   0.878  0.00  0.00    -0.006 S 
ATOM      4  O   UNL     1      12.079   5.536   0.740  0.00  0.00    -0.170 OA
ATOM      5  O   UNL     1       9.928   4.283   0.357  0.00  0.00    -0.170 OA
ATOM     29  C   UNL     1       9.946   6.893   0.106  0.00  0.00    +0.200 C 
ENDBRANCH  27   1
ENDBRANCH  17  21
ENDBRANCH   6  17
BRANCH  14  18
ATOM     18  C   UNL     1      14.989   9.738   6.569  0.00  0.00    +0.029 C 
BRANCH  18  20
ATOM     20  C   UNL     1      15.696  10.833   5.788  0.00  0.00    +0.098 C 
BRANCH  20  24
ATOM      3  O   UNL     1      17.916  11.384   5.026  0.00  0.00    -0.275 OA
ATOM      9  N   UNL     1      17.470   9.220   5.821  0.00  0.00    -0.285 N 
ATOM     24  C   UNL     1      17.159  10.535   5.484  0.00  0.00    +0.217 C 
ATOM     36  H   UNL     1      16.723   8.645   6.206  0.00  0.00    +0.155 HD
BRANCH   9  28
ATOM     28  C   UNL     1      18.719   8.569   5.688  0.00  0.00    +0.033 A 
ATOM     30  C   UNL     1      19.603   8.532   6.767  0.00  0.00    +0.023 A 
ATOM     31  C   UNL     1      19.068   7.965   4.481  0.00  0.00    +0.023 A 
ATOM     32  C   UNL     1      20.835   7.890   6.639  0.00  0.00    +0.002 A 
ATOM     33  C   UNL     1      20.300   7.323   4.352  0.00  0.00    +0.002 A 
ATOM     34  C   UNL     1      21.183   7.286   5.431  0.00  0.00    +0.000 A 
ENDBRANCH   9  28
ENDBRANCH  20  24
ENDBRANCH  18  20
ENDBRANCH  14  18
TORSDOF 7
ENDMDL
MODEL 5
REMARK VINA RESULT:      -6.6      2.990      7.620
REMARK  Name = 45361052
REMARK  9 active torsions:
REMARK  status: ('A' for Active; 'I' for Inactive)
REMARK    1  A    between atoms: S_1  and  C_27
REMARK    2  A    between atoms: S_1  and  C_29
REMARK    3  A    between atoms: N_6  and  C_17
REMARK    4  A    between atoms: N_7  and  C_19
REMARK    5  A    between atoms: N_9  and  C_28
REMARK    6  A    between atoms: C_14  and  C_18
REMARK    7  A    between atoms: C_17  and  C_21
REMARK    8  A    between atoms: C_18  and  C_20
REMARK    9  A    between atoms: C_20  and  C_24
REMARK                            x       y       z     vdW  Elec       q    Type
REMARK                         _______ _______ _______ _____ _____    ______ ____
ROOT
ATOM      2  O   UNL     1      -7.513  -9.875  15.126  0.00  0.00    -0.274 OA
ATOM      6  N   UNL     1      -8.125 -11.249  17.369  0.00  0.00    -0.286 NA
ATOM      7  N   UNL     1      -5.088 -12.764  16.000  0.00  0.00    -0.296 NA
ATOM      8  N   UNL     1      -5.250  -9.934  15.466  0.00  0.00    -0.312 N 
ATOM     10  C   UNL     1      -6.024 -12.435  17.098  0.00  0.00    +0.084 C 
ATOM     11  C   UNL     1      -6.691 -11.027  17.107  0.00  0.00    +0.161 C 
ATOM     12  C   UNL     1      -7.247 -13.369  17.179  0.00  0.00    +0.036 C 
ATOM     13  C   UNL     1      -8.250 -12.568  17.981  0.00  0.00    +0.087 C 
ATOM     14  C   UNL     1      -3.860 -11.923  15.964  0.00  0.00    +0.074 C 
ATOM     15  C   UNL     1      -6.554 -10.241  15.806  0.00  0.00    +0.232 C 
ATOM     16  C   UNL     1      -4.097 -10.419  16.199  0.00  0.00    +0.123 C 
ATOM     19  C   UNL     1      -4.727 -14.192  16.031  0.00  0.00    +0.105 C 
ATOM     35  H   UNL     1      -5.094  -9.355  14.647  0.00  0.00    +0.149 HD
ENDROOT
BRANCH   6  17
ATOM     17  C   UNL     1      -8.731 -10.205  18.186  0.00  0.00    +0.120 C 
BRANCH  17  21
ATOM     21  C   UNL     1      -9.765  -9.424  17.422  0.00  0.00    -0.033 A 
ATOM     22  C   UNL     1     -10.742 -10.093  16.684  0.00  0.00    +0.007 A 
ATOM     23  C   UNL     1      -9.747  -8.029  17.450  0.00  0.00    +0.007 A 
ATOM     25  C   UNL     1     -11.700  -9.368  15.976  0.00  0.00    +0.027 A 
ATOM     26  C   UNL     1     -10.704  -7.304  16.741  0.00  0.00    +0.027 A 
ATOM     27  C   UNL     1     -11.681  -7.975  16.004  0.00  0.00    +0.088 A 
BRANCH  27   1
ATOM      1  S   UNL     1     -12.884  -7.068  15.119  0.00  0.00    -0.006 S 
ATOM      4  O   UNL     1     -13.314  -7.853  13.970  0.00  0.00    -0.170 OA
ATOM      5  O   UNL     1     -13.870  -6.583  16.073  0.00  0.00    -0.170 OA
ATOM     29  C   UNL     1     -11.999  -5.662  14.484  0.00  0.00    +0.200 C 
ENDBRANCH  27   1
ENDBRANCH  17  21
ENDBRANCH   6  17
BRANCH  14  18
ATOM     18  C   UNL     1      -3.142 -12.073  14.606  0.00  0.00    +0.029 C 
BRANCH  18  20
ATOM     20  C   UNL     1      -2.282 -10.863  14.285  0.00  0.00    +0.098 C 
BRANCH  20  24
ATOM      3  O   UNL     1      -1.346 -10.114  12.193  0.00  0.00    -0.275 OA
ATOM      9  N   UNL     1      -3.663 -10.452  12.368  0.00  0.00    -0.285 N 
ATOM     24  C   UNL     1      -2.349 -10.421  12.828  0.00  0.00    +0.217 C 
ATOM     36  H   UNL     1      -4.384 -10.746  13.025  0.00  0.00    +0.155 HD
BRANCH   9  28
ATOM     28  C   UNL     1      -4.132 -10.114  11.077  0.00  0.00    +0.033 A 
ATOM     30  C   UNL     1      -4.741  -8.878  10.858  0.00  0.00    +0.023 A 
ATOM     31  C   UNL     1      -3.986 -11.016  10.023  0.00  0.00    +0.023 A 
ATOM     32  C   UNL     1      -5.204  -8.544   9.585  0.00  0.00    +0.002 A 
ATOM     33  C   UNL     1      -4.449 -10.681   8.750  0.00  0.00    +0.002 A 
ATOM     34  C   UNL     1      -5.058  -9.445   8.531  0.00  0.00    +0.000 A 
ENDBRANCH   9  28
ENDBRANCH  20  24
ENDBRANCH  18  20
ENDBRANCH  14  18
TORSDOF 7
ENDMDL
MODEL 6
REMARK VINA RESULT:      -6.6      3.199      7.529
REMARK  Name = 45361052
REMARK  9 active torsions:
REMARK  status: ('A' for Active; 'I' for Inactive)
REMARK    1  A    between atoms: S_1  and  C_27
REMARK    2  A    between atoms: S_1  and  C_29
REMARK    3  A    between atoms: N_6  and  C_17
REMARK    4  A    between atoms: N_7  and  C_19
REMARK    5  A    between atoms: N_9  and  C_28
REMARK    6  A    between atoms: C_14  and  C_18
REMARK    7  A    between atoms: C_17  and  C_21
REMARK    8  A    between atoms: C_18  and  C_20
REMARK    9  A    between atoms: C_20  and  C_24
REMARK                            x       y       z     vdW  Elec       q    Type
REMARK                         _______ _______ _______ _____ _____    ______ ____
ROOT
ATOM      2  O   UNL     1      -8.490  -9.455  15.202  0.00  0.00    -0.274 OA
ATOM      6  N   UNL     1      -9.881  -9.148  17.497  0.00  0.00    -0.286 NA
ATOM      7  N   UNL     1      -7.366 -11.732  18.125  0.00  0.00    -0.296 NA
ATOM      8  N   UNL     1      -6.467  -9.750  16.231  0.00  0.00    -0.312 N 
ATOM     10  C   UNL     1      -8.295 -10.659  18.544  0.00  0.00    +0.084 C 
ATOM     11  C   UNL     1      -8.434  -9.402  17.635  0.00  0.00    +0.161 C 
ATOM     12  C   UNL     1      -9.759 -11.118  18.683  0.00  0.00    +0.036 C 
ATOM     13  C   UNL     1     -10.542  -9.825  18.607  0.00  0.00    +0.087 C 
ATOM     14  C   UNL     1      -5.935 -11.322  18.070  0.00  0.00    +0.074 C 
ATOM     15  C   UNL     1      -7.834  -9.545  16.239  0.00  0.00    +0.232 C 
ATOM     16  C   UNL     1      -5.679  -9.942  17.433  0.00  0.00    +0.123 C 
ATOM     19  C   UNL     1      -7.523 -12.922  18.978  0.00  0.00    +0.105 C 
ATOM     35  H   UNL     1      -5.996  -9.788  15.333  0.00  0.00    +0.149 HD
ENDROOT
BRANCH   6  17
ATOM     17  C   UNL     1     -10.215  -7.731  17.440  0.00  0.00    +0.120 C 
BRANCH  17  21
ATOM     21  C   UNL     1     -11.127  -7.416  16.284  0.00  0.00    -0.033 A 
ATOM     22  C   UNL     1     -11.715  -8.451  15.557  0.00  0.00    +0.007 A 
ATOM     23  C   UNL     1     -11.384  -6.089  15.941  0.00  0.00    +0.007 A 
ATOM     25  C   UNL     1     -12.559  -8.159  14.486  0.00  0.00    +0.027 A 
ATOM     26  C   UNL     1     -12.228  -5.797  14.869  0.00  0.00    +0.027 A 
ATOM     27  C   UNL     1     -12.816  -6.832  14.142  0.00  0.00    +0.088 A 
BRANCH  27   1
ATOM      1  S   UNL     1     -13.876  -6.468  12.803  0.00  0.00    -0.006 S 
ATOM      4  O   UNL     1     -13.070  -6.056  11.662  0.00  0.00    -0.170 OA
ATOM      5  O   UNL     1     -14.816  -7.571  12.664  0.00  0.00    -0.170 OA
ATOM     29  C   UNL     1     -14.787  -5.037  13.338  0.00  0.00    +0.200 C 
ENDBRANCH  27   1
ENDBRANCH  17  21
ENDBRANCH   6  17
BRANCH  14  18
ATOM     18  C   UNL     1      -5.107 -12.358  17.282  0.00  0.00    +0.029 C 
BRANCH  18  20
ATOM     20  C   UNL     1      -3.762 -11.797  16.851  0.00  0.00    +0.098 C 
BRANCH  20  24
ATOM      3  O   UNL     1      -3.372 -13.029  14.816  0.00  0.00    -0.275 OA
ATOM      9  N   UNL     1      -3.392 -10.682  14.761  0.00  0.00    -0.285 N 
ATOM     24  C   UNL     1      -3.478 -11.935  15.361  0.00  0.00    +0.217 C 
ATOM     36  H   UNL     1      -3.519  -9.866  15.358  0.00  0.00    +0.155 HD
BRANCH   9  28
ATOM     28  C   UNL     1      -3.142 -10.393  13.399  0.00  0.00    +0.033 A 
ATOM     30  C   UNL     1      -1.832 -10.206  12.956  0.00  0.00    +0.023 A 
ATOM     31  C   UNL     1      -4.203 -10.297  12.499  0.00  0.00    +0.023 A 
ATOM     32  C   UNL     1      -1.584  -9.922  11.612  0.00  0.00    +0.002 A 
ATOM     33  C   UNL     1      -3.954 -10.013  11.155  0.00  0.00    +0.002 A 
ATOM     34  C   UNL     1      -2.645  -9.825  10.713  0.00  0.00    +0.000 A 
ENDBRANCH   9  28
ENDBRANCH  20  24
ENDBRANCH  18  20
ENDBRANCH  14  18
TORSDOF 7
ENDMDL
MODEL 7
REMARK VINA RESULT:      -6.5      6.188      8.977
REMARK  Name = 45361052
REMARK  9 active torsions:
REMARK  status: ('A' for Active; 'I' for Inactive)
REMARK    1  A    between atoms: S_1  and  C_27
REMARK    2  A    between atoms: S_1  and  C_29
REMARK    3  A    between atoms: N_6  and  C_17
REMARK    4  A    between atoms: N_7  and  C_19
REMARK    5  A    between atoms: N_9  and  C_28
REMARK    6  A    between atoms: C_14  and  C_18
REMARK    7  A    between atoms: C_17  and  C_21
REMARK    8  A    between atoms: C_18  and  C_20
REMARK    9  A    between atoms: C_20  and  C_24
REMARK                            x       y       z     vdW  Elec       q    Type
REMARK                         _______ _______ _______ _____ _____    ______ ____
ROOT
ATOM      2  O   UNL     1     -12.036  -5.075  12.864  0.00  0.00    -0.274 OA
ATOM      6  N   UNL     1     -14.374  -6.387  13.186  0.00  0.00    -0.286 NA
ATOM      7  N   UNL     1     -11.822  -8.334  14.943  0.00  0.00    -0.296 NA
ATOM      8  N   UNL     1     -11.272  -5.503  14.979  0.00  0.00    -0.312 N 
ATOM     10  C   UNL     1     -13.211  -7.886  14.701  0.00  0.00    +0.084 C 
ATOM     11  C   UNL     1     -13.455  -6.391  14.340  0.00  0.00    +0.161 C 
ATOM     12  C   UNL     1     -13.909  -8.614  13.537  0.00  0.00    +0.036 C 
ATOM     13  C   UNL     1     -15.044  -7.683  13.168  0.00  0.00    +0.087 C 
ATOM     14  C   UNL     1     -11.165  -7.699  16.119  0.00  0.00    +0.074 C 
ATOM     15  C   UNL     1     -12.203  -5.605  13.962  0.00  0.00    +0.232 C 
ATOM     16  C   UNL     1     -11.401  -6.182  16.253  0.00  0.00    +0.123 C 
ATOM     19  C   UNL     1     -11.757  -9.802  15.054  0.00  0.00    +0.105 C 
ATOM     35  H   UNL     1     -10.446  -4.937  14.814  0.00  0.00    +0.149 HD
ENDROOT
BRANCH   6  17
ATOM     17  C   UNL     1     -15.322  -5.280  13.207  0.00  0.00    +0.120 C 
BRANCH  17  21
ATOM     21  C   UNL     1     -15.340  -4.533  11.899  0.00  0.00    -0.033 A 
ATOM     22  C   UNL     1     -15.014  -3.177  11.865  0.00  0.00    +0.007 A 
ATOM     23  C   UNL     1     -15.682  -5.198  10.722  0.00  0.00    +0.007 A 
ATOM     25  C   UNL     1     -15.031  -2.486  10.654  0.00  0.00    +0.027 A 
ATOM     26  C   UNL     1     -15.700  -4.507   9.510  0.00  0.00    +0.027 A 
ATOM     27  C   UNL     1     -15.374  -3.151   9.477  0.00  0.00    +0.088 A 
BRANCH  27   1
ATOM      1  S   UNL     1     -15.391  -2.285   7.960  0.00  0.00    -0.006 S 
ATOM      4  O   UNL     1     -14.048  -1.794   7.683  0.00  0.00    -0.170 OA
ATOM      5  O   UNL     1     -16.074  -3.115   6.979  0.00  0.00    -0.170 OA
ATOM     29  C   UNL     1     -16.408  -0.860   8.275  0.00  0.00    +0.200 C 
ENDBRANCH  27   1
ENDBRANCH  17  21
ENDBRANCH   6  17
BRANCH  14  18
ATOM     18  C   UNL     1      -9.640  -7.929  16.076  0.00  0.00    +0.029 C 
BRANCH  18  20
ATOM     20  C   UNL     1      -9.133  -8.592  17.346  0.00  0.00    +0.098 C 
BRANCH  20  24
ATOM      3  O   UNL     1      -8.214 -10.818  17.462  0.00  0.00    -0.275 OA
ATOM      9  N   UNL     1      -6.971  -9.105  16.446  0.00  0.00    -0.285 N 
ATOM     24  C   UNL     1      -8.064  -9.653  17.110  0.00  0.00    +0.217 C 
ATOM     36  H   UNL     1      -7.011  -8.114  16.211  0.00  0.00    +0.155 HD
BRANCH   9  28
ATOM     28  C   UNL     1      -5.783  -9.765  16.050  0.00  0.00    +0.033 A 
ATOM     30  C   UNL     1      -5.586 -10.098  14.709  0.00  0.00    +0.023 A 
ATOM     31  C   UNL     1      -4.812 -10.084  16.997  0.00  0.00    +0.023 A 
ATOM     32  C   UNL     1      -4.416 -10.749  14.317  0.00  0.00    +0.002 A 
ATOM     33  C   UNL     1      -3.641 -10.735  16.605  0.00  0.00    +0.002 A 
ATOM     34  C   UNL     1      -3.444 -11.067  15.264  0.00  0.00    +0.000 A 
ENDBRANCH   9  28
ENDBRANCH  20  24
ENDBRANCH  18  20
ENDBRANCH  14  18
TORSDOF 7
ENDMDL
MODEL 8
REMARK VINA RESULT:      -6.5     28.602     31.794
REMARK  Name = 45361052
REMARK  9 active torsions:
REMARK  status: ('A' for Active; 'I' for Inactive)
REMARK    1  A    between atoms: S_1  and  C_27
REMARK    2  A    between atoms: S_1  and  C_29
REMARK    3  A    between atoms: N_6  and  C_17
REMARK    4  A    between atoms: N_7  and  C_19
REMARK    5  A    between atoms: N_9  and  C_28
REMARK    6  A    between atoms: C_14  and  C_18
REMARK    7  A    between atoms: C_17  and  C_21
REMARK    8  A    between atoms: C_18  and  C_20
REMARK    9  A    between atoms: C_20  and  C_24
REMARK                            x       y       z     vdW  Elec       q    Type
REMARK                         _______ _______ _______ _____ _____    ______ ____
ROOT
ATOM      2  O   UNL     1      19.108   9.584  21.239  0.00  0.00    -0.274 OA
ATOM      6  N   UNL     1      17.572   7.463  20.578  0.00  0.00    -0.286 NA
ATOM      7  N   UNL     1      20.790   6.127  21.698  0.00  0.00    -0.296 NA
ATOM      8  N   UNL     1      20.078   8.574  23.050  0.00  0.00    -0.312 N 
ATOM     10  C   UNL     1      19.333   6.040  21.455  0.00  0.00    +0.084 C 
ATOM     11  C   UNL     1      18.457   7.294  21.747  0.00  0.00    +0.161 C 
ATOM     12  C   UNL     1      18.961   5.721  19.995  0.00  0.00    +0.036 C 
ATOM     13  C   UNL     1      17.521   6.177  19.891  0.00  0.00    +0.087 C 
ATOM     14  C   UNL     1      21.166   6.350  23.122  0.00  0.00    +0.074 C 
ATOM     15  C   UNL     1      19.234   8.591  21.955  0.00  0.00    +0.232 C 
ATOM     16  C   UNL     1      20.310   7.396  23.862  0.00  0.00    +0.123 C 
ATOM     19  C   UNL     1      21.481   4.939  21.169  0.00  0.00    +0.105 C 
ATOM     35  H   UNL     1      20.574   9.428  23.282  0.00  0.00    +0.149 HD
ENDROOT
BRANCH   6  17
ATOM     17  C   UNL     1      16.244   7.953  20.926  0.00  0.00    +0.120 C 
BRANCH  17  21
ATOM     21  C   UNL     1      15.438   8.302  19.703  0.00  0.00    -0.033 A 
ATOM     22  C   UNL     1      15.374   9.624  19.264  0.00  0.00    +0.007 A 
ATOM     23  C   UNL     1      14.756   7.302  19.010  0.00  0.00    +0.007 A 
ATOM     25  C   UNL     1      14.627   9.947  18.131  0.00  0.00    +0.027 A 
ATOM     26  C   UNL     1      14.007   7.625  17.877  0.00  0.00    +0.027 A 
ATOM     27  C   UNL     1      13.944   8.948  17.438  0.00  0.00    +0.088 A 
BRANCH  27   1
ATOM      1  S   UNL     1      13.012   9.353  16.018  0.00  0.00    -0.006 S 
ATOM      4  O   UNL     1      13.109  10.788  15.784  0.00  0.00    -0.170 OA
ATOM      5  O   UNL     1      13.380   8.423  14.960  0.00  0.00    -0.170 OA
ATOM     29  C   UNL     1      11.329   9.016  16.482  0.00  0.00    +0.200 C 
ENDBRANCH  27   1
ENDBRANCH  17  21
ENDBRANCH   6  17
BRANCH  14  18
ATOM     18  C   UNL     1      22.639   6.796  23.228  0.00  0.00    +0.029 C 
BRANCH  18  20
ATOM     20  C   UNL     1      23.363   6.089  24.362  0.00  0.00    +0.098 C 
BRANCH  20  24
ATOM      3  O   UNL     1      22.682   3.834  24.876  0.00  0.00    -0.275 OA
ATOM      9  N   UNL     1      24.345   4.201  23.259  0.00  0.00    -0.285 N 
ATOM     24  C   UNL     1      23.409   4.573  24.221  0.00  0.00    +0.217 C 
ATOM     36  H   UNL     1      24.860   4.945  22.792  0.00  0.00    +0.155 HD
BRANCH   9  28
ATOM     28  C   UNL     1      24.678   2.890  22.843  0.00  0.00    +0.033 A 
ATOM     30  C   UNL     1      24.031   2.323  21.745  0.00  0.00    +0.023 A 
ATOM     31  C   UNL     1      25.652   2.166  23.528  0.00  0.00    +0.023 A 
ATOM     32  C   UNL     1      24.358   1.030  21.333  0.00  0.00    +0.002 A 
ATOM     33  C   UNL     1      25.980   0.873  23.116  0.00  0.00    +0.002 A 
ATOM     34  C   UNL     1      25.333   0.306  22.018  0.00  0.00    +0.000 A 
ENDBRANCH   9  28
ENDBRANCH  20  24
ENDBRANCH  18  20
ENDBRANCH  14  18
TORSDOF 7
ENDMDL
MODEL 9
REMARK VINA RESULT:      -6.4      3.438     10.403
REMARK  Name = 45361052
REMARK  9 active torsions:
REMARK  status: ('A' for Active; 'I' for Inactive)
REMARK    1  A    between atoms: S_1  and  C_27
REMARK    2  A    between atoms: S_1  and  C_29
REMARK    3  A    between atoms: N_6  and  C_17
REMARK    4  A    between atoms: N_7  and  C_19
REMARK    5  A    between atoms: N_9  and  C_28
REMARK    6  A    between atoms: C_14  and  C_18
REMARK    7  A    between atoms: C_17  and  C_21
REMARK    8  A    between atoms: C_18  and  C_20
REMARK    9  A    between atoms: C_20  and  C_24
REMARK                            x       y       z     vdW  Elec       q    Type
REMARK                         _______ _______ _______ _____ _____    ______ ____
ROOT
ATOM      2  O   UNL     1      -5.985  -8.941  12.413  0.00  0.00    -0.274 OA
ATOM      6  N   UNL     1      -4.432 -11.063  13.027  0.00  0.00    -0.286 NA
ATOM      7  N   UNL     1      -5.228 -11.334   9.465  0.00  0.00    -0.296 NA
ATOM      8  N   UNL     1      -5.049  -8.595  10.353  0.00  0.00    -0.312 N 
ATOM     10  C   UNL     1      -4.392 -11.594  10.658  0.00  0.00    +0.084 C 
ATOM     11  C   UNL     1      -4.214 -10.452  11.702  0.00  0.00    +0.161 C 
ATOM     12  C   UNL     1      -4.899 -12.754  11.536  0.00  0.00    +0.036 C 
ATOM     13  C   UNL     1      -4.236 -12.501  12.872  0.00  0.00    +0.087 C 
ATOM     14  C   UNL     1      -4.702 -10.272   8.563  0.00  0.00    +0.074 C 
ATOM     15  C   UNL     1      -5.179  -9.280  11.547  0.00  0.00    +0.232 C 
ATOM     16  C   UNL     1      -4.169  -9.017   9.281  0.00  0.00    +0.123 C 
ATOM     19  C   UNL     1      -5.461 -12.576   8.708  0.00  0.00    +0.105 C 
ATOM     35  H   UNL     1      -5.616  -7.765  10.215  0.00  0.00    +0.149 HD
ENDROOT
BRANCH   6  17
ATOM     17  C   UNL     1      -3.581 -10.502  14.068  0.00  0.00    +0.120 C 
BRANCH  17  21
ATOM     21  C   UNL     1      -4.178 -10.683  15.438  0.00  0.00    -0.033 A 
ATOM     22  C   UNL     1      -3.418 -11.250  16.461  0.00  0.00    +0.007 A 
ATOM     23  C   UNL     1      -5.491 -10.282  15.684  0.00  0.00    +0.007 A 
ATOM     25  C   UNL     1      -3.972 -11.418  17.730  0.00  0.00    +0.027 A 
ATOM     26  C   UNL     1      -6.045 -10.451  16.953  0.00  0.00    +0.027 A 
ATOM     27  C   UNL     1      -5.285 -11.018  17.976  0.00  0.00    +0.088 A 
BRANCH  27   1
ATOM      1  S   UNL     1      -5.976 -11.225  19.567  0.00  0.00    -0.006 S 
ATOM      4  O   UNL     1      -4.983 -11.845  20.434  0.00  0.00    -0.170 OA
ATOM      5  O   UNL     1      -6.588  -9.963  19.956  0.00  0.00    -0.170 OA
ATOM     29  C   UNL     1      -7.276 -12.416  19.333  0.00  0.00    +0.200 C 
ENDBRANCH  27   1
ENDBRANCH  17  21
ENDBRANCH   6  17
BRANCH  14  18
ATOM     18  C   UNL     1      -5.795  -9.813   7.575  0.00  0.00    +0.029 C 
BRANCH  18  20
ATOM     20  C   UNL     1      -5.457 -10.194   6.143  0.00  0.00    +0.098 C 
BRANCH  20  24
ATOM      3  O   UNL     1      -6.977 -10.781   4.365  0.00  0.00    -0.275 OA
ATOM      9  N   UNL     1      -7.055  -8.624   5.290  0.00  0.00    -0.285 N 
ATOM     24  C   UNL     1      -6.578  -9.924   5.147  0.00  0.00    +0.217 C 
ATOM     36  H   UNL     1      -6.621  -8.039   6.002  0.00  0.00    +0.155 HD
BRANCH   9  28
ATOM     28  C   UNL     1      -8.088  -7.999   4.551  0.00  0.00    +0.033 A 
ATOM     30  C   UNL     1      -7.943  -7.806   3.177  0.00  0.00    +0.023 A 
ATOM     31  C   UNL     1      -9.251  -7.577   5.196  0.00  0.00    +0.023 A 
ATOM     32  C   UNL     1      -8.961  -7.190   2.448  0.00  0.00    +0.002 A 
ATOM     33  C   UNL     1     -10.269  -6.961   4.466  0.00  0.00    +0.002 A 
ATOM     34  C   UNL     1     -10.123  -6.768   3.092  0.00  0.00    +0.000 A 
ENDBRANCH   9  28
ENDBRANCH  20  24
ENDBRANCH  18  20
ENDBRANCH  14  18
TORSDOF 7
ENDMDL
MODEL 10
REMARK VINA RESULT:      -6.4      3.169      8.725
REMARK  Name = 45361052
REMARK  9 active torsions:
REMARK  status: ('A' for Active; 'I' for Inactive)
REMARK    1  A    between atoms: S_1  and  C_27
REMARK    2  A    between atoms: S_1  and  C_29
REMARK    3  A    between atoms: N_6  and  C_17
REMARK    4  A    between atoms: N_7  and  C_19
REMARK    5  A    between atoms: N_9  and  C_28
REMARK    6  A    between atoms: C_14  and  C_18
REMARK    7  A    between atoms: C_17  and  C_21
REMARK    8  A    between atoms: C_18  and  C_20
REMARK    9  A    between atoms: C_20  and  C_24
REMARK                            x       y       z     vdW  Elec       q    Type
REMARK                         _______ _______ _______ _____ _____    ______ ____
ROOT
ATOM      2  O   UNL     1      -5.995  -9.910  12.935  0.00  0.00    -0.274 OA
ATOM      6  N   UNL     1      -3.971 -11.657  13.319  0.00  0.00    -0.286 NA
ATOM      7  N   UNL     1      -4.414 -11.334   9.700  0.00  0.00    -0.296 NA
ATOM      8  N   UNL     1      -5.046  -8.900  11.114  0.00  0.00    -0.312 N 
ATOM     10  C   UNL     1      -3.624 -11.631  10.916  0.00  0.00    +0.084 C 
ATOM     11  C   UNL     1      -3.835 -10.737  12.174  0.00  0.00    +0.161 C 
ATOM     12  C   UNL     1      -3.858 -13.043  11.484  0.00  0.00    +0.036 C 
ATOM     13  C   UNL     1      -3.383 -12.931  12.917  0.00  0.00    +0.087 C 
ATOM     14  C   UNL     1      -4.134 -10.003   9.093  0.00  0.00    +0.074 C 
ATOM     15  C   UNL     1      -5.069  -9.839  12.128  0.00  0.00    +0.232 C 
ATOM     16  C   UNL     1      -4.012  -8.843  10.099  0.00  0.00    +0.123 C 
ATOM     19  C   UNL     1      -4.248 -12.398   8.696  0.00  0.00    +0.105 C 
ATOM     35  H   UNL     1      -5.806  -8.228  11.069  0.00  0.00    +0.149 HD
ENDROOT
BRANCH   6  17
ATOM     17  C   UNL     1      -3.378 -11.142  14.547  0.00  0.00    +0.120 C 
BRANCH  17  21
ATOM     21  C   UNL     1      -4.338 -11.211  15.704  0.00  0.00    -0.033 A 
ATOM     22  C   UNL     1      -5.541 -11.905  15.573  0.00  0.00    +0.007 A 
ATOM     23  C   UNL     1      -4.025 -10.581  16.908  0.00  0.00    +0.007 A 
ATOM     25  C   UNL     1      -6.430 -11.969  16.646  0.00  0.00    +0.027 A 
ATOM     26  C   UNL     1      -4.915 -10.644  17.981  0.00  0.00    +0.027 A 
ATOM     27  C   UNL     1      -6.117 -11.339  17.849  0.00  0.00    +0.088 A 
BRANCH  27   1
ATOM      1  S   UNL     1      -7.230 -11.422  19.193  0.00  0.00    -0.006 S 
ATOM      4  O   UNL     1      -6.475 -11.332  20.435  0.00  0.00    -0.170 OA
ATOM      5  O   UNL     1      -8.313 -10.485  18.936  0.00  0.00    -0.170 OA
ATOM     29  C   UNL     1      -7.899 -13.068  19.111  0.00  0.00    +0.200 C 
ENDBRANCH  27   1
ENDBRANCH  17  21
ENDBRANCH   6  17
BRANCH  14  18
ATOM     18  C   UNL     1      -5.239  -9.628   8.083  0.00  0.00    +0.029 C 
BRANCH  18  20
ATOM     20  C   UNL     1      -6.572 -10.260   8.443  0.00  0.00    +0.098 C 
BRANCH  20  24
ATOM      3  O   UNL     1      -7.912  -9.220  10.157  0.00  0.00    -0.275 OA
ATOM      9  N   UNL     1      -8.093  -8.477   7.937  0.00  0.00    -0.285 N 
ATOM     24  C   UNL     1      -7.607  -9.273   8.970  0.00  0.00    +0.217 C 
ATOM     36  H   UNL     1      -7.722  -8.641   7.003  0.00  0.00    +0.155 HD
BRANCH   9  28
ATOM     28  C   UNL     1      -9.061  -7.448   8.024  0.00  0.00    +0.033 A 
ATOM     30  C   UNL     1     -10.393  -7.717   7.710  0.00  0.00    +0.023 A 
ATOM     31  C   UNL     1      -8.684  -6.167   8.424  0.00  0.00    +0.023 A 
ATOM     32  C   UNL     1     -11.348  -6.704   7.796  0.00  0.00    +0.002 A 
ATOM     33  C   UNL     1      -9.639  -5.153   8.510  0.00  0.00    +0.002 A 
ATOM     34  C   UNL     1     -10.971  -5.422   8.196  0.00  0.00    +0.000 A 
ENDBRANCH   9  28
ENDBRANCH  20  24
ENDBRANCH  18  20
ENDBRANCH  14  18
TORSDOF 7
ENDMDL
