REMARK  Name = 26742540
REMARK  9 active torsions:
REMARK  status: ('A' for Active; 'I' for Inactive)
REMARK    1  A    between atoms: O_3  and  C_22
REMARK    2  A    between atoms: O_3  and  C_28
REMARK    3  A    between atoms: O_4  and  C_25
REMARK    4  A    between atoms: O_4  and  C_29
REMARK    5  A    between atoms: N_6  and  C_17
REMARK    6  A    between atoms: N_7  and  C_21
REMARK    7  A    between atoms: C_17  and  C_19
REMARK    8  A    between atoms: C_19  and  C_20
REMARK    9  A    between atoms: C_21  and  C_24
REMARK                            x       y       z     vdW  Elec       q    Type
REMARK                         _______ _______ _______ _____ _____    ______ ____
ROOT
ATOM      1  O   UNL     1       0.788  -2.310  -0.076  0.00  0.00    -0.276 OA
ATOM      2  O   UNL     1      -7.185  -0.787  -0.568  0.00  0.00    -0.253 OA
ATOM      5  N   UNL     1      -4.925  -0.357  -0.239  0.00  0.00    -0.285 N 
ATOM      6  N   UNL     1       0.351  -0.033   0.027  0.00  0.00    -0.301 N 
ATOM      7  N   UNL     1      -6.519   1.392  -0.305  0.00  0.00    -0.300 N 
ATOM      8  C   UNL     1      -2.772   0.143   0.932  0.00  0.00    +0.011 C 
ATOM      9  C   UNL     1      -2.350  -1.337   0.803  0.00  0.00    +0.004 C 
ATOM     10  C   UNL     1      -3.624  -2.201   0.786  0.00  0.00    +0.023 C 
ATOM     11  C   UNL     1      -3.778   0.564  -0.160  0.00  0.00    +0.113 C 
ATOM     12  C   UNL     1      -1.594   1.127   1.036  0.00  0.00    +0.024 C 
ATOM     13  C   UNL     1      -1.470  -1.639  -0.422  0.00  0.00    +0.100 C 
ATOM     14  C   UNL     1      -4.588  -1.780  -0.318  0.00  0.00    +0.109 C 
ATOM     15  C   UNL     1      -0.594   1.076  -0.115  0.00  0.00    +0.108 C 
ATOM     16  C   UNL     1      -0.004  -1.367  -0.145  0.00  0.00    +0.216 C 
ATOM     18  C   UNL     1      -6.273   0.026  -0.381  0.00  0.00    +0.302 C 
ATOM     30  H   UNL     1      -5.787   2.059  -0.112  0.00  0.00    +0.150 HD
ENDROOT
BRANCH   7  21
ATOM     21  C   UNL     1      -7.849   1.944  -0.440  0.00  0.00    +0.102 C 
ATOM     24  C   UNL     1      -8.634   1.821   0.849  0.00  0.00    +0.024 C 
ENDBRANCH   7  21
BRANCH   6  17
ATOM     17  C   UNL     1       1.722   0.319   0.374  0.00  0.00    +0.112 C 
BRANCH  17  19
ATOM     19  C   UNL     1       2.592   0.568  -0.855  0.00  0.00    +0.058 C 
BRANCH  19  20
ATOM     20  C   UNL     1       4.020   0.906  -0.506  0.00  0.00    -0.001 A 
ATOM     22  C   UNL     1       4.910  -0.088  -0.100  0.00  0.00    +0.165 A 
ATOM     23  C   UNL     1       4.447   2.231  -0.594  0.00  0.00    +0.007 A 
ATOM     25  C   UNL     1       6.228   0.243   0.218  0.00  0.00    +0.162 A 
ATOM     26  C   UNL     1       5.764   2.562  -0.276  0.00  0.00    +0.004 A 
ATOM     27  C   UNL     1       6.655   1.568   0.130  0.00  0.00    +0.049 A 
BRANCH  22   3
ATOM      3  O   UNL     1       4.497  -1.385  -0.013  0.00  0.00    -0.491 OA
ATOM     28  C   UNL     1       4.641  -2.189  -1.181  0.00  0.00    +0.277 C 
ENDBRANCH  22   3
BRANCH  25   4
ATOM      4  O   UNL     1       7.108  -0.718   0.616  0.00  0.00    -0.491 OA
ATOM     29  C   UNL     1       8.435  -0.294   0.922  0.00  0.00    +0.277 C 
ENDBRANCH  25   4
ENDBRANCH  19  20
ENDBRANCH  17  19
ENDBRANCH   6  17
TORSDOF 6
