REMARK  Name = 75536726
REMARK  8 active torsions:
REMARK  status: ('A' for Active; 'I' for Inactive)
REMARK    1  A    between atoms: O_4  and  C_11
REMARK    2  A    between atoms: N_6  and  C_9
REMARK    3  A    between atoms: N_6  and  C_10
REMARK    4  A    between atoms: N_7  and  C_19
REMARK    5  A    between atoms: N_8  and  C_21
REMARK    6  A    between atoms: C_14  and  C_19
REMARK    7  A    between atoms: C_21  and  C_22
REMARK    8  A    between atoms: C_21  and  C_23
REMARK                            x       y       z     vdW  Elec       q    Type
REMARK                         _______ _______ _______ _____ _____    ______ ____
ROOT
ATOM      3  O   UNL     1       1.024   0.240  -1.281  0.00  0.00    -0.371 OA
ATOM     10  C   UNL     1      -0.976  -0.434  -0.192  0.00  0.00    +0.111 C 
ATOM     11  C   UNL     1       0.121  -1.432   0.128  0.00  0.00    +0.164 C 
ATOM     14  C   UNL     1       1.365  -0.605  -0.169  0.00  0.00    +0.165 C 
ATOM     15  C   UNL     1      -0.407   0.256  -1.421  0.00  0.00    +0.181 C 
ENDROOT
BRANCH  11   4
ATOM      4  O   UNL     1       0.087  -1.869   1.472  0.00  0.00    -0.388 OA
ATOM     25  H   UNL     1       0.137  -1.089   2.049  0.00  0.00    +0.210 HD
ENDBRANCH  11   4
BRANCH  10   6
ATOM      6  N   UNL     1      -2.271  -1.048  -0.436  0.00  0.00    -0.306 NA
ATOM     24  H   UNL     1      -2.450  -1.778   0.253  0.00  0.00    +0.123 HD
BRANCH   6   9
ATOM      1  F   UNL     1      -6.593  -0.337   0.930  0.00  0.00    -0.206 F 
ATOM      2  F   UNL     1      -7.033   1.717   0.366  0.00  0.00    -0.206 F 
ATOM      9  C   UNL     1      -3.336  -0.048  -0.392  0.00  0.00    +0.054 C 
ATOM     12  C   UNL     1      -4.551  -0.546  -1.185  0.00  0.00    +0.024 C 
ATOM     13  C   UNL     1      -3.708   0.252   1.065  0.00  0.00    +0.024 C 
ATOM     16  C   UNL     1      -5.712   0.444  -1.101  0.00  0.00    +0.077 C 
ATOM     17  C   UNL     1      -4.869   1.242   1.149  0.00  0.00    +0.077 C 
ATOM     18  C   UNL     1      -6.064   0.767   0.341  0.00  0.00    +0.249 C 
ENDBRANCH   6   9
ENDBRANCH  10   6
BRANCH  14  19
ATOM     19  C   UNL     1       2.578  -1.449  -0.519  0.00  0.00    +0.140 C 
BRANCH  19   7
ATOM      5  O   UNL     1       4.554  -0.532   1.373  0.00  0.00    -0.253 OA
ATOM      7  N   UNL     1       3.722  -0.629  -0.794  0.00  0.00    -0.297 N 
ATOM      8  N   UNL     1       5.650   0.561  -0.355  0.00  0.00    -0.297 N 
ATOM     20  C   UNL     1       4.636  -0.227   0.184  0.00  0.00    +0.300 C 
ATOM     26  H   UNL     1       3.868  -0.313  -1.748  0.00  0.00    +0.150 HD
ATOM     27  H   UNL     1       5.673   0.695  -1.362  0.00  0.00    +0.150 HD
BRANCH   8  21
ATOM     21  C   UNL     1       6.723   1.109   0.441  0.00  0.00    +0.068 C 
ATOM     22  C   UNL     1       7.177   2.446  -0.130  0.00  0.00    +0.027 C 
ATOM     23  C   UNL     1       7.882   0.123   0.525  0.00  0.00    +0.027 C 
ENDBRANCH   8  21
ENDBRANCH  19   7
ENDBRANCH  14  19
TORSDOF 6
