REMARK  Name = 11886263
REMARK  7 active torsions:
REMARK  status: ('A' for Active; 'I' for Inactive)
REMARK    1  A    between atoms: O_6  and  C_23
REMARK    2  A    between atoms: O_6  and  C_26
REMARK    3  A    between atoms: N_8  and  C_19
REMARK    4  A    between atoms: N_9  and  C_20
REMARK    5  A    between atoms: N_13  and  C_25
REMARK    6  A    between atoms: N_14  and  C_35
REMARK    7  A    between atoms: C_31  and  C_37
REMARK                            x       y       z     vdW  Elec       q    Type
REMARK                         _______ _______ _______ _____ _____    ______ ____
ROOT
ATOM      4  O   UNL     1      -0.608  -3.468   0.456  0.00  0.00    -0.370 OA
ATOM      5  O   UNL     1      -0.371  -1.727  -2.152  0.00  0.00    -0.370 OA
ATOM     17  C   UNL     1      -0.145  -1.467  -0.754  0.00  0.00    +0.176 C 
ATOM     18  C   UNL     1      -1.199  -2.235   0.020  0.00  0.00    +0.172 C 
ATOM     19  C   UNL     1       1.173  -2.081  -0.322  0.00  0.00    +0.171 C 
ATOM     20  C   UNL     1      -2.286  -2.505  -0.996  0.00  0.00    +0.131 C 
ATOM     21  C   UNL     1       0.776  -3.497   0.081  0.00  0.00    +0.190 C 
ATOM     22  C   UNL     1      -1.502  -2.598  -2.292  0.00  0.00    +0.185 C 
ENDROOT
BRANCH  20   9
ATOM      7  O   UNL     1      -4.771  -2.357   0.422  0.00  0.00    -0.252 OA
ATOM      9  N   UNL     1      -3.241  -1.425  -1.040  0.00  0.00    -0.292 N 
ATOM     13  N   UNL     1      -5.158  -0.257  -0.552  0.00  0.00    -0.269 N 
ATOM     24  C   UNL     1      -4.438  -1.430  -0.313  0.00  0.00    +0.304 C 
ATOM     40  H   UNL     1      -3.006  -0.592  -1.572  0.00  0.00    +0.151 HD
ATOM     41  H   UNL     1      -4.740   0.413  -1.192  0.00  0.00    +0.156 HD
BRANCH  13  25
ATOM     25  C   UNL     1      -6.410   0.119  -0.011  0.00  0.00    +0.035 A 
ATOM     27  C   UNL     1      -6.986   1.339  -0.365  0.00  0.00    +0.035 A 
ATOM     28  C   UNL     1      -7.068  -0.731   0.878  0.00  0.00    +0.023 A 
ATOM     31  C   UNL     1      -8.220   1.709   0.170  0.00  0.00    +0.057 A 
ATOM     32  C   UNL     1      -8.303  -0.362   1.412  0.00  0.00    +0.002 A 
ATOM     36  C   UNL     1      -8.878   0.858   1.058  0.00  0.00    +0.012 A 
BRANCH  31  37
ATOM      1  F   UNL     1      -8.067   4.095   0.114  0.00  0.00    -0.166 F 
ATOM      2  F   UNL     1     -10.042   3.243   0.389  0.00  0.00    -0.166 F 
ATOM      3  F   UNL     1      -9.067   3.115  -1.550  0.00  0.00    -0.166 F 
ATOM     37  C   UNL     1      -8.836   3.013  -0.209  0.00  0.00    +0.417 C 
ENDBRANCH  31  37
ENDBRANCH  13  25
ENDBRANCH  20   9
BRANCH  19   8
ATOM      8  N   UNL     1       1.839  -1.302   0.725  0.00  0.00    -0.187 N 
ATOM     10  N   UNL     1       1.236  -1.056   1.896  0.00  0.00    -0.041 NA
ATOM     11  N   UNL     1       3.263  -0.127   1.863  0.00  0.00    -0.071 NA
ATOM     12  N   UNL     1       2.112  -0.338   2.589  0.00  0.00    -0.020 NA
ATOM     23  C   UNL     1       3.073  -0.733   0.714  0.00  0.00    +0.342 A 
BRANCH  23   6
ATOM      6  O   UNL     1       3.920  -0.791  -0.297  0.00  0.00    -0.423 OA
BRANCH   6  26
ATOM     26  C   UNL     1       5.170  -0.190  -0.260  0.00  0.00    +0.132 A 
ATOM     29  C   UNL     1       6.272  -0.901   0.214  0.00  0.00    +0.048 A 
ATOM     30  C   UNL     1       5.325   1.126  -0.697  0.00  0.00    +0.048 A 
ATOM     33  C   UNL     1       7.529  -0.298   0.251  0.00  0.00    +0.031 A 
ATOM     34  C   UNL     1       6.582   1.730  -0.659  0.00  0.00    +0.031 A 
ATOM     35  C   UNL     1       7.684   1.018  -0.185  0.00  0.00    +0.067 A 
BRANCH  35  14
ATOM     14  N   UNL     1       8.930   1.617  -0.148  0.00  0.00    -0.220 N 
ATOM     15  N   UNL     1       9.119   2.880  -0.558  0.00  0.00    -0.154 NA
ATOM     16  N   UNL     1      11.069   1.931   0.171  0.00  0.00    -0.222 NA
ATOM     38  C   UNL     1      10.094   1.060   0.283  0.00  0.00    +0.225 A 
ATOM     39  C   UNL     1      10.429   3.022  -0.345  0.00  0.00    +0.245 A 
ENDBRANCH  35  14
ENDBRANCH   6  26
ENDBRANCH  23   6
ENDBRANCH  19   8
TORSDOF 7
