MODEL 1
REMARK VINA RESULT:      -6.9      0.000      0.000
REMARK  Name = 11882566
REMARK  17 active torsions:
REMARK  status: ('A' for Active; 'I' for Inactive)
REMARK    1  A    between atoms: O_1  and  C_12
REMARK    2  A    between atoms: O_2  and  C_15
REMARK    3  A    between atoms: O_3  and  C_17
REMARK    4  A    between atoms: O_7  and  C_33
REMARK    5  A    between atoms: O_7  and  C_34
REMARK    6  A    between atoms: N_8  and  C_13
REMARK    7  A    between atoms: N_9  and  C_21
REMARK    8  A    between atoms: N_10  and  C_20
REMARK    9  A    between atoms: N_10  and  C_28
REMARK   10  A    between atoms: C_12  and  C_18
REMARK   11  A    between atoms: C_19  and  C_20
REMARK   12  A    between atoms: C_20  and  C_22
REMARK   13  A    between atoms: C_21  and  C_23
REMARK   14  A    between atoms: C_21  and  C_26
REMARK   15  A    between atoms: C_22  and  C_24
REMARK   16  A    between atoms: C_22  and  C_25
REMARK   17  A    between atoms: C_23  and  C_27
REMARK                            x       y       z     vdW  Elec       q    Type
REMARK                         _______ _______ _______ _____ _____    ______ ____
ROOT
ATOM     12  C   UNL     1      15.607   7.233  20.761  0.00  0.00    +0.146 C 
ATOM     13  C   UNL     1      18.098   6.930  21.162  0.00  0.00    +0.107 C 
ATOM     14  C   UNL     1      16.903   7.887  21.243  0.00  0.00    +0.069 C 
ATOM     15  C   UNL     1      18.252   6.327  19.760  0.00  0.00    +0.163 C 
ATOM     16  C   UNL     1      15.767   6.653  19.356  0.00  0.00    +0.078 C 
ATOM     17  C   UNL     1      16.951   5.690  19.263  0.00  0.00    +0.148 C 
ENDROOT
BRANCH  12  18
ATOM      4  O   UNL     1      14.635   9.377  21.164  0.00  0.00    -0.273 OA
ATOM      9  N   UNL     1      13.281   7.656  20.373  0.00  0.00    -0.301 N 
ATOM     18  C   UNL     1      14.476   8.218  20.788  0.00  0.00    +0.246 C 
ATOM     39  H   UNL     1      13.235   6.663  20.169  0.00  0.00    +0.150 HD
BRANCH   9  21
ATOM     21  C   UNL     1      12.036   8.389  20.329  0.00  0.00    +0.163 C 
BRANCH  21  26
ATOM      6  O   UNL     1      10.969   6.365  21.150  0.00  0.00    -0.274 OA
ATOM     11  N   UNL     1      10.192   8.396  21.891  0.00  0.00    -0.328 N 
ATOM     26  C   UNL     1      11.020   7.593  21.135  0.00  0.00    +0.231 C 
ATOM     41  H   UNL     1      10.247   9.409  21.872  0.00  0.00    +0.145 HD
ATOM     42  H   UNL     1       9.477   7.992  22.488  0.00  0.00    +0.145 HD
ENDBRANCH  21  26
BRANCH  21  23
ATOM     23  C   UNL     1      11.536   8.595  18.895  0.00  0.00    +0.067 C 
BRANCH  23  27
ATOM     27  C   UNL     1      12.584   9.199  17.993  0.00  0.00    -0.045 A 
ATOM     29  C   UNL     1      13.045  10.495  18.227  0.00  0.00    +0.007 A 
ATOM     30  C   UNL     1      13.091   8.462  16.922  0.00  0.00    +0.007 A 
ATOM     31  C   UNL     1      14.014  11.052  17.393  0.00  0.00    +0.046 A 
ATOM     32  C   UNL     1      14.059   9.019  16.088  0.00  0.00    +0.046 A 
ATOM     33  C   UNL     1      14.521  10.314  16.323  0.00  0.00    +0.120 A 
BRANCH  33   7
ATOM      7  O   UNL     1      15.466  10.859  15.509  0.00  0.00    -0.495 OA
ATOM     34  C   UNL     1      15.945  12.159  15.849  0.00  0.00    +0.277 C 
ENDBRANCH  33   7
ENDBRANCH  23  27
ENDBRANCH  21  23
ENDBRANCH   9  21
ENDBRANCH  12  18
BRANCH  13   8
ATOM      5  O   UNL     1      20.250   5.883  22.759  0.00  0.00    -0.274 OA
ATOM      8  N   UNL     1      19.306   7.624  21.553  0.00  0.00    -0.309 N 
ATOM     19  C   UNL     1      20.292   7.034  22.327  0.00  0.00    +0.231 C 
ATOM     35  H   UNL     1      19.399   8.600  21.290  0.00  0.00    +0.149 HD
BRANCH  19  20
ATOM     20  C   UNL     1      21.458   7.981  22.608  0.00  0.00    +0.143 C 
BRANCH  20  10
ATOM     10  N   UNL     1      21.716   7.926  24.049  0.00  0.00    -0.309 NA
ATOM     28  C   UNL     1      20.973   8.966  24.742  0.00  0.00    +0.101 C 
ATOM     40  H   UNL     1      22.710   8.074  24.222  0.00  0.00    +0.122 HD
ENDBRANCH  20  10
BRANCH  20  22
ATOM     22  C   UNL     1      22.731   7.638  21.797  0.00  0.00    +0.009 C 
ATOM     24  C   UNL     1      22.447   7.112  20.386  0.00  0.00    +0.009 C 
ATOM     25  C   UNL     1      23.634   6.652  22.545  0.00  0.00    +0.009 C 
ENDBRANCH  20  22
ENDBRANCH  19  20
ENDBRANCH  13   8
BRANCH  12   1
ATOM      1  O   UNL     1      15.212   6.194  21.650  0.00  0.00    -0.379 OA
ATOM     36  H   UNL     1      14.836   6.599  22.450  0.00  0.00    +0.211 HD
ENDBRANCH  12   1
BRANCH  15   2
ATOM      2  O   UNL     1      19.248   5.301  19.800  0.00  0.00    -0.387 OA
ATOM     37  H   UNL     1      19.773   5.421  20.609  0.00  0.00    +0.210 HD
ENDBRANCH  15   2
BRANCH  17   3
ATOM      3  O   UNL     1      17.127   5.307  17.899  0.00  0.00    -0.389 OA
ATOM     38  H   UNL     1      16.279   5.446  17.444  0.00  0.00    +0.210 HD
ENDBRANCH  17   3
TORSDOF 13
ENDMDL
MODEL 2
REMARK VINA RESULT:      -6.5      2.473      3.894
REMARK  Name = 11882566
REMARK  17 active torsions:
REMARK  status: ('A' for Active; 'I' for Inactive)
REMARK    1  A    between atoms: O_1  and  C_12
REMARK    2  A    between atoms: O_2  and  C_15
REMARK    3  A    between atoms: O_3  and  C_17
REMARK    4  A    between atoms: O_7  and  C_33
REMARK    5  A    between atoms: O_7  and  C_34
REMARK    6  A    between atoms: N_8  and  C_13
REMARK    7  A    between atoms: N_9  and  C_21
REMARK    8  A    between atoms: N_10  and  C_20
REMARK    9  A    between atoms: N_10  and  C_28
REMARK   10  A    between atoms: C_12  and  C_18
REMARK   11  A    between atoms: C_19  and  C_20
REMARK   12  A    between atoms: C_20  and  C_22
REMARK   13  A    between atoms: C_21  and  C_23
REMARK   14  A    between atoms: C_21  and  C_26
REMARK   15  A    between atoms: C_22  and  C_24
REMARK   16  A    between atoms: C_22  and  C_25
REMARK   17  A    between atoms: C_23  and  C_27
REMARK                            x       y       z     vdW  Elec       q    Type
REMARK                         _______ _______ _______ _____ _____    ______ ____
ROOT
ATOM     12  C   UNL     1      16.242   7.023  21.164  0.00  0.00    +0.146 C 
ATOM     13  C   UNL     1      18.751   6.758  21.471  0.00  0.00    +0.107 C 
ATOM     14  C   UNL     1      17.537   7.678  21.647  0.00  0.00    +0.069 C 
ATOM     15  C   UNL     1      18.874   6.246  20.029  0.00  0.00    +0.163 C 
ATOM     16  C   UNL     1      16.371   6.535  19.722  0.00  0.00    +0.078 C 
ATOM     17  C   UNL     1      17.573   5.609  19.533  0.00  0.00    +0.148 C 
ENDROOT
BRANCH  12  18
ATOM      4  O   UNL     1      15.084   8.882  22.117  0.00  0.00    -0.273 OA
ATOM      9  N   UNL     1      14.074   7.689  20.392  0.00  0.00    -0.301 N 
ATOM     18  C   UNL     1      15.090   7.976  21.287  0.00  0.00    +0.246 C 
ATOM     39  H   UNL     1      14.136   6.862  19.808  0.00  0.00    +0.150 HD
BRANCH   9  21
ATOM     21  C   UNL     1      12.845   8.445  20.322  0.00  0.00    +0.163 C 
BRANCH  21  26
ATOM      6  O   UNL     1      11.047   8.305  18.693  0.00  0.00    -0.274 OA
ATOM     11  N   UNL     1      12.275   6.416  19.139  0.00  0.00    -0.328 N 
ATOM     26  C   UNL     1      11.945   7.743  19.316  0.00  0.00    +0.231 C 
ATOM     41  H   UNL     1      13.022   5.965  19.658  0.00  0.00    +0.145 HD
ATOM     42  H   UNL     1      11.763   5.834  18.484  0.00  0.00    +0.145 HD
ENDBRANCH  21  26
BRANCH  21  23
ATOM     23  C   UNL     1      13.082   9.900  19.903  0.00  0.00    +0.067 C 
BRANCH  23  27
ATOM     27  C   UNL     1      12.368  10.888  20.793  0.00  0.00    -0.045 A 
ATOM     29  C   UNL     1      12.387  12.247  20.483  0.00  0.00    +0.007 A 
ATOM     30  C   UNL     1      11.690  10.440  21.927  0.00  0.00    +0.007 A 
ATOM     31  C   UNL     1      11.726  13.159  21.306  0.00  0.00    +0.046 A 
ATOM     32  C   UNL     1      11.030  11.352  22.750  0.00  0.00    +0.046 A 
ATOM     33  C   UNL     1      11.048  12.712  22.440  0.00  0.00    +0.120 A 
BRANCH  33   7
ATOM      7  O   UNL     1      10.404  13.602  23.243  0.00  0.00    -0.495 OA
ATOM     34  C   UNL     1      10.602  13.469  24.650  0.00  0.00    +0.277 C 
ENDBRANCH  33   7
ENDBRANCH  23  27
ENDBRANCH  21  23
ENDBRANCH   9  21
ENDBRANCH  12  18
BRANCH  13   8
ATOM      5  O   UNL     1      20.921   5.702  23.036  0.00  0.00    -0.274 OA
ATOM      8  N   UNL     1      19.955   7.456  21.868  0.00  0.00    -0.309 N 
ATOM     19  C   UNL     1      20.950   6.861  22.625  0.00  0.00    +0.231 C 
ATOM     35  H   UNL     1      20.037   8.438  21.622  0.00  0.00    +0.149 HD
BRANCH  19  20
ATOM     20  C   UNL     1      22.109   7.814  22.917  0.00  0.00    +0.143 C 
BRANCH  20  10
ATOM     10  N   UNL     1      22.399   8.528  21.671  0.00  0.00    -0.309 NA
ATOM     28  C   UNL     1      23.495   7.893  20.959  0.00  0.00    +0.101 C 
ATOM     40  H   UNL     1      22.671   9.488  21.885  0.00  0.00    +0.122 HD
ENDBRANCH  20  10
BRANCH  20  22
ATOM     22  C   UNL     1      21.813   8.799  24.073  0.00  0.00    +0.009 C 
ATOM     24  C   UNL     1      20.730   8.314  25.043  0.00  0.00    +0.009 C 
ATOM     25  C   UNL     1      21.453  10.195  23.553  0.00  0.00    +0.009 C 
ENDBRANCH  20  22
ENDBRANCH  19  20
ENDBRANCH  13   8
BRANCH  12   1
ATOM      1  O   UNL     1      15.900   5.922  21.998  0.00  0.00    -0.379 OA
ATOM     36  H   UNL     1      16.429   5.975  22.812  0.00  0.00    +0.211 HD
ENDBRANCH  12   1
BRANCH  15   2
ATOM      2  O   UNL     1      19.894   5.245  19.975  0.00  0.00    -0.387 OA
ATOM     37  H   UNL     1      20.593   5.491  20.605  0.00  0.00    +0.210 HD
ENDBRANCH  15   2
BRANCH  17   3
ATOM      3  O   UNL     1      17.715   5.316  18.143  0.00  0.00    -0.389 OA
ATOM     38  H   UNL     1      16.862   4.972  17.828  0.00  0.00    +0.210 HD
ENDBRANCH  17   3
TORSDOF 13
ENDMDL
MODEL 3
REMARK VINA RESULT:      -6.4     14.210     17.594
REMARK  Name = 11882566
REMARK  17 active torsions:
REMARK  status: ('A' for Active; 'I' for Inactive)
REMARK    1  A    between atoms: O_1  and  C_12
REMARK    2  A    between atoms: O_2  and  C_15
REMARK    3  A    between atoms: O_3  and  C_17
REMARK    4  A    between atoms: O_7  and  C_33
REMARK    5  A    between atoms: O_7  and  C_34
REMARK    6  A    between atoms: N_8  and  C_13
REMARK    7  A    between atoms: N_9  and  C_21
REMARK    8  A    between atoms: N_10  and  C_20
REMARK    9  A    between atoms: N_10  and  C_28
REMARK   10  A    between atoms: C_12  and  C_18
REMARK   11  A    between atoms: C_19  and  C_20
REMARK   12  A    between atoms: C_20  and  C_22
REMARK   13  A    between atoms: C_21  and  C_23
REMARK   14  A    between atoms: C_21  and  C_26
REMARK   15  A    between atoms: C_22  and  C_24
REMARK   16  A    between atoms: C_22  and  C_25
REMARK   17  A    between atoms: C_23  and  C_27
REMARK                            x       y       z     vdW  Elec       q    Type
REMARK                         _______ _______ _______ _____ _____    ______ ____
ROOT
ATOM     12  C   UNL     1      13.020   8.219   5.591  0.00  0.00    +0.146 C 
ATOM     13  C   UNL     1      14.381   7.289   3.657  0.00  0.00    +0.107 C 
ATOM     14  C   UNL     1      13.095   7.168   4.482  0.00  0.00    +0.069 C 
ATOM     15  C   UNL     1      15.633   7.270   4.546  0.00  0.00    +0.163 C 
ATOM     16  C   UNL     1      14.262   8.176   6.480  0.00  0.00    +0.078 C 
ATOM     17  C   UNL     1      15.553   8.306   5.671  0.00  0.00    +0.148 C 
ENDROOT
BRANCH  12  18
ATOM      4  O   UNL     1      11.383   8.888   7.197  0.00  0.00    -0.273 OA
ATOM      9  N   UNL     1      11.203   6.787   6.213  0.00  0.00    -0.301 N 
ATOM     18  C   UNL     1      11.785   8.025   6.420  0.00  0.00    +0.246 C 
ATOM     39  H   UNL     1      11.663   6.107   5.616  0.00  0.00    +0.150 HD
BRANCH   9  21
ATOM     21  C   UNL     1      10.014   6.345   6.906  0.00  0.00    +0.163 C 
BRANCH  21  26
ATOM      6  O   UNL     1      10.924   5.472   8.984  0.00  0.00    -0.274 OA
ATOM     11  N   UNL     1      10.183   3.985   7.398  0.00  0.00    -0.328 N 
ATOM     26  C   UNL     1      10.442   5.252   7.875  0.00  0.00    +0.231 C 
ATOM     41  H   UNL     1       9.781   3.818   6.481  0.00  0.00    +0.145 HD
ATOM     42  H   UNL     1      10.406   3.164   7.951  0.00  0.00    +0.145 HD
ENDBRANCH  21  26
BRANCH  21  23
ATOM     23  C   UNL     1       8.944   5.817   5.944  0.00  0.00    +0.067 C 
BRANCH  23  27
ATOM     27  C   UNL     1       9.177   6.251   4.518  0.00  0.00    -0.045 A 
ATOM     29  C   UNL     1       9.964   5.472   3.670  0.00  0.00    +0.007 A 
ATOM     30  C   UNL     1       8.605   7.433   4.046  0.00  0.00    +0.007 A 
ATOM     31  C   UNL     1      10.178   5.873   2.352  0.00  0.00    +0.046 A 
ATOM     32  C   UNL     1       8.819   7.835   2.729  0.00  0.00    +0.046 A 
ATOM     33  C   UNL     1       9.606   7.055   1.881  0.00  0.00    +0.120 A 
BRANCH  33   7
ATOM      7  O   UNL     1       9.816   7.447   0.595  0.00  0.00    -0.495 OA
ATOM     34  C   UNL     1      10.081   6.421  -0.362  0.00  0.00    +0.277 C 
ENDBRANCH  33   7
ENDBRANCH  23  27
ENDBRANCH  21  23
ENDBRANCH   9  21
ENDBRANCH  12  18
BRANCH  13   8
ATOM      5  O   UNL     1      13.365   7.366   0.967  0.00  0.00    -0.274 OA
ATOM      8  N   UNL     1      14.436   6.224   2.679  0.00  0.00    -0.309 N 
ATOM     19  C   UNL     1      13.917   6.356   1.401  0.00  0.00    +0.231 C 
ATOM     35  H   UNL     1      14.822   5.332   2.969  0.00  0.00    +0.149 HD
BRANCH  19  20
ATOM     20  C   UNL     1      14.092   5.086   0.568  0.00  0.00    +0.143 C 
BRANCH  20  10
ATOM     10  N   UNL     1      15.307   4.423   1.049  0.00  0.00    -0.309 NA
ATOM     28  C   UNL     1      16.170   4.065  -0.064  0.00  0.00    +0.101 C 
ATOM     40  H   UNL     1      15.054   3.568   1.545  0.00  0.00    +0.122 HD
ENDBRANCH  20  10
BRANCH  20  22
ATOM     22  C   UNL     1      12.871   4.138   0.636  0.00  0.00    +0.009 C 
ATOM     24  C   UNL     1      12.976   3.066   1.727  0.00  0.00    +0.009 C 
ATOM     25  C   UNL     1      12.589   3.474  -0.716  0.00  0.00    +0.009 C 
ENDBRANCH  20  22
ENDBRANCH  19  20
ENDBRANCH  13   8
BRANCH  12   1
ATOM      1  O   UNL     1      12.891   9.522   5.036  0.00  0.00    -0.379 OA
ATOM     36  H   UNL     1      12.707  10.148   5.756  0.00  0.00    +0.211 HD
ENDBRANCH  12   1
BRANCH  15   2
ATOM      2  O   UNL     1      16.777   7.586   3.747  0.00  0.00    -0.387 OA
ATOM     37  H   UNL     1      16.465   7.998   2.923  0.00  0.00    +0.210 HD
ENDBRANCH  15   2
BRANCH  17   3
ATOM      3  O   UNL     1      16.666   8.110   6.544  0.00  0.00    -0.389 OA
ATOM     38  H   UNL     1      16.571   8.734   7.283  0.00  0.00    +0.210 HD
ENDBRANCH  17   3
TORSDOF 13
ENDMDL
MODEL 4
REMARK VINA RESULT:      -6.4      4.871      7.140
REMARK  Name = 11882566
REMARK  17 active torsions:
REMARK  status: ('A' for Active; 'I' for Inactive)
REMARK    1  A    between atoms: O_1  and  C_12
REMARK    2  A    between atoms: O_2  and  C_15
REMARK    3  A    between atoms: O_3  and  C_17
REMARK    4  A    between atoms: O_7  and  C_33
REMARK    5  A    between atoms: O_7  and  C_34
REMARK    6  A    between atoms: N_8  and  C_13
REMARK    7  A    between atoms: N_9  and  C_21
REMARK    8  A    between atoms: N_10  and  C_20
REMARK    9  A    between atoms: N_10  and  C_28
REMARK   10  A    between atoms: C_12  and  C_18
REMARK   11  A    between atoms: C_19  and  C_20
REMARK   12  A    between atoms: C_20  and  C_22
REMARK   13  A    between atoms: C_21  and  C_23
REMARK   14  A    between atoms: C_21  and  C_26
REMARK   15  A    between atoms: C_22  and  C_24
REMARK   16  A    between atoms: C_22  and  C_25
REMARK   17  A    between atoms: C_23  and  C_27
REMARK                            x       y       z     vdW  Elec       q    Type
REMARK                         _______ _______ _______ _____ _____    ______ ____
ROOT
ATOM     12  C   UNL     1      13.172   8.011  17.894  0.00  0.00    +0.146 C 
ATOM     13  C   UNL     1      14.085   9.664  16.193  0.00  0.00    +0.107 C 
ATOM     14  C   UNL     1      14.204   9.105  17.616  0.00  0.00    +0.069 C 
ATOM     15  C   UNL     1      12.658  10.134  15.883  0.00  0.00    +0.163 C 
ATOM     16  C   UNL     1      11.754   8.498  17.600  0.00  0.00    +0.078 C 
ATOM     17  C   UNL     1      11.619   9.050  16.180  0.00  0.00    +0.148 C 
ENDROOT
BRANCH  12  18
ATOM      4  O   UNL     1      14.201   6.830  19.698  0.00  0.00    -0.273 OA
ATOM      9  N   UNL     1      12.210   7.973  20.088  0.00  0.00    -0.301 N 
ATOM     18  C   UNL     1      13.273   7.538  19.314  0.00  0.00    +0.246 C 
ATOM     39  H   UNL     1      11.445   8.479  19.654  0.00  0.00    +0.150 HD
BRANCH   9  21
ATOM     21  C   UNL     1      12.059   7.636  21.485  0.00  0.00    +0.163 C 
BRANCH  21  26
ATOM      6  O   UNL     1      11.030   5.442  21.303  0.00  0.00    -0.274 OA
ATOM     11  N   UNL     1       9.756   7.194  22.068  0.00  0.00    -0.328 N 
ATOM     26  C   UNL     1      10.919   6.634  21.583  0.00  0.00    +0.231 C 
ATOM     41  H   UNL     1       9.679   8.179  22.299  0.00  0.00    +0.145 HD
ATOM     42  H   UNL     1       8.921   6.632  22.197  0.00  0.00    +0.145 HD
ENDBRANCH  21  26
BRANCH  21  23
ATOM     23  C   UNL     1      11.764   8.867  22.349  0.00  0.00    +0.067 C 
BRANCH  23  27
ATOM     27  C   UNL     1      12.504  10.097  21.883  0.00  0.00    -0.045 A 
ATOM     29  C   UNL     1      13.881  10.201  22.079  0.00  0.00    +0.007 A 
ATOM     30  C   UNL     1      11.808  11.133  21.258  0.00  0.00    +0.007 A 
ATOM     31  C   UNL     1      14.563  11.338  21.648  0.00  0.00    +0.046 A 
ATOM     32  C   UNL     1      12.490  12.271  20.828  0.00  0.00    +0.046 A 
ATOM     33  C   UNL     1      13.868  12.374  21.023  0.00  0.00    +0.120 A 
BRANCH  33   7
ATOM      7  O   UNL     1      14.534  13.483  20.603  0.00  0.00    -0.495 OA
ATOM     34  C   UNL     1      13.982  14.191  19.493  0.00  0.00    +0.277 C 
ENDBRANCH  33   7
ENDBRANCH  23  27
ENDBRANCH  21  23
ENDBRANCH   9  21
ENDBRANCH  12  18
BRANCH  13   8
ATOM      5  O   UNL     1      15.392  10.424  13.746  0.00  0.00    -0.274 OA
ATOM      8  N   UNL     1      15.029  10.746  16.014  0.00  0.00    -0.309 N 
ATOM     19  C   UNL     1      15.609  11.038  14.790  0.00  0.00    +0.231 C 
ATOM     35  H   UNL     1      15.311  11.271  16.835  0.00  0.00    +0.149 HD
BRANCH  19  20
ATOM     20  C   UNL     1      16.575  12.220  14.870  0.00  0.00    +0.143 C 
BRANCH  20  10
ATOM     10  N   UNL     1      17.709  11.904  13.997  0.00  0.00    -0.309 NA
ATOM     28  C   UNL     1      18.910  11.669  14.782  0.00  0.00    +0.101 C 
ATOM     40  H   UNL     1      17.885  12.691  13.372  0.00  0.00    +0.122 HD
ENDBRANCH  20  10
BRANCH  20  22
ATOM     22  C   UNL     1      15.925  13.568  14.479  0.00  0.00    +0.009 C 
ATOM     24  C   UNL     1      14.400  13.593  14.636  0.00  0.00    +0.009 C 
ATOM     25  C   UNL     1      16.304  13.992  13.056  0.00  0.00    +0.009 C 
ENDBRANCH  20  22
ENDBRANCH  19  20
ENDBRANCH  13   8
BRANCH  12   1
ATOM      1  O   UNL     1      13.442   6.859  17.103  0.00  0.00    -0.379 OA
ATOM     36  H   UNL     1      14.271   6.457  17.415  0.00  0.00    +0.211 HD
ENDBRANCH  12   1
BRANCH  15   2
ATOM      2  O   UNL     1      12.564  10.454  14.492  0.00  0.00    -0.387 OA
ATOM     37  H   UNL     1      12.196   9.682  14.029  0.00  0.00    +0.210 HD
ENDBRANCH  15   2
BRANCH  17   3
ATOM      3  O   UNL     1      10.317   9.618  16.029  0.00  0.00    -0.389 OA
ATOM     38  H   UNL     1      10.058   9.509  15.098  0.00  0.00    +0.210 HD
ENDBRANCH  17   3
TORSDOF 13
ENDMDL
MODEL 5
REMARK VINA RESULT:      -6.4      5.570      8.995
REMARK  Name = 11882566
REMARK  17 active torsions:
REMARK  status: ('A' for Active; 'I' for Inactive)
REMARK    1  A    between atoms: O_1  and  C_12
REMARK    2  A    between atoms: O_2  and  C_15
REMARK    3  A    between atoms: O_3  and  C_17
REMARK    4  A    between atoms: O_7  and  C_33
REMARK    5  A    between atoms: O_7  and  C_34
REMARK    6  A    between atoms: N_8  and  C_13
REMARK    7  A    between atoms: N_9  and  C_21
REMARK    8  A    between atoms: N_10  and  C_20
REMARK    9  A    between atoms: N_10  and  C_28
REMARK   10  A    between atoms: C_12  and  C_18
REMARK   11  A    between atoms: C_19  and  C_20
REMARK   12  A    between atoms: C_20  and  C_22
REMARK   13  A    between atoms: C_21  and  C_23
REMARK   14  A    between atoms: C_21  and  C_26
REMARK   15  A    between atoms: C_22  and  C_24
REMARK   16  A    between atoms: C_22  and  C_25
REMARK   17  A    between atoms: C_23  and  C_27
REMARK                            x       y       z     vdW  Elec       q    Type
REMARK                         _______ _______ _______ _____ _____    ______ ____
ROOT
ATOM     12  C   UNL     1      11.451  10.283  22.431  0.00  0.00    +0.146 C 
ATOM     13  C   UNL     1      12.287   9.297  20.243  0.00  0.00    +0.107 C 
ATOM     14  C   UNL     1      11.818  10.561  20.973  0.00  0.00    +0.069 C 
ATOM     15  C   UNL     1      11.267   8.157  20.366  0.00  0.00    +0.163 C 
ATOM     16  C   UNL     1      10.420   9.160  22.538  0.00  0.00    +0.078 C 
ATOM     17  C   UNL     1      10.878   7.888  21.822  0.00  0.00    +0.148 C 
ENDROOT
BRANCH  12  18
ATOM      4  O   UNL     1      10.541  11.526  24.257  0.00  0.00    -0.273 OA
ATOM      9  N   UNL     1      10.932  12.614  22.236  0.00  0.00    -0.301 N 
ATOM     18  C   UNL     1      10.931  11.526  23.092  0.00  0.00    +0.246 C 
ATOM     39  H   UNL     1      11.190  12.489  21.263  0.00  0.00    +0.150 HD
BRANCH   9  21
ATOM     21  C   UNL     1      10.460  13.924  22.622  0.00  0.00    +0.163 C 
BRANCH  21  26
ATOM      6  O   UNL     1       8.474  14.769  21.504  0.00  0.00    -0.274 OA
ATOM     11  N   UNL     1      10.442  14.667  20.323  0.00  0.00    -0.328 N 
ATOM     26  C   UNL     1       9.667  14.477  21.448  0.00  0.00    +0.231 C 
ATOM     41  H   UNL     1      11.427  14.426  20.291  0.00  0.00    +0.145 HD
ATOM     42  H   UNL     1      10.040  15.046  19.471  0.00  0.00    +0.145 HD
ENDBRANCH  21  26
BRANCH  21  23
ATOM     23  C   UNL     1      11.609  14.870  22.985  0.00  0.00    +0.067 C 
BRANCH  23  27
ATOM     27  C   UNL     1      11.844  14.961  24.473  0.00  0.00    -0.045 A 
ATOM     29  C   UNL     1      10.772  14.841  25.358  0.00  0.00    +0.007 A 
ATOM     30  C   UNL     1      13.134  15.165  24.964  0.00  0.00    +0.007 A 
ATOM     31  C   UNL     1      10.990  14.923  26.733  0.00  0.00    +0.046 A 
ATOM     32  C   UNL     1      13.352  15.249  26.338  0.00  0.00    +0.046 A 
ATOM     33  C   UNL     1      12.280  15.128  27.223  0.00  0.00    +0.120 A 
BRANCH  33   7
ATOM      7  O   UNL     1      12.493  15.210  28.565  0.00  0.00    -0.495 OA
ATOM     34  C   UNL     1      13.778  14.817  29.044  0.00  0.00    +0.277 C 
ENDBRANCH  33   7
ENDBRANCH  23  27
ENDBRANCH  21  23
ENDBRANCH   9  21
ENDBRANCH  12  18
BRANCH  13   8
ATOM      5  O   UNL     1      14.438   8.285  18.623  0.00  0.00    -0.274 OA
ATOM      8  N   UNL     1      12.543   9.603  18.852  0.00  0.00    -0.309 N 
ATOM     19  C   UNL     1      13.610   9.064  18.152  0.00  0.00    +0.231 C 
ATOM     35  H   UNL     1      11.943  10.284  18.397  0.00  0.00    +0.149 HD
BRANCH  19  20
ATOM     20  C   UNL     1      13.664   9.553  16.705  0.00  0.00    +0.143 C 
BRANCH  20  10
ATOM     10  N   UNL     1      12.342  10.099  16.389  0.00  0.00    -0.309 NA
ATOM     28  C   UNL     1      11.601   9.186  15.534  0.00  0.00    +0.101 C 
ATOM     40  H   UNL     1      12.449  10.984  15.893  0.00  0.00    +0.122 HD
ENDBRANCH  20  10
BRANCH  20  22
ATOM     22  C   UNL     1      14.777  10.598  16.455  0.00  0.00    +0.009 C 
ATOM     24  C   UNL     1      14.419  12.013  16.925  0.00  0.00    +0.009 C 
ATOM     25  C   UNL     1      15.203  10.636  14.984  0.00  0.00    +0.009 C 
ENDBRANCH  20  22
ENDBRANCH  19  20
ENDBRANCH  13   8
BRANCH  12   1
ATOM      1  O   UNL     1      12.608   9.925  23.177  0.00  0.00    -0.379 OA
ATOM     36  H   UNL     1      13.369  10.412  22.819  0.00  0.00    +0.211 HD
ENDBRANCH  12   1
BRANCH  15   2
ATOM      2  O   UNL     1      11.844   6.957  19.843  0.00  0.00    -0.387 OA
ATOM     37  H   UNL     1      12.016   7.092  18.896  0.00  0.00    +0.210 HD
ENDBRANCH  15   2
BRANCH  17   3
ATOM      3  O   UNL     1       9.810   6.940  21.838  0.00  0.00    -0.389 OA
ATOM     38  H   UNL     1       9.549   6.780  20.915  0.00  0.00    +0.210 HD
ENDBRANCH  17   3
TORSDOF 13
ENDMDL
MODEL 6
REMARK VINA RESULT:      -6.1     26.650     29.865
REMARK  Name = 11882566
REMARK  17 active torsions:
REMARK  status: ('A' for Active; 'I' for Inactive)
REMARK    1  A    between atoms: O_1  and  C_12
REMARK    2  A    between atoms: O_2  and  C_15
REMARK    3  A    between atoms: O_3  and  C_17
REMARK    4  A    between atoms: O_7  and  C_33
REMARK    5  A    between atoms: O_7  and  C_34
REMARK    6  A    between atoms: N_8  and  C_13
REMARK    7  A    between atoms: N_9  and  C_21
REMARK    8  A    between atoms: N_10  and  C_20
REMARK    9  A    between atoms: N_10  and  C_28
REMARK   10  A    between atoms: C_12  and  C_18
REMARK   11  A    between atoms: C_19  and  C_20
REMARK   12  A    between atoms: C_20  and  C_22
REMARK   13  A    between atoms: C_21  and  C_23
REMARK   14  A    between atoms: C_21  and  C_26
REMARK   15  A    between atoms: C_22  and  C_24
REMARK   16  A    between atoms: C_22  and  C_25
REMARK   17  A    between atoms: C_23  and  C_27
REMARK                            x       y       z     vdW  Elec       q    Type
REMARK                         _______ _______ _______ _____ _____    ______ ____
ROOT
ATOM     12  C   UNL     1      -2.626 -10.981  13.148  0.00  0.00    +0.146 C 
ATOM     13  C   UNL     1      -3.737 -11.492  15.375  0.00  0.00    +0.107 C 
ATOM     14  C   UNL     1      -3.929 -10.966  13.948  0.00  0.00    +0.069 C 
ATOM     15  C   UNL     1      -2.610 -10.753  16.108  0.00  0.00    +0.163 C 
ATOM     16  C   UNL     1      -1.517 -10.226  13.878  0.00  0.00    +0.078 C 
ATOM     17  C   UNL     1      -1.308 -10.746  15.301  0.00  0.00    +0.148 C 
ENDROOT
BRANCH  12  18
ATOM      4  O   UNL     1      -1.955  -9.769  11.202  0.00  0.00    -0.273 OA
ATOM      9  N   UNL     1      -4.115 -10.630  11.304  0.00  0.00    -0.301 N 
ATOM     18  C   UNL     1      -2.838 -10.396  11.782  0.00  0.00    +0.246 C 
ATOM     39  H   UNL     1      -4.802 -11.081  11.899  0.00  0.00    +0.150 HD
BRANCH   9  21
ATOM     21  C   UNL     1      -4.579 -10.152  10.022  0.00  0.00    +0.163 C 
BRANCH  21  26
ATOM      6  O   UNL     1      -5.693  -8.454  11.357  0.00  0.00    -0.274 OA
ATOM     11  N   UNL     1      -5.298  -8.021   9.135  0.00  0.00    -0.328 N 
ATOM     26  C   UNL     1      -5.261  -8.813  10.264  0.00  0.00    +0.231 C 
ATOM     41  H   UNL     1      -4.934  -8.329   8.240  0.00  0.00    +0.145 HD
ATOM     42  H   UNL     1      -5.713  -7.095   9.162  0.00  0.00    +0.145 HD
ENDBRANCH  21  26
BRANCH  21  23
ATOM     23  C   UNL     1      -5.550 -11.132   9.354  0.00  0.00    +0.067 C 
BRANCH  23  27
ATOM     27  C   UNL     1      -5.219 -11.385   7.903  0.00  0.00    -0.045 A 
ATOM     29  C   UNL     1      -5.910 -10.704   6.901  0.00  0.00    +0.007 A 
ATOM     30  C   UNL     1      -4.222 -12.301   7.565  0.00  0.00    +0.007 A 
ATOM     31  C   UNL     1      -5.603 -10.937   5.561  0.00  0.00    +0.046 A 
ATOM     32  C   UNL     1      -3.916 -12.535   6.225  0.00  0.00    +0.046 A 
ATOM     33  C   UNL     1      -4.606 -11.853   5.222  0.00  0.00    +0.120 A 
BRANCH  33   7
ATOM      7  O   UNL     1      -4.307 -12.081   3.915  0.00  0.00    -0.495 OA
ATOM     34  C   UNL     1      -2.974 -12.493   3.615  0.00  0.00    +0.277 C 
ENDBRANCH  33   7
ENDBRANCH  23  27
ENDBRANCH  21  23
ENDBRANCH   9  21
ENDBRANCH  12  18
BRANCH  13   8
ATOM      5  O   UNL     1      -4.867 -13.441  17.164  0.00  0.00    -0.274 OA
ATOM      8  N   UNL     1      -4.980 -11.379  16.108  0.00  0.00    -0.309 N 
ATOM     19  C   UNL     1      -5.444 -12.376  16.951  0.00  0.00    +0.231 C 
ATOM     35  H   UNL     1      -5.553 -10.557  15.948  0.00  0.00    +0.149 HD
BRANCH  19  20
ATOM     20  C   UNL     1      -6.782 -12.017  17.597  0.00  0.00    +0.143 C 
BRANCH  20  10
ATOM     10  N   UNL     1      -7.020 -12.995  18.661  0.00  0.00    -0.309 NA
ATOM     28  C   UNL     1      -8.279 -13.690  18.448  0.00  0.00    +0.101 C 
ATOM     40  H   UNL     1      -7.068 -12.515  19.560  0.00  0.00    +0.122 HD
ENDBRANCH  20  10
BRANCH  20  22
ATOM     22  C   UNL     1      -6.827 -10.570  18.144  0.00  0.00    +0.009 C 
ATOM     24  C   UNL     1      -6.507 -10.460  19.639  0.00  0.00    +0.009 C 
ATOM     25  C   UNL     1      -8.170  -9.892  17.852  0.00  0.00    +0.009 C 
ENDBRANCH  20  22
ENDBRANCH  19  20
ENDBRANCH  13   8
BRANCH  12   1
ATOM      1  O   UNL     1      -2.201 -12.318  12.913  0.00  0.00    -0.379 OA
ATOM     36  H   UNL     1      -2.149 -12.780  13.767  0.00  0.00    +0.211 HD
ENDBRANCH  12   1
BRANCH  15   2
ATOM      2  O   UNL     1      -2.346 -11.415  17.348  0.00  0.00    -0.387 OA
ATOM     37  H   UNL     1      -2.154 -10.737  18.018  0.00  0.00    +0.210 HD
ENDBRANCH  15   2
BRANCH  17   3
ATOM      3  O   UNL     1      -0.368  -9.902  15.967  0.00  0.00    -0.389 OA
ATOM     38  H   UNL     1       0.099 -10.446  16.623  0.00  0.00    +0.210 HD
ENDBRANCH  17   3
TORSDOF 13
ENDMDL
MODEL 7
REMARK VINA RESULT:      -6.1      4.987      7.656
REMARK  Name = 11882566
REMARK  17 active torsions:
REMARK  status: ('A' for Active; 'I' for Inactive)
REMARK    1  A    between atoms: O_1  and  C_12
REMARK    2  A    between atoms: O_2  and  C_15
REMARK    3  A    between atoms: O_3  and  C_17
REMARK    4  A    between atoms: O_7  and  C_33
REMARK    5  A    between atoms: O_7  and  C_34
REMARK    6  A    between atoms: N_8  and  C_13
REMARK    7  A    between atoms: N_9  and  C_21
REMARK    8  A    between atoms: N_10  and  C_20
REMARK    9  A    between atoms: N_10  and  C_28
REMARK   10  A    between atoms: C_12  and  C_18
REMARK   11  A    between atoms: C_19  and  C_20
REMARK   12  A    between atoms: C_20  and  C_22
REMARK   13  A    between atoms: C_21  and  C_23
REMARK   14  A    between atoms: C_21  and  C_26
REMARK   15  A    between atoms: C_22  and  C_24
REMARK   16  A    between atoms: C_22  and  C_25
REMARK   17  A    between atoms: C_23  and  C_27
REMARK                            x       y       z     vdW  Elec       q    Type
REMARK                         _______ _______ _______ _____ _____    ______ ____
ROOT
ATOM     12  C   UNL     1      11.545  10.274  22.437  0.00  0.00    +0.146 C 
ATOM     13  C   UNL     1      12.320   9.289  20.227  0.00  0.00    +0.107 C 
ATOM     14  C   UNL     1      11.900  10.558  20.976  0.00  0.00    +0.069 C 
ATOM     15  C   UNL     1      11.269   8.178  20.352  0.00  0.00    +0.163 C 
ATOM     16  C   UNL     1      10.483   9.181  22.547  0.00  0.00    +0.078 C 
ATOM     17  C   UNL     1      10.893   7.905  21.811  0.00  0.00    +0.148 C 
ENDROOT
BRANCH  12  18
ATOM      4  O   UNL     1      10.501  11.494  24.206  0.00  0.00    -0.273 OA
ATOM      9  N   UNL     1      11.335  12.661  22.372  0.00  0.00    -0.301 N 
ATOM     18  C   UNL     1      11.071  11.525  23.118  0.00  0.00    +0.246 C 
ATOM     39  H   UNL     1      11.731  12.572  21.442  0.00  0.00    +0.150 HD
BRANCH   9  21
ATOM     21  C   UNL     1      10.960  13.990  22.796  0.00  0.00    +0.163 C 
BRANCH  21  26
ATOM      6  O   UNL     1      10.066  14.783  20.680  0.00  0.00    -0.274 OA
ATOM     11  N   UNL     1       8.619  14.467  22.436  0.00  0.00    -0.328 N 
ATOM     26  C   UNL     1       9.868  14.469  21.852  0.00  0.00    +0.231 C 
ATOM     41  H   UNL     1       8.469  14.202  23.404  0.00  0.00    +0.145 HD
ATOM     42  H   UNL     1       7.798  14.750  21.911  0.00  0.00    +0.145 HD
ENDBRANCH  21  26
BRANCH  21  23
ATOM     23  C   UNL     1      12.147  14.961  22.777  0.00  0.00    +0.067 C 
BRANCH  23  27
ATOM     27  C   UNL     1      13.397  14.343  22.200  0.00  0.00    -0.045 A 
ATOM     29  C   UNL     1      14.292  13.671  23.033  0.00  0.00    +0.007 A 
ATOM     30  C   UNL     1      13.658  14.445  20.833  0.00  0.00    +0.007 A 
ATOM     31  C   UNL     1      15.447  13.099  22.499  0.00  0.00    +0.046 A 
ATOM     32  C   UNL     1      14.813  13.875  20.299  0.00  0.00    +0.046 A 
ATOM     33  C   UNL     1      15.708  13.202  21.132  0.00  0.00    +0.120 A 
BRANCH  33   7
ATOM      7  O   UNL     1      16.835  12.645  20.611  0.00  0.00    -0.495 OA
ATOM     34  C   UNL     1      17.990  13.478  20.524  0.00  0.00    +0.277 C 
ENDBRANCH  33   7
ENDBRANCH  23  27
ENDBRANCH  21  23
ENDBRANCH   9  21
ENDBRANCH  12  18
BRANCH  13   8
ATOM      5  O   UNL     1      14.391   8.200  18.553  0.00  0.00    -0.274 OA
ATOM      8  N   UNL     1      12.566   9.603  18.836  0.00  0.00    -0.309 N 
ATOM     19  C   UNL     1      13.593   9.024  18.108  0.00  0.00    +0.231 C 
ATOM     35  H   UNL     1      11.991  10.317  18.402  0.00  0.00    +0.149 HD
BRANCH  19  20
ATOM     20  C   UNL     1      13.644   9.530  16.667  0.00  0.00    +0.143 C 
BRANCH  20  10
ATOM     10  N   UNL     1      12.326  10.095  16.366  0.00  0.00    -0.309 NA
ATOM     28  C   UNL     1      11.570   9.202  15.503  0.00  0.00    +0.101 C 
ATOM     40  H   UNL     1      12.441  10.986  15.881  0.00  0.00    +0.122 HD
ENDBRANCH  20  10
BRANCH  20  22
ATOM     22  C   UNL     1      14.767  10.566  16.424  0.00  0.00    +0.009 C 
ATOM     24  C   UNL     1      14.423  11.981  16.903  0.00  0.00    +0.009 C 
ATOM     25  C   UNL     1      15.194  10.609  14.953  0.00  0.00    +0.009 C 
ENDBRANCH  20  22
ENDBRANCH  19  20
ENDBRANCH  13   8
BRANCH  12   1
ATOM      1  O   UNL     1      12.701   9.875  23.162  0.00  0.00    -0.379 OA
ATOM     36  H   UNL     1      13.110   9.123  22.701  0.00  0.00    +0.211 HD
ENDBRANCH  12   1
BRANCH  15   2
ATOM      2  O   UNL     1      11.802   6.967  19.809  0.00  0.00    -0.387 OA
ATOM     37  H   UNL     1      12.602   6.737  20.312  0.00  0.00    +0.210 HD
ENDBRANCH  15   2
BRANCH  17   3
ATOM      3  O   UNL     1       9.798   6.989  21.832  0.00  0.00    -0.389 OA
ATOM     38  H   UNL     1       8.981   7.509  21.758  0.00  0.00    +0.210 HD
ENDBRANCH  17   3
TORSDOF 13
ENDMDL
MODEL 8
REMARK VINA RESULT:      -6.1     27.373     30.241
REMARK  Name = 11882566
REMARK  17 active torsions:
REMARK  status: ('A' for Active; 'I' for Inactive)
REMARK    1  A    between atoms: O_1  and  C_12
REMARK    2  A    between atoms: O_2  and  C_15
REMARK    3  A    between atoms: O_3  and  C_17
REMARK    4  A    between atoms: O_7  and  C_33
REMARK    5  A    between atoms: O_7  and  C_34
REMARK    6  A    between atoms: N_8  and  C_13
REMARK    7  A    between atoms: N_9  and  C_21
REMARK    8  A    between atoms: N_10  and  C_20
REMARK    9  A    between atoms: N_10  and  C_28
REMARK   10  A    between atoms: C_12  and  C_18
REMARK   11  A    between atoms: C_19  and  C_20
REMARK   12  A    between atoms: C_20  and  C_22
REMARK   13  A    between atoms: C_21  and  C_23
REMARK   14  A    between atoms: C_21  and  C_26
REMARK   15  A    between atoms: C_22  and  C_24
REMARK   16  A    between atoms: C_22  and  C_25
REMARK   17  A    between atoms: C_23  and  C_27
REMARK                            x       y       z     vdW  Elec       q    Type
REMARK                         _______ _______ _______ _____ _____    ______ ____
ROOT
ATOM     12  C   UNL     1      -4.908 -10.646  16.246  0.00  0.00    +0.146 C 
ATOM     13  C   UNL     1      -4.167 -10.416  13.826  0.00  0.00    +0.107 C 
ATOM     14  C   UNL     1      -5.233 -10.960  14.785  0.00  0.00    +0.069 C 
ATOM     15  C   UNL     1      -2.759 -10.889  14.212  0.00  0.00    +0.163 C 
ATOM     16  C   UNL     1      -3.512 -11.139  16.623  0.00  0.00    +0.078 C 
ATOM     17  C   UNL     1      -2.437 -10.597  15.680  0.00  0.00    +0.148 C 
ENDROOT
BRANCH  12  18
ATOM      4  O   UNL     1      -6.201 -12.452  17.126  0.00  0.00    -0.273 OA
ATOM      9  N   UNL     1      -6.526 -10.312  17.981  0.00  0.00    -0.301 N 
ATOM     18  C   UNL     1      -5.934 -11.253  17.157  0.00  0.00    +0.246 C 
ATOM     39  H   UNL     1      -6.301  -9.329  17.867  0.00  0.00    +0.150 HD
BRANCH   9  21
ATOM     21  C   UNL     1      -7.562 -10.636  18.936  0.00  0.00    +0.163 C 
BRANCH  21  26
ATOM      6  O   UNL     1      -6.074 -11.461  20.671  0.00  0.00    -0.274 OA
ATOM     11  N   UNL     1      -7.639 -12.894  19.792  0.00  0.00    -0.328 N 
ATOM     26  C   UNL     1      -6.988 -11.682  19.880  0.00  0.00    +0.231 C 
ATOM     41  H   UNL     1      -8.396 -13.062  19.137  0.00  0.00    +0.145 HD
ATOM     42  H   UNL     1      -7.366 -13.676  20.379  0.00  0.00    +0.145 HD
ENDBRANCH  21  26
BRANCH  21  23
ATOM     23  C   UNL     1      -8.830 -11.166  18.257  0.00  0.00    +0.067 C 
BRANCH  23  27
ATOM     27  C   UNL     1      -9.486 -10.142  17.364  0.00  0.00    -0.045 A 
ATOM     29  C   UNL     1      -9.611 -10.385  15.997  0.00  0.00    +0.007 A 
ATOM     30  C   UNL     1      -9.967  -8.950  17.908  0.00  0.00    +0.007 A 
ATOM     31  C   UNL     1     -10.219  -9.438  15.173  0.00  0.00    +0.046 A 
ATOM     32  C   UNL     1     -10.574  -8.003  17.084  0.00  0.00    +0.046 A 
ATOM     33  C   UNL     1     -10.700  -8.246  15.716  0.00  0.00    +0.120 A 
BRANCH  33   7
ATOM      7  O   UNL     1     -11.292  -7.322  14.912  0.00  0.00    -0.495 OA
ATOM     34  C   UNL     1     -11.246  -5.962  15.342  0.00  0.00    +0.277 C 
ENDBRANCH  33   7
ENDBRANCH  23  27
ENDBRANCH  21  23
ENDBRANCH   9  21
ENDBRANCH  12  18
BRANCH  13   8
ATOM      5  O   UNL     1      -5.923  -9.056  11.999  0.00  0.00    -0.274 OA
ATOM      8  N   UNL     1      -4.483 -10.811  12.470  0.00  0.00    -0.309 N 
ATOM     19  C   UNL     1      -5.345 -10.087  11.662  0.00  0.00    +0.231 C 
ATOM     35  H   UNL     1      -4.095 -11.684  12.127  0.00  0.00    +0.149 HD
BRANCH  19  20
ATOM     20  C   UNL     1      -5.518 -10.720  10.282  0.00  0.00    +0.143 C 
BRANCH  20  10
ATOM     10  N   UNL     1      -6.766 -10.193   9.723  0.00  0.00    -0.309 NA
ATOM     28  C   UNL     1      -7.835 -11.169   9.849  0.00  0.00    +0.101 C 
ATOM     40  H   UNL     1      -6.635  -9.988   8.733  0.00  0.00    +0.122 HD
ENDBRANCH  20  10
BRANCH  20  22
ATOM     22  C   UNL     1      -4.324 -10.454   9.334  0.00  0.00    +0.009 C 
ATOM     24  C   UNL     1      -3.886  -8.985   9.282  0.00  0.00    +0.009 C 
ATOM     25  C   UNL     1      -4.598 -10.962   7.915  0.00  0.00    +0.009 C 
ENDBRANCH  20  22
ENDBRANCH  19  20
ENDBRANCH  13   8
BRANCH  12   1
ATOM      1  O   UNL     1      -4.987  -9.246  16.484  0.00  0.00    -0.379 OA
ATOM     36  H   UNL     1      -5.632  -9.089  17.195  0.00  0.00    +0.211 HD
ENDBRANCH  12   1
BRANCH  15   2
ATOM      2  O   UNL     1      -1.798 -10.194  13.412  0.00  0.00    -0.387 OA
ATOM     37  H   UNL     1      -2.153 -10.120  12.510  0.00  0.00    +0.210 HD
ENDBRANCH  15   2
BRANCH  17   3
ATOM      3  O   UNL     1      -1.189 -11.214  16.001  0.00  0.00    -0.389 OA
ATOM     38  H   UNL     1      -1.381 -11.993  16.549  0.00  0.00    +0.210 HD
ENDBRANCH  17   3
TORSDOF 13
ENDMDL
MODEL 9
REMARK VINA RESULT:      -6.0      3.063      5.399
REMARK  Name = 11882566
REMARK  17 active torsions:
REMARK  status: ('A' for Active; 'I' for Inactive)
REMARK    1  A    between atoms: O_1  and  C_12
REMARK    2  A    between atoms: O_2  and  C_15
REMARK    3  A    between atoms: O_3  and  C_17
REMARK    4  A    between atoms: O_7  and  C_33
REMARK    5  A    between atoms: O_7  and  C_34
REMARK    6  A    between atoms: N_8  and  C_13
REMARK    7  A    between atoms: N_9  and  C_21
REMARK    8  A    between atoms: N_10  and  C_20
REMARK    9  A    between atoms: N_10  and  C_28
REMARK   10  A    between atoms: C_12  and  C_18
REMARK   11  A    between atoms: C_19  and  C_20
REMARK   12  A    between atoms: C_20  and  C_22
REMARK   13  A    between atoms: C_21  and  C_23
REMARK   14  A    between atoms: C_21  and  C_26
REMARK   15  A    between atoms: C_22  and  C_24
REMARK   16  A    between atoms: C_22  and  C_25
REMARK   17  A    between atoms: C_23  and  C_27
REMARK                            x       y       z     vdW  Elec       q    Type
REMARK                         _______ _______ _______ _____ _____    ______ ____
ROOT
ATOM     12  C   UNL     1      11.609   9.369  22.353  0.00  0.00    +0.146 C 
ATOM     13  C   UNL     1      13.026   7.425  21.537  0.00  0.00    +0.107 C 
ATOM     14  C   UNL     1      13.011   8.762  22.287  0.00  0.00    +0.069 C 
ATOM     15  C   UNL     1      12.390   7.544  20.145  0.00  0.00    +0.163 C 
ATOM     16  C   UNL     1      10.995   9.501  20.961  0.00  0.00    +0.078 C 
ATOM     17  C   UNL     1      10.995   8.173  20.204  0.00  0.00    +0.148 C 
ENDROOT
BRANCH  12  18
ATOM      4  O   UNL     1      11.416  10.832  24.232  0.00  0.00    -0.273 OA
ATOM      9  N   UNL     1      11.934  11.734  22.150  0.00  0.00    -0.301 N 
ATOM     18  C   UNL     1      11.644  10.707  23.032  0.00  0.00    +0.246 C 
ATOM     39  H   UNL     1      12.017  11.539  21.158  0.00  0.00    +0.150 HD
BRANCH   9  21
ATOM     21  C   UNL     1      12.005  13.122  22.548  0.00  0.00    +0.163 C 
BRANCH  21  26
ATOM      6  O   UNL     1      10.258  14.252  21.293  0.00  0.00    -0.274 OA
ATOM     11  N   UNL     1       9.798  13.554  23.433  0.00  0.00    -0.328 N 
ATOM     26  C   UNL     1      10.622  13.719  22.339  0.00  0.00    +0.231 C 
ATOM     41  H   UNL     1      10.111  13.108  24.289  0.00  0.00    +0.145 HD
ATOM     42  H   UNL     1       8.842  13.893  23.421  0.00  0.00    +0.145 HD
ENDBRANCH  21  26
BRANCH  21  23
ATOM     23  C   UNL     1      13.051  13.902  21.744  0.00  0.00    +0.067 C 
BRANCH  23  27
ATOM     27  C   UNL     1      13.633  13.098  20.608  0.00  0.00    -0.045 A 
ATOM     29  C   UNL     1      13.050  13.153  19.342  0.00  0.00    +0.007 A 
ATOM     30  C   UNL     1      14.755  12.297  20.824  0.00  0.00    +0.007 A 
ATOM     31  C   UNL     1      13.589  12.410  18.292  0.00  0.00    +0.046 A 
ATOM     32  C   UNL     1      15.294  11.553  19.775  0.00  0.00    +0.046 A 
ATOM     33  C   UNL     1      14.711  11.609  18.509  0.00  0.00    +0.120 A 
BRANCH  33   7
ATOM      7  O   UNL     1      15.237  10.883  17.485  0.00  0.00    -0.495 OA
ATOM     34  C   UNL     1      14.317  10.293  16.568  0.00  0.00    +0.277 C 
ENDBRANCH  33   7
ENDBRANCH  23  27
ENDBRANCH  21  23
ENDBRANCH   9  21
ENDBRANCH  12  18
BRANCH  13   8
ATOM      5  O   UNL     1      14.944   8.078  19.494  0.00  0.00    -0.274 OA
ATOM      8  N   UNL     1      14.385   6.938  21.435  0.00  0.00    -0.309 N 
ATOM     19  C   UNL     1      15.239   7.311  20.410  0.00  0.00    +0.231 C 
ATOM     35  H   UNL     1      14.696   6.254  22.117  0.00  0.00    +0.149 HD
BRANCH  19  20
ATOM     20  C   UNL     1      16.613   6.651  20.526  0.00  0.00    +0.143 C 
BRANCH  20  10
ATOM     10  N   UNL     1      17.240   6.733  19.205  0.00  0.00    -0.309 NA
ATOM     28  C   UNL     1      17.188   5.446  18.532  0.00  0.00    +0.101 C 
ATOM     40  H   UNL     1      18.219   7.000  19.309  0.00  0.00    +0.122 HD
ENDBRANCH  20  10
BRANCH  20  22
ATOM     22  C   UNL     1      17.508   7.293  21.613  0.00  0.00    +0.009 C 
ATOM     24  C   UNL     1      17.557   8.824  21.555  0.00  0.00    +0.009 C 
ATOM     25  C   UNL     1      18.933   6.730  21.583  0.00  0.00    +0.009 C 
ENDBRANCH  20  22
ENDBRANCH  19  20
ENDBRANCH  13   8
BRANCH  12   1
ATOM      1  O   UNL     1      10.756   8.568  23.163  0.00  0.00    -0.379 OA
ATOM     36  H   UNL     1      11.287   8.178  23.878  0.00  0.00    +0.211 HD
ENDBRANCH  12   1
BRANCH  15   2
ATOM      2  O   UNL     1      12.253   6.237  19.581  0.00  0.00    -0.387 OA
ATOM     37  H   UNL     1      11.324   6.117  19.319  0.00  0.00    +0.210 HD
ENDBRANCH  15   2
BRANCH  17   3
ATOM      3  O   UNL     1      10.547   8.403  18.867  0.00  0.00    -0.389 OA
ATOM     38  H   UNL     1      11.108   7.873  18.276  0.00  0.00    +0.210 HD
ENDBRANCH  17   3
TORSDOF 13
ENDMDL
MODEL 10
REMARK VINA RESULT:      -5.8     28.550     30.248
REMARK  Name = 11882566
REMARK  17 active torsions:
REMARK  status: ('A' for Active; 'I' for Inactive)
REMARK    1  A    between atoms: O_1  and  C_12
REMARK    2  A    between atoms: O_2  and  C_15
REMARK    3  A    between atoms: O_3  and  C_17
REMARK    4  A    between atoms: O_7  and  C_33
REMARK    5  A    between atoms: O_7  and  C_34
REMARK    6  A    between atoms: N_8  and  C_13
REMARK    7  A    between atoms: N_9  and  C_21
REMARK    8  A    between atoms: N_10  and  C_20
REMARK    9  A    between atoms: N_10  and  C_28
REMARK   10  A    between atoms: C_12  and  C_18
REMARK   11  A    between atoms: C_19  and  C_20
REMARK   12  A    between atoms: C_20  and  C_22
REMARK   13  A    between atoms: C_21  and  C_23
REMARK   14  A    between atoms: C_21  and  C_26
REMARK   15  A    between atoms: C_22  and  C_24
REMARK   16  A    between atoms: C_22  and  C_25
REMARK   17  A    between atoms: C_23  and  C_27
REMARK                            x       y       z     vdW  Elec       q    Type
REMARK                         _______ _______ _______ _____ _____    ______ ____
ROOT
ATOM     12  C   UNL     1      -4.311 -10.899  15.227  0.00  0.00    +0.146 C 
ATOM     13  C   UNL     1      -3.661 -11.250  12.796  0.00  0.00    +0.107 C 
ATOM     14  C   UNL     1      -4.716 -10.705  13.765  0.00  0.00    +0.069 C 
ATOM     15  C   UNL     1      -3.309 -12.713  13.101  0.00  0.00    +0.163 C 
ATOM     16  C   UNL     1      -3.982 -12.361  15.523  0.00  0.00    +0.078 C 
ATOM     17  C   UNL     1      -2.924 -12.917  14.569  0.00  0.00    +0.148 C 
ENDROOT
BRANCH  12  18
ATOM      4  O   UNL     1      -5.656  -9.223  16.272  0.00  0.00    -0.273 OA
ATOM      9  N   UNL     1      -6.018 -11.458  16.814  0.00  0.00    -0.301 N 
ATOM     18  C   UNL     1      -5.397 -10.417  16.145  0.00  0.00    +0.246 C 
ATOM     39  H   UNL     1      -5.668 -12.405  16.708  0.00  0.00    +0.150 HD
BRANCH   9  21
ATOM     21  C   UNL     1      -7.081 -11.259  17.772  0.00  0.00    +0.163 C 
BRANCH  21  26
ATOM      6  O   UNL     1      -7.367 -12.207  19.991  0.00  0.00    -0.274 OA
ATOM     11  N   UNL     1      -6.228 -13.428  18.413  0.00  0.00    -0.328 N 
ATOM     26  C   UNL     1      -6.909 -12.314  18.855  0.00  0.00    +0.231 C 
ATOM     41  H   UNL     1      -5.858 -13.503  17.471  0.00  0.00    +0.145 HD
ATOM     42  H   UNL     1      -6.057 -14.214  19.032  0.00  0.00    +0.145 HD
ENDBRANCH  21  26
BRANCH  21  23
ATOM     23  C   UNL     1      -8.468 -11.374  17.130  0.00  0.00    +0.067 C 
BRANCH  23  27
ATOM     27  C   UNL     1      -9.025 -10.038  16.700  0.00  0.00    -0.045 A 
ATOM     29  C   UNL     1      -9.183  -9.751  15.345  0.00  0.00    +0.007 A 
ATOM     30  C   UNL     1      -9.380  -9.090  17.661  0.00  0.00    +0.007 A 
ATOM     31  C   UNL     1      -9.698  -8.517  14.949  0.00  0.00    +0.046 A 
ATOM     32  C   UNL     1      -9.894  -7.856  17.265  0.00  0.00    +0.046 A 
ATOM     33  C   UNL     1     -10.053  -7.569  15.909  0.00  0.00    +0.120 A 
BRANCH  33   7
ATOM      7  O   UNL     1     -10.555  -6.364  15.522  0.00  0.00    -0.495 OA
ATOM     34  C   UNL     1     -11.887  -6.350  15.010  0.00  0.00    +0.277 C 
ENDBRANCH  33   7
ENDBRANCH  23  27
ENDBRANCH  21  23
ENDBRANCH   9  21
ENDBRANCH  12  18
BRANCH  13   8
ATOM      5  O   UNL     1      -2.482  -9.650  10.717  0.00  0.00    -0.274 OA
ATOM      8  N   UNL     1      -4.132 -11.113  11.435  0.00  0.00    -0.309 N 
ATOM     19  C   UNL     1      -3.494 -10.315  10.499  0.00  0.00    +0.231 C 
ATOM     35  H   UNL     1      -4.996 -11.582  11.182  0.00  0.00    +0.149 HD
BRANCH  19  20
ATOM     20  C   UNL     1      -4.195 -10.334   9.142  0.00  0.00    +0.143 C 
BRANCH  20  10
ATOM     10  N   UNL     1      -4.550 -11.729   8.863  0.00  0.00    -0.309 NA
ATOM     28  C   UNL     1      -4.493 -11.997   7.436  0.00  0.00    +0.101 C 
ATOM     40  H   UNL     1      -5.501 -11.908   9.184  0.00  0.00    +0.122 HD
ENDBRANCH  20  10
BRANCH  20  22
ATOM     22  C   UNL     1      -5.440  -9.417   9.084  0.00  0.00    +0.009 C 
ATOM     24  C   UNL     1      -5.287  -8.109   9.869  0.00  0.00    +0.009 C 
ATOM     25  C   UNL     1      -6.708 -10.148   9.539  0.00  0.00    +0.009 C 
ENDBRANCH  20  22
ENDBRANCH  19  20
ENDBRANCH  13   8
BRANCH  12   1
ATOM      1  O   UNL     1      -3.180 -10.095  15.542  0.00  0.00    -0.379 OA
ATOM     36  H   UNL     1      -2.556 -10.630  16.063  0.00  0.00    +0.211 HD
ENDBRANCH  12   1
BRANCH  15   2
ATOM      2  O   UNL     1      -2.187 -13.099  12.302  0.00  0.00    -0.387 OA
ATOM     37  H   UNL     1      -2.149 -12.509  11.530  0.00  0.00    +0.210 HD
ENDBRANCH  15   2
BRANCH  17   3
ATOM      3  O   UNL     1      -2.778 -14.317  14.807  0.00  0.00    -0.389 OA
ATOM     38  H   UNL     1      -2.046 -14.431  15.436  0.00  0.00    +0.210 HD
ENDBRANCH  17   3
TORSDOF 13
ENDMDL
