MODEL 1
REMARK VINA RESULT:      -6.4      0.000      0.000
REMARK  Name = 38029350
REMARK  15 active torsions:
REMARK  status: ('A' for Active; 'I' for Inactive)
REMARK    1  A    between atoms: O_3  and  C_23
REMARK    2  A    between atoms: O_3  and  C_30
REMARK    3  A    between atoms: N_4  and  C_14
REMARK    4  A    between atoms: N_5  and  C_22
REMARK    5  A    between atoms: C_7  and  C_11
REMARK    6  A    between atoms: C_8  and  C_14
REMARK    7  A    between atoms: C_10  and  C_15
REMARK    8  A    between atoms: C_11  and  C_16
REMARK    9  A    between atoms: C_11  and  C_17
REMARK   10  A    between atoms: C_12  and  C_18
REMARK   11  A    between atoms: C_15  and  C_19
REMARK   12  A    between atoms: C_20  and  C_21
REMARK   13  A    between atoms: C_21  and  C_23
REMARK   14  A    between atoms: C_22  and  C_24
REMARK   15  A    between atoms: C_29  and  C_31
REMARK                            x       y       z     vdW  Elec       q    Type
REMARK                         _______ _______ _______ _____ _____    ______ ____
ROOT
ATOM      7  C   UNL     1      -5.482 -10.326  10.657  0.00  0.00    +0.000 C 
ATOM      8  C   UNL     1      -4.770  -9.498   9.559  0.00  0.00    +0.032 C 
ATOM      9  C   UNL     1      -4.958  -9.936  12.048  0.00  0.00    +0.012 C 
ATOM     10  C   UNL     1      -3.439 -10.155  12.180  0.00  0.00    +0.023 C 
ATOM     12  C   UNL     1      -2.684  -9.596  10.991  0.00  0.00    -0.073 C 
ATOM     13  C   UNL     1      -3.299  -9.295   9.833  0.00  0.00    -0.022 C 
ATOM     18  C   UNL     1      -1.214  -9.346  11.179  0.00  0.00    +0.039 C 
ENDROOT
BRANCH   7  11
ATOM     11  C   UNL     1      -7.004 -10.147  10.608  0.00  0.00    -0.013 C 
ATOM     16  C   UNL     1      -7.689 -11.485  10.350  0.00  0.00    +0.007 C 
ATOM     17  C   UNL     1      -7.508  -9.522  11.905  0.00  0.00    +0.007 C 
ENDBRANCH   7  11
BRANCH   8  14
ATOM     14  C   UNL     1      -4.950 -10.139   8.179  0.00  0.00    +0.112 C 
BRANCH  14   4
ATOM      2  O   UNL     1      -6.930 -10.810   6.190  0.00  0.00    -0.276 OA
ATOM      4  N   UNL     1      -5.610  -9.241   7.284  0.00  0.00    -0.315 N 
ATOM     20  C   UNL     1      -6.561  -9.650   6.347  0.00  0.00    +0.215 C 
ATOM     32  H   UNL     1      -5.410  -8.248   7.372  0.00  0.00    +0.149 HD
BRANCH  20  21
ATOM     21  C   UNL     1      -7.098  -8.484   5.534  0.00  0.00    +0.124 C 
BRANCH  21  23
ATOM     23  C   UNL     1      -8.212  -7.728   6.241  0.00  0.00    +0.168 C 
BRANCH  23   3
ATOM      3  O   UNL     1      -7.864  -7.543   7.607  0.00  0.00    -0.382 OA
ATOM     30  C   UNL     1      -8.276  -6.270   8.083  0.00  0.00    +0.194 C 
ENDBRANCH  23   3
ENDBRANCH  21  23
ENDBRANCH  20  21
ENDBRANCH  14   4
ENDBRANCH   8  14
BRANCH  10  15
ATOM     15  C   UNL     1      -3.111 -11.636  12.392  0.00  0.00    +0.103 C 
BRANCH  15  19
ATOM      1  O   UNL     1      -2.701 -13.095  14.278  0.00  0.00    -0.276 OA
ATOM      5  N   UNL     1      -2.742 -10.793  14.598  0.00  0.00    -0.311 N 
ATOM     19  C   UNL     1      -2.830 -11.954  13.843  0.00  0.00    +0.214 C 
ATOM     33  H   UNL     1      -2.884  -9.895  14.145  0.00  0.00    +0.149 HD
BRANCH   5  22
ATOM     22  C   UNL     1      -2.482 -10.795  16.019  0.00  0.00    +0.139 C 
BRANCH  22  24
ATOM     24  C   UNL     1      -3.751 -10.823  16.822  0.00  0.00    -0.030 A 
ATOM     25  C   UNL     1      -3.785 -11.481  18.051  0.00  0.00    +0.006 A 
ATOM     26  C   UNL     1      -4.896 -10.190  16.338  0.00  0.00    +0.006 A 
ATOM     27  C   UNL     1      -4.963 -11.506  18.797  0.00  0.00    +0.019 A 
ATOM     28  C   UNL     1      -6.074 -10.215  17.085  0.00  0.00    +0.019 A 
ATOM     29  C   UNL     1      -6.108 -10.873  18.314  0.00  0.00    +0.052 A 
BRANCH  29  31
ATOM      6  N   UNL     1      -8.295 -10.921  19.699  0.00  0.00    -0.191 NA
ATOM     31  C   UNL     1      -7.315 -10.900  19.078  0.00  0.00    +0.099 C 
ENDBRANCH  29  31
ENDBRANCH  22  24
ENDBRANCH   5  22
ENDBRANCH  15  19
ENDBRANCH  10  15
TORSDOF 11
ENDMDL
MODEL 2
REMARK VINA RESULT:      -6.1      3.230      8.334
REMARK  Name = 38029350
REMARK  15 active torsions:
REMARK  status: ('A' for Active; 'I' for Inactive)
REMARK    1  A    between atoms: O_3  and  C_23
REMARK    2  A    between atoms: O_3  and  C_30
REMARK    3  A    between atoms: N_4  and  C_14
REMARK    4  A    between atoms: N_5  and  C_22
REMARK    5  A    between atoms: C_7  and  C_11
REMARK    6  A    between atoms: C_8  and  C_14
REMARK    7  A    between atoms: C_10  and  C_15
REMARK    8  A    between atoms: C_11  and  C_16
REMARK    9  A    between atoms: C_11  and  C_17
REMARK   10  A    between atoms: C_12  and  C_18
REMARK   11  A    between atoms: C_15  and  C_19
REMARK   12  A    between atoms: C_20  and  C_21
REMARK   13  A    between atoms: C_21  and  C_23
REMARK   14  A    between atoms: C_22  and  C_24
REMARK   15  A    between atoms: C_29  and  C_31
REMARK                            x       y       z     vdW  Elec       q    Type
REMARK                         _______ _______ _______ _____ _____    ______ ____
ROOT
ATOM      7  C   UNL     1      -6.348 -11.000  16.041  0.00  0.00    +0.000 C 
ATOM      8  C   UNL     1      -6.890 -11.020  17.492  0.00  0.00    +0.032 C 
ATOM      9  C   UNL     1      -5.326 -12.129  15.834  0.00  0.00    +0.012 C 
ATOM     10  C   UNL     1      -4.133 -12.018  16.802  0.00  0.00    +0.023 C 
ATOM     12  C   UNL     1      -4.585 -11.766  18.227  0.00  0.00    -0.073 C 
ATOM     13  C   UNL     1      -5.825 -11.334  18.516  0.00  0.00    -0.022 C 
ATOM     18  C   UNL     1      -3.593 -12.068  19.315  0.00  0.00    +0.039 C 
ENDROOT
BRANCH   7  11
ATOM     11  C   UNL     1      -7.476 -11.127  15.011  0.00  0.00    -0.013 C 
ATOM     16  C   UNL     1      -7.593  -9.847  14.190  0.00  0.00    +0.007 C 
ATOM     17  C   UNL     1      -7.236 -12.331  14.105  0.00  0.00    +0.007 C 
ENDBRANCH   7  11
BRANCH   8  14
ATOM     14  C   UNL     1      -7.566  -9.692  17.849  0.00  0.00    +0.112 C 
BRANCH  14   4
ATOM      2  O   UNL     1      -9.003 -10.869  20.058  0.00  0.00    -0.276 OA
ATOM      4  N   UNL     1      -8.981  -9.858  17.965  0.00  0.00    -0.315 N 
ATOM     20  C   UNL     1      -9.598 -10.441  19.074  0.00  0.00    +0.215 C 
ATOM     32  H   UNL     1      -9.567  -9.488  17.222  0.00  0.00    +0.149 HD
BRANCH  20  21
ATOM     21  C   UNL     1     -11.111 -10.485  18.926  0.00  0.00    +0.124 C 
BRANCH  21  23
ATOM     23  C   UNL     1     -11.593  -9.948  17.588  0.00  0.00    +0.168 C 
BRANCH  23   3
ATOM      3  O   UNL     1     -11.625  -8.527  17.633  0.00  0.00    -0.382 OA
ATOM     30  C   UNL     1     -11.638  -7.964  16.329  0.00  0.00    +0.194 C 
ENDBRANCH  23   3
ENDBRANCH  21  23
ENDBRANCH  20  21
ENDBRANCH  14   4
ENDBRANCH   8  14
BRANCH  10  15
ATOM     15  C   UNL     1      -3.146 -10.941  16.341  0.00  0.00    +0.103 C 
BRANCH  15  19
ATOM      1  O   UNL     1      -1.894 -12.345  14.820  0.00  0.00    -0.276 OA
ATOM      5  N   UNL     1      -2.667 -10.276  14.095  0.00  0.00    -0.311 N 
ATOM     19  C   UNL     1      -2.494 -11.294  15.024  0.00  0.00    +0.214 C 
ATOM     33  H   UNL     1      -3.164  -9.434  14.370  0.00  0.00    +0.149 HD
BRANCH   5  22
ATOM     22  C   UNL     1      -2.147 -10.340  12.749  0.00  0.00    +0.139 C 
BRANCH  22  24
ATOM     24  C   UNL     1      -3.195 -10.013  11.725  0.00  0.00    -0.030 A 
ATOM     25  C   UNL     1      -2.826  -9.445  10.506  0.00  0.00    +0.006 A 
ATOM     26  C   UNL     1      -4.538 -10.277  11.994  0.00  0.00    +0.006 A 
ATOM     27  C   UNL     1      -3.800  -9.141   9.554  0.00  0.00    +0.019 A 
ATOM     28  C   UNL     1      -5.512  -9.973  11.042  0.00  0.00    +0.019 A 
ATOM     29  C   UNL     1      -5.143  -9.405   9.822  0.00  0.00    +0.052 A 
BRANCH  29  31
ATOM      6  N   UNL     1      -6.950  -8.840   8.056  0.00  0.00    -0.191 NA
ATOM     31  C   UNL     1      -6.140  -9.094   8.848  0.00  0.00    +0.099 C 
ENDBRANCH  29  31
ENDBRANCH  22  24
ENDBRANCH   5  22
ENDBRANCH  15  19
ENDBRANCH  10  15
TORSDOF 11
ENDMDL
MODEL 3
REMARK VINA RESULT:      -6.1     20.426     24.069
REMARK  Name = 38029350
REMARK  15 active torsions:
REMARK  status: ('A' for Active; 'I' for Inactive)
REMARK    1  A    between atoms: O_3  and  C_23
REMARK    2  A    between atoms: O_3  and  C_30
REMARK    3  A    between atoms: N_4  and  C_14
REMARK    4  A    between atoms: N_5  and  C_22
REMARK    5  A    between atoms: C_7  and  C_11
REMARK    6  A    between atoms: C_8  and  C_14
REMARK    7  A    between atoms: C_10  and  C_15
REMARK    8  A    between atoms: C_11  and  C_16
REMARK    9  A    between atoms: C_11  and  C_17
REMARK   10  A    between atoms: C_12  and  C_18
REMARK   11  A    between atoms: C_15  and  C_19
REMARK   12  A    between atoms: C_20  and  C_21
REMARK   13  A    between atoms: C_21  and  C_23
REMARK   14  A    between atoms: C_22  and  C_24
REMARK   15  A    between atoms: C_29  and  C_31
REMARK                            x       y       z     vdW  Elec       q    Type
REMARK                         _______ _______ _______ _____ _____    ______ ____
ROOT
ATOM      7  C   UNL     1     -16.922   4.920  27.798  0.00  0.00    +0.000 C 
ATOM      8  C   UNL     1     -16.965   3.714  28.769  0.00  0.00    +0.032 C 
ATOM      9  C   UNL     1     -17.652   4.580  26.489  0.00  0.00    +0.012 C 
ATOM     10  C   UNL     1     -17.036   3.359  25.779  0.00  0.00    +0.023 C 
ATOM     12  C   UNL     1     -16.798   2.211  26.739  0.00  0.00    -0.073 C 
ATOM     13  C   UNL     1     -16.784   2.386  28.072  0.00  0.00    -0.022 C 
ATOM     18  C   UNL     1     -16.624   0.847  26.132  0.00  0.00    +0.039 C 
ENDROOT
BRANCH   7  11
ATOM     11  C   UNL     1     -17.536   6.176  28.423  0.00  0.00    -0.013 C 
ATOM     16  C   UNL     1     -17.735   7.255  27.363  0.00  0.00    +0.007 C 
ATOM     17  C   UNL     1     -18.858   5.840  29.106  0.00  0.00    +0.007 C 
ENDBRANCH   7  11
BRANCH   8  14
ATOM     14  C   UNL     1     -15.915   3.857  29.876  0.00  0.00    +0.112 C 
BRANCH  14   4
ATOM      2  O   UNL     1     -13.413   3.355  31.225  0.00  0.00    -0.276 OA
ATOM      4  N   UNL     1     -15.361   2.585  30.217  0.00  0.00    -0.315 N 
ATOM     20  C   UNL     1     -14.138   2.429  30.873  0.00  0.00    +0.215 C 
ATOM     32  H   UNL     1     -15.911   1.755  30.013  0.00  0.00    +0.149 HD
BRANCH  20  21
ATOM     21  C   UNL     1     -13.799   0.966  31.109  0.00  0.00    +0.124 C 
BRANCH  21  23
ATOM     23  C   UNL     1     -14.985   0.039  30.890  0.00  0.00    +0.168 C 
BRANCH  23   3
ATOM      3  O   UNL     1     -14.858  -0.602  29.628  0.00  0.00    -0.382 OA
ATOM     30  C   UNL     1     -13.502  -0.899  29.327  0.00  0.00    +0.194 C 
ENDBRANCH  23   3
ENDBRANCH  21  23
ENDBRANCH  20  21
ENDBRANCH  14   4
ENDBRANCH   8  14
BRANCH  10  15
ATOM     15  C   UNL     1     -15.746   3.739  25.046  0.00  0.00    +0.103 C 
BRANCH  15  19
ATOM      1  O   UNL     1     -16.308   2.800  22.888  0.00  0.00    -0.276 OA
ATOM      5  N   UNL     1     -15.618   5.016  23.029  0.00  0.00    -0.311 N 
ATOM     19  C   UNL     1     -15.931   3.766  23.546  0.00  0.00    +0.214 C 
ATOM     33  H   UNL     1     -15.295   5.746  23.658  0.00  0.00    +0.149 HD
BRANCH   5  22
ATOM     22  C   UNL     1     -15.701   5.330  21.622  0.00  0.00    +0.139 C 
BRANCH  22  24
ATOM     24  C   UNL     1     -14.532   6.153  21.159  0.00  0.00    -0.030 A 
ATOM     25  C   UNL     1     -14.735   7.229  20.296  0.00  0.00    +0.006 A 
ATOM     26  C   UNL     1     -13.245   5.840  21.594  0.00  0.00    +0.006 A 
ATOM     27  C   UNL     1     -13.650   7.994  19.867  0.00  0.00    +0.019 A 
ATOM     28  C   UNL     1     -12.159   6.604  21.165  0.00  0.00    +0.019 A 
ATOM     29  C   UNL     1     -12.362   7.681  20.301  0.00  0.00    +0.052 A 
BRANCH  29  31
ATOM      6  N   UNL     1     -10.348   9.100  19.504  0.00  0.00    -0.191 NA
ATOM     31  C   UNL     1     -11.251   8.464  19.861  0.00  0.00    +0.099 C 
ENDBRANCH  29  31
ENDBRANCH  22  24
ENDBRANCH   5  22
ENDBRANCH  15  19
ENDBRANCH  10  15
TORSDOF 11
ENDMDL
MODEL 4
REMARK VINA RESULT:      -6.0     27.124     29.962
REMARK  Name = 38029350
REMARK  15 active torsions:
REMARK  status: ('A' for Active; 'I' for Inactive)
REMARK    1  A    between atoms: O_3  and  C_23
REMARK    2  A    between atoms: O_3  and  C_30
REMARK    3  A    between atoms: N_4  and  C_14
REMARK    4  A    between atoms: N_5  and  C_22
REMARK    5  A    between atoms: C_7  and  C_11
REMARK    6  A    between atoms: C_8  and  C_14
REMARK    7  A    between atoms: C_10  and  C_15
REMARK    8  A    between atoms: C_11  and  C_16
REMARK    9  A    between atoms: C_11  and  C_17
REMARK   10  A    between atoms: C_12  and  C_18
REMARK   11  A    between atoms: C_15  and  C_19
REMARK   12  A    between atoms: C_20  and  C_21
REMARK   13  A    between atoms: C_21  and  C_23
REMARK   14  A    between atoms: C_22  and  C_24
REMARK   15  A    between atoms: C_29  and  C_31
REMARK                            x       y       z     vdW  Elec       q    Type
REMARK                         _______ _______ _______ _____ _____    ______ ____
ROOT
ATOM      7  C   UNL     1      14.360  10.832  20.542  0.00  0.00    +0.000 C 
ATOM      8  C   UNL     1      13.771  11.989  19.697  0.00  0.00    +0.032 C 
ATOM      9  C   UNL     1      15.299   9.967  19.686  0.00  0.00    +0.012 C 
ATOM     10  C   UNL     1      14.581   9.363  18.464  0.00  0.00    +0.023 C 
ATOM     12  C   UNL     1      13.755  10.399  17.728  0.00  0.00    -0.073 C 
ATOM     13  C   UNL     1      13.414  11.572  18.290  0.00  0.00    -0.022 C 
ATOM     18  C   UNL     1      13.369  10.074  16.312  0.00  0.00    +0.039 C 
ENDROOT
BRANCH   7  11
ATOM     11  C   UNL     1      15.112  11.351  21.772  0.00  0.00    -0.013 C 
ATOM     16  C   UNL     1      14.871  10.436  22.968  0.00  0.00    +0.007 C 
ATOM     17  C   UNL     1      16.603  11.470  21.474  0.00  0.00    +0.007 C 
ENDBRANCH   7  11
BRANCH   8  14
ATOM     14  C   UNL     1      12.539  12.599  20.376  0.00  0.00    +0.112 C 
BRANCH  14   4
ATOM      2  O   UNL     1      11.620  12.896  23.096  0.00  0.00    -0.276 OA
ATOM      4  N   UNL     1      11.861  11.621  21.167  0.00  0.00    -0.315 N 
ATOM     20  C   UNL     1      11.448  11.847  22.482  0.00  0.00    +0.215 C 
ATOM     32  H   UNL     1      11.625  10.734  20.730  0.00  0.00    +0.149 HD
BRANCH  20  21
ATOM     21  C   UNL     1      10.750  10.635  23.077  0.00  0.00    +0.124 C 
BRANCH  21  23
ATOM     23  C   UNL     1      11.346   9.317  22.608  0.00  0.00    +0.168 C 
BRANCH  23   3
ATOM      3  O   UNL     1      10.598   8.826  21.503  0.00  0.00    -0.382 OA
ATOM     30  C   UNL     1      10.839   7.443  21.283  0.00  0.00    +0.194 C 
ENDBRANCH  23   3
ENDBRANCH  21  23
ENDBRANCH  20  21
ENDBRANCH  14   4
ENDBRANCH   8  14
BRANCH  10  15
ATOM     15  C   UNL     1      13.721   8.161  18.867  0.00  0.00    +0.103 C 
BRANCH  15  19
ATOM      1  O   UNL     1      14.168   6.458  20.527  0.00  0.00    -0.276 OA
ATOM      5  N   UNL     1      15.744   6.886  18.873  0.00  0.00    -0.311 N 
ATOM     19  C   UNL     1      14.538   7.077  19.533  0.00  0.00    +0.214 C 
ATOM     33  H   UNL     1      15.965   7.465  18.068  0.00  0.00    +0.149 HD
BRANCH   5  22
ATOM     22  C   UNL     1      16.726   5.913  19.291  0.00  0.00    +0.139 C 
BRANCH  22  24
ATOM     24  C   UNL     1      17.785   6.524  20.164  0.00  0.00    -0.030 A 
ATOM     25  C   UNL     1      17.509   7.684  20.888  0.00  0.00    +0.006 A 
ATOM     26  C   UNL     1      19.044   5.930  20.252  0.00  0.00    +0.006 A 
ATOM     27  C   UNL     1      18.492   8.251  21.699  0.00  0.00    +0.019 A 
ATOM     28  C   UNL     1      20.027   6.497  21.063  0.00  0.00    +0.019 A 
ATOM     29  C   UNL     1      19.751   7.658  21.787  0.00  0.00    +0.052 A 
BRANCH  29  31
ATOM      6  N   UNL     1      21.575   8.711  23.293  0.00  0.00    -0.191 NA
ATOM     31  C   UNL     1      20.758   8.239  22.617  0.00  0.00    +0.099 C 
ENDBRANCH  29  31
ENDBRANCH  22  24
ENDBRANCH   5  22
ENDBRANCH  15  19
ENDBRANCH  10  15
TORSDOF 11
ENDMDL
MODEL 5
REMARK VINA RESULT:      -5.9     27.005     29.812
REMARK  Name = 38029350
REMARK  15 active torsions:
REMARK  status: ('A' for Active; 'I' for Inactive)
REMARK    1  A    between atoms: O_3  and  C_23
REMARK    2  A    between atoms: O_3  and  C_30
REMARK    3  A    between atoms: N_4  and  C_14
REMARK    4  A    between atoms: N_5  and  C_22
REMARK    5  A    between atoms: C_7  and  C_11
REMARK    6  A    between atoms: C_8  and  C_14
REMARK    7  A    between atoms: C_10  and  C_15
REMARK    8  A    between atoms: C_11  and  C_16
REMARK    9  A    between atoms: C_11  and  C_17
REMARK   10  A    between atoms: C_12  and  C_18
REMARK   11  A    between atoms: C_15  and  C_19
REMARK   12  A    between atoms: C_20  and  C_21
REMARK   13  A    between atoms: C_21  and  C_23
REMARK   14  A    between atoms: C_22  and  C_24
REMARK   15  A    between atoms: C_29  and  C_31
REMARK                            x       y       z     vdW  Elec       q    Type
REMARK                         _______ _______ _______ _____ _____    ______ ____
ROOT
ATOM      7  C   UNL     1      13.526   9.400  18.889  0.00  0.00    +0.000 C 
ATOM      8  C   UNL     1      12.864   8.001  18.938  0.00  0.00    +0.032 C 
ATOM      9  C   UNL     1      15.057   9.268  18.844  0.00  0.00    +0.012 C 
ATOM     10  C   UNL     1      15.611   8.509  20.064  0.00  0.00    +0.023 C 
ATOM     12  C   UNL     1      14.830   7.240  20.340  0.00  0.00    -0.073 C 
ATOM     13  C   UNL     1      13.610   7.025  19.817  0.00  0.00    -0.022 C 
ATOM     18  C   UNL     1      15.504   6.203  21.194  0.00  0.00    +0.039 C 
ENDROOT
BRANCH   7  11
ATOM     11  C   UNL     1      13.041  10.217  17.686  0.00  0.00    -0.013 C 
ATOM     16  C   UNL     1      13.918  11.450  17.492  0.00  0.00    +0.007 C 
ATOM     17  C   UNL     1      13.031   9.356  16.427  0.00  0.00    +0.007 C 
ENDBRANCH   7  11
BRANCH   8  14
ATOM     14  C   UNL     1      11.406   8.095  19.402  0.00  0.00    +0.112 C 
BRANCH  14   4
ATOM      2  O   UNL     1      10.556   7.395  22.070  0.00  0.00    -0.276 OA
ATOM      4  N   UNL     1      11.287   8.970  20.525  0.00  0.00    -0.315 N 
ATOM     20  C   UNL     1      10.866   8.549  21.787  0.00  0.00    +0.215 C 
ATOM     32  H   UNL     1      11.570   9.939  20.406  0.00  0.00    +0.149 HD
BRANCH  20  21
ATOM     21  C   UNL     1      10.835   9.692  22.789  0.00  0.00    +0.124 C 
BRANCH  21  23
ATOM     23  C   UNL     1      11.858  10.775  22.487  0.00  0.00    +0.168 C 
BRANCH  23   3
ATOM      3  O   UNL     1      11.293  11.723  21.591  0.00  0.00    -0.382 OA
ATOM     30  C   UNL     1      10.920  12.917  22.262  0.00  0.00    +0.194 C 
ENDBRANCH  23   3
ENDBRANCH  21  23
ENDBRANCH  20  21
ENDBRANCH  14   4
ENDBRANCH   8  14
BRANCH  10  15
ATOM     15  C   UNL     1      15.652   9.409  21.303  0.00  0.00    +0.103 C 
BRANCH  15  19
ATOM      1  O   UNL     1      17.351  10.810  22.306  0.00  0.00    -0.276 OA
ATOM      5  N   UNL     1      17.975   8.849  21.224  0.00  0.00    -0.311 N 
ATOM     19  C   UNL     1      17.065   9.793  21.680  0.00  0.00    +0.214 C 
ATOM     33  H   UNL     1      17.637   8.049  20.696  0.00  0.00    +0.149 HD
BRANCH   5  22
ATOM     22  C   UNL     1      19.399   8.959  21.439  0.00  0.00    +0.139 C 
BRANCH  22  24
ATOM     24  C   UNL     1      20.080   7.621  21.390  0.00  0.00    -0.030 A 
ATOM     25  C   UNL     1      19.491   6.564  20.695  0.00  0.00    +0.006 A 
ATOM     26  C   UNL     1      21.300   7.435  22.038  0.00  0.00    +0.006 A 
ATOM     27  C   UNL     1      20.123   5.321  20.649  0.00  0.00    +0.019 A 
ATOM     28  C   UNL     1      21.932   6.192  21.992  0.00  0.00    +0.019 A 
ATOM     29  C   UNL     1      21.343   5.136  21.297  0.00  0.00    +0.052 A 
BRANCH  29  31
ATOM      6  N   UNL     1      22.516   2.828  21.211  0.00  0.00    -0.191 NA
ATOM     31  C   UNL     1      21.991   3.862  21.250  0.00  0.00    +0.099 C 
ENDBRANCH  29  31
ENDBRANCH  22  24
ENDBRANCH   5  22
ENDBRANCH  15  19
ENDBRANCH  10  15
TORSDOF 11
ENDMDL
MODEL 6
REMARK VINA RESULT:      -5.9     20.161     23.444
REMARK  Name = 38029350
REMARK  15 active torsions:
REMARK  status: ('A' for Active; 'I' for Inactive)
REMARK    1  A    between atoms: O_3  and  C_23
REMARK    2  A    between atoms: O_3  and  C_30
REMARK    3  A    between atoms: N_4  and  C_14
REMARK    4  A    between atoms: N_5  and  C_22
REMARK    5  A    between atoms: C_7  and  C_11
REMARK    6  A    between atoms: C_8  and  C_14
REMARK    7  A    between atoms: C_10  and  C_15
REMARK    8  A    between atoms: C_11  and  C_16
REMARK    9  A    between atoms: C_11  and  C_17
REMARK   10  A    between atoms: C_12  and  C_18
REMARK   11  A    between atoms: C_15  and  C_19
REMARK   12  A    between atoms: C_20  and  C_21
REMARK   13  A    between atoms: C_21  and  C_23
REMARK   14  A    between atoms: C_22  and  C_24
REMARK   15  A    between atoms: C_29  and  C_31
REMARK                            x       y       z     vdW  Elec       q    Type
REMARK                         _______ _______ _______ _____ _____    ______ ____
ROOT
ATOM      7  C   UNL     1     -13.376   8.873  20.788  0.00  0.00    +0.000 C 
ATOM      8  C   UNL     1     -13.619   8.417  22.248  0.00  0.00    +0.032 C 
ATOM      9  C   UNL     1     -12.188   9.846  20.720  0.00  0.00    +0.012 C 
ATOM     10  C   UNL     1     -12.408  11.096  21.592  0.00  0.00    +0.023 C 
ATOM     12  C   UNL     1     -12.911  10.736  22.976  0.00  0.00    -0.073 C 
ATOM     13  C   UNL     1     -13.436   9.529  23.253  0.00  0.00    -0.022 C 
ATOM     18  C   UNL     1     -12.752  11.780  24.046  0.00  0.00    +0.039 C 
ENDROOT
BRANCH   7  11
ATOM     11  C   UNL     1     -13.127   7.684  19.854  0.00  0.00    -0.013 C 
ATOM     16  C   UNL     1     -13.192   8.130  18.396  0.00  0.00    +0.007 C 
ATOM     17  C   UNL     1     -11.780   7.038  20.162  0.00  0.00    +0.007 C 
ENDBRANCH   7  11
BRANCH   8  14
ATOM     14  C   UNL     1     -15.014   7.805  22.412  0.00  0.00    +0.112 C 
BRANCH  14   4
ATOM      2  O   UNL     1     -14.915   5.057  21.538  0.00  0.00    -0.276 OA
ATOM      4  N   UNL     1     -14.964   6.640  23.238  0.00  0.00    -0.315 N 
ATOM     20  C   UNL     1     -14.917   5.340  22.732  0.00  0.00    +0.215 C 
ATOM     32  H   UNL     1     -14.910   6.772  24.245  0.00  0.00    +0.149 HD
BRANCH  20  21
ATOM     21  C   UNL     1     -14.867   4.299  23.838  0.00  0.00    +0.124 C 
BRANCH  21  23
ATOM     23  C   UNL     1     -16.196   3.589  24.047  0.00  0.00    +0.168 C 
BRANCH  23   3
ATOM      3  O   UNL     1     -16.353   2.578  23.060  0.00  0.00    -0.382 OA
ATOM     30  C   UNL     1     -17.713   2.420  22.686  0.00  0.00    +0.194 C 
ENDBRANCH  23   3
ENDBRANCH  21  23
ENDBRANCH  20  21
ENDBRANCH  14   4
ENDBRANCH   8  14
BRANCH  10  15
ATOM     15  C   UNL     1     -13.353  12.088  20.906  0.00  0.00    +0.103 C 
BRANCH  15  19
ATOM      1  O   UNL     1     -13.766  12.245  18.527  0.00  0.00    -0.276 OA
ATOM      5  N   UNL     1     -11.629  12.647  19.348  0.00  0.00    -0.311 N 
ATOM     19  C   UNL     1     -12.975  12.328  19.462  0.00  0.00    +0.214 C 
ATOM     33  H   UNL     1     -11.052  12.671  20.183  0.00  0.00    +0.149 HD
BRANCH   5  22
ATOM     22  C   UNL     1     -10.989  12.925  18.082  0.00  0.00    +0.139 C 
BRANCH  22  24
ATOM     24  C   UNL     1     -10.846  11.688  17.242  0.00  0.00    -0.030 A 
ATOM     25  C   UNL     1     -11.347  11.667  15.940  0.00  0.00    +0.006 A 
ATOM     26  C   UNL     1     -10.211  10.561  17.763  0.00  0.00    +0.006 A 
ATOM     27  C   UNL     1     -11.213  10.519  15.159  0.00  0.00    +0.019 A 
ATOM     28  C   UNL     1     -10.077   9.413  16.982  0.00  0.00    +0.019 A 
ATOM     29  C   UNL     1     -10.578   9.392  15.680  0.00  0.00    +0.052 A 
BRANCH  29  31
ATOM      6  N   UNL     1     -10.330   7.261  14.230  0.00  0.00    -0.191 NA
ATOM     31  C   UNL     1     -10.442   8.216  14.880  0.00  0.00    +0.099 C 
ENDBRANCH  29  31
ENDBRANCH  22  24
ENDBRANCH   5  22
ENDBRANCH  15  19
ENDBRANCH  10  15
TORSDOF 11
ENDMDL
MODEL 7
REMARK VINA RESULT:      -5.9     28.363     31.511
REMARK  Name = 38029350
REMARK  15 active torsions:
REMARK  status: ('A' for Active; 'I' for Inactive)
REMARK    1  A    between atoms: O_3  and  C_23
REMARK    2  A    between atoms: O_3  and  C_30
REMARK    3  A    between atoms: N_4  and  C_14
REMARK    4  A    between atoms: N_5  and  C_22
REMARK    5  A    between atoms: C_7  and  C_11
REMARK    6  A    between atoms: C_8  and  C_14
REMARK    7  A    between atoms: C_10  and  C_15
REMARK    8  A    between atoms: C_11  and  C_16
REMARK    9  A    between atoms: C_11  and  C_17
REMARK   10  A    between atoms: C_12  and  C_18
REMARK   11  A    between atoms: C_15  and  C_19
REMARK   12  A    between atoms: C_20  and  C_21
REMARK   13  A    between atoms: C_21  and  C_23
REMARK   14  A    between atoms: C_22  and  C_24
REMARK   15  A    between atoms: C_29  and  C_31
REMARK                            x       y       z     vdW  Elec       q    Type
REMARK                         _______ _______ _______ _____ _____    ______ ____
ROOT
ATOM      7  C   UNL     1      16.848   7.488  20.513  0.00  0.00    +0.000 C 
ATOM      8  C   UNL     1      15.452   7.146  21.091  0.00  0.00    +0.032 C 
ATOM      9  C   UNL     1      17.610   8.422  21.467  0.00  0.00    +0.012 C 
ATOM     10  C   UNL     1      16.851   9.739  21.721  0.00  0.00    +0.023 C 
ATOM     12  C   UNL     1      15.389   9.495  22.037  0.00  0.00    -0.073 C 
ATOM     13  C   UNL     1      14.785   8.325  21.761  0.00  0.00    -0.022 C 
ATOM     18  C   UNL     1      14.649  10.610  22.720  0.00  0.00    +0.039 C 
ENDROOT
BRANCH   7  11
ATOM     11  C   UNL     1      17.679   6.228  20.249  0.00  0.00    -0.013 C 
ATOM     16  C   UNL     1      17.529   5.786  18.797  0.00  0.00    +0.007 C 
ATOM     17  C   UNL     1      19.144   6.475  20.591  0.00  0.00    +0.007 C 
ENDBRANCH   7  11
BRANCH   8  14
ATOM     14  C   UNL     1      14.526   6.584  20.007  0.00  0.00    +0.112 C 
BRANCH  14   4
ATOM      2  O   UNL     1      13.191   7.288  17.547  0.00  0.00    -0.276 OA
ATOM      4  N   UNL     1      13.361   7.398  19.863  0.00  0.00    -0.315 N 
ATOM     20  C   UNL     1      12.776   7.691  18.629  0.00  0.00    +0.215 C 
ATOM     32  H   UNL     1      12.910   7.739  20.707  0.00  0.00    +0.149 HD
BRANCH  20  21
ATOM     21  C   UNL     1      11.549   8.576  18.776  0.00  0.00    +0.124 C 
BRANCH  21  23
ATOM     23  C   UNL     1      11.176   8.840  20.227  0.00  0.00    +0.168 C 
BRANCH  23   3
ATOM      3  O   UNL     1      10.529   7.694  20.765  0.00  0.00    -0.382 OA
ATOM     30  C   UNL     1      10.593   7.676  22.183  0.00  0.00    +0.194 C 
ENDBRANCH  23   3
ENDBRANCH  21  23
ENDBRANCH  20  21
ENDBRANCH  14   4
ENDBRANCH   8  14
BRANCH  10  15
ATOM     15  C   UNL     1      17.004  10.701  20.538  0.00  0.00    +0.103 C 
BRANCH  15  19
ATOM      1  O   UNL     1      19.060  11.465  21.560  0.00  0.00    -0.276 OA
ATOM      5  N   UNL     1      18.543  12.127  19.392  0.00  0.00    -0.311 N 
ATOM     19  C   UNL     1      18.313  11.456  20.586  0.00  0.00    +0.214 C 
ATOM     33  H   UNL     1      17.850  12.072  18.651  0.00  0.00    +0.149 HD
BRANCH   5  22
ATOM     22  C   UNL     1      19.718  12.933  19.155  0.00  0.00    +0.139 C 
BRANCH  22  24
ATOM     24  C   UNL     1      20.668  12.274  18.197  0.00  0.00    -0.030 A 
ATOM     25  C   UNL     1      21.791  11.602  18.679  0.00  0.00    +0.006 A 
ATOM     26  C   UNL     1      20.426  12.332  16.825  0.00  0.00    +0.006 A 
ATOM     27  C   UNL     1      22.673  10.989  17.789  0.00  0.00    +0.019 A 
ATOM     28  C   UNL     1      21.308  11.719  15.935  0.00  0.00    +0.019 A 
ATOM     29  C   UNL     1      22.431  11.047  16.417  0.00  0.00    +0.052 A 
BRANCH  29  31
ATOM      6  N   UNL     1      24.068   9.909  14.765  0.00  0.00    -0.191 NA
ATOM     31  C   UNL     1      23.335  10.419  15.506  0.00  0.00    +0.099 C 
ENDBRANCH  29  31
ENDBRANCH  22  24
ENDBRANCH   5  22
ENDBRANCH  15  19
ENDBRANCH  10  15
TORSDOF 11
ENDMDL
MODEL 8
REMARK VINA RESULT:      -5.9     22.789     26.477
REMARK  Name = 38029350
REMARK  15 active torsions:
REMARK  status: ('A' for Active; 'I' for Inactive)
REMARK    1  A    between atoms: O_3  and  C_23
REMARK    2  A    between atoms: O_3  and  C_30
REMARK    3  A    between atoms: N_4  and  C_14
REMARK    4  A    between atoms: N_5  and  C_22
REMARK    5  A    between atoms: C_7  and  C_11
REMARK    6  A    between atoms: C_8  and  C_14
REMARK    7  A    between atoms: C_10  and  C_15
REMARK    8  A    between atoms: C_11  and  C_16
REMARK    9  A    between atoms: C_11  and  C_17
REMARK   10  A    between atoms: C_12  and  C_18
REMARK   11  A    between atoms: C_15  and  C_19
REMARK   12  A    between atoms: C_20  and  C_21
REMARK   13  A    between atoms: C_21  and  C_23
REMARK   14  A    between atoms: C_22  and  C_24
REMARK   15  A    between atoms: C_29  and  C_31
REMARK                            x       y       z     vdW  Elec       q    Type
REMARK                         _______ _______ _______ _____ _____    ______ ____
ROOT
ATOM      7  C   UNL     1       8.700   8.690   5.154  0.00  0.00    +0.000 C 
ATOM      8  C   UNL     1       8.629   8.262   6.641  0.00  0.00    +0.032 C 
ATOM      9  C   UNL     1       8.242   7.540   4.242  0.00  0.00    +0.012 C 
ATOM     10  C   UNL     1       9.099   6.274   4.427  0.00  0.00    +0.023 C 
ATOM     12  C   UNL     1       9.299   5.938   5.892  0.00  0.00    -0.073 C 
ATOM     13  C   UNL     1       9.071   6.836   6.867  0.00  0.00    -0.022 C 
ATOM     18  C   UNL     1       9.723   4.532   6.212  0.00  0.00    +0.039 C 
ENDROOT
BRANCH   7  11
ATOM     11  C   UNL     1       7.854   9.938   4.879  0.00  0.00    -0.013 C 
ATOM     16  C   UNL     1       8.743  11.099   4.446  0.00  0.00    +0.007 C 
ATOM     17  C   UNL     1       6.797   9.642   3.821  0.00  0.00    +0.007 C 
ENDBRANCH   7  11
BRANCH   8  14
ATOM     14  C   UNL     1       9.457   9.200   7.526  0.00  0.00    +0.112 C 
BRANCH  14   4
ATOM      2  O   UNL     1      11.444  11.133   6.723  0.00  0.00    -0.276 OA
ATOM      4  N   UNL     1      10.855   8.971   7.339  0.00  0.00    -0.315 N 
ATOM     20  C   UNL     1      11.752   9.967   6.947  0.00  0.00    +0.215 C 
ATOM     32  H   UNL     1      11.219   8.046   7.550  0.00  0.00    +0.149 HD
BRANCH  20  21
ATOM     21  C   UNL     1      13.173   9.440   6.829  0.00  0.00    +0.124 C 
BRANCH  21  23
ATOM     23  C   UNL     1      13.257   7.926   6.939  0.00  0.00    +0.168 C 
BRANCH  23   3
ATOM      3  O   UNL     1      12.942   7.342   5.682  0.00  0.00    -0.382 OA
ATOM     30  C   UNL     1      13.994   7.522   4.745  0.00  0.00    +0.194 C 
ENDBRANCH  23   3
ENDBRANCH  21  23
ENDBRANCH  20  21
ENDBRANCH  14   4
ENDBRANCH   8  14
BRANCH  10  15
ATOM     15  C   UNL     1      10.444   6.407   3.706  0.00  0.00    +0.103 C 
BRANCH  15  19
ATOM      1  O   UNL     1      10.052   5.457   1.515  0.00  0.00    -0.276 OA
ATOM      5  N   UNL     1      11.448   4.352   3.011  0.00  0.00    -0.311 N 
ATOM     19  C   UNL     1      10.604   5.378   2.609  0.00  0.00    +0.214 C 
ATOM     33  H   UNL     1      11.840   4.370   3.948  0.00  0.00    +0.149 HD
BRANCH   5  22
ATOM     22  C   UNL     1      11.781   3.229   2.165  0.00  0.00    +0.139 C 
BRANCH  22  24
ATOM     24  C   UNL     1      12.938   3.533   1.257  0.00  0.00    -0.030 A 
ATOM     25  C   UNL     1      14.228   3.626   1.779  0.00  0.00    +0.006 A 
ATOM     26  C   UNL     1      12.722   3.722  -0.108  0.00  0.00    +0.006 A 
ATOM     27  C   UNL     1      15.303   3.908   0.936  0.00  0.00    +0.019 A 
ATOM     28  C   UNL     1      13.798   4.004  -0.951  0.00  0.00    +0.019 A 
ATOM     29  C   UNL     1      15.088   4.097  -0.429  0.00  0.00    +0.052 A 
BRANCH  29  31
ATOM      6  N   UNL     1      17.084   4.621  -1.993  0.00  0.00    -0.191 NA
ATOM     31  C   UNL     1      16.189   4.386  -1.292  0.00  0.00    +0.099 C 
ENDBRANCH  29  31
ENDBRANCH  22  24
ENDBRANCH   5  22
ENDBRANCH  15  19
ENDBRANCH  10  15
TORSDOF 11
ENDMDL
MODEL 9
REMARK VINA RESULT:      -5.8     20.764     22.935
REMARK  Name = 38029350
REMARK  15 active torsions:
REMARK  status: ('A' for Active; 'I' for Inactive)
REMARK    1  A    between atoms: O_3  and  C_23
REMARK    2  A    between atoms: O_3  and  C_30
REMARK    3  A    between atoms: N_4  and  C_14
REMARK    4  A    between atoms: N_5  and  C_22
REMARK    5  A    between atoms: C_7  and  C_11
REMARK    6  A    between atoms: C_8  and  C_14
REMARK    7  A    between atoms: C_10  and  C_15
REMARK    8  A    between atoms: C_11  and  C_16
REMARK    9  A    between atoms: C_11  and  C_17
REMARK   10  A    between atoms: C_12  and  C_18
REMARK   11  A    between atoms: C_15  and  C_19
REMARK   12  A    between atoms: C_20  and  C_21
REMARK   13  A    between atoms: C_21  and  C_23
REMARK   14  A    between atoms: C_22  and  C_24
REMARK   15  A    between atoms: C_29  and  C_31
REMARK                            x       y       z     vdW  Elec       q    Type
REMARK                         _______ _______ _______ _____ _____    ______ ____
ROOT
ATOM      7  C   UNL     1     -12.011  10.133  18.626  0.00  0.00    +0.000 C 
ATOM      8  C   UNL     1     -11.921   8.756  17.920  0.00  0.00    +0.032 C 
ATOM      9  C   UNL     1     -11.271  10.095  19.972  0.00  0.00    +0.012 C 
ATOM     10  C   UNL     1     -11.841   9.022  20.920  0.00  0.00    +0.023 C 
ATOM     12  C   UNL     1     -12.035   7.694  20.216  0.00  0.00    -0.073 C 
ATOM     13  C   UNL     1     -12.053   7.593  18.874  0.00  0.00    -0.022 C 
ATOM     18  C   UNL     1     -12.158   6.477  21.089  0.00  0.00    +0.039 C 
ENDROOT
BRANCH   7  11
ATOM     11  C   UNL     1     -11.444  11.257  17.754  0.00  0.00    -0.013 C 
ATOM     16  C   UNL     1     -11.398  12.566  18.536  0.00  0.00    +0.007 C 
ATOM     17  C   UNL     1     -10.056  10.885  17.242  0.00  0.00    +0.007 C 
ENDBRANCH   7  11
BRANCH   8  14
ATOM     14  C   UNL     1     -12.975   8.632  16.814  0.00  0.00    +0.112 C 
BRANCH  14   4
ATOM      2  O   UNL     1     -14.340   7.953  14.363  0.00  0.00    -0.276 OA
ATOM      4  N   UNL     1     -12.384   8.158  15.602  0.00  0.00    -0.315 N 
ATOM     20  C   UNL     1     -13.120   7.852  14.456  0.00  0.00    +0.215 C 
ATOM     32  H   UNL     1     -11.371   8.088  15.561  0.00  0.00    +0.149 HD
BRANCH  20  21
ATOM     21  C   UNL     1     -12.232   7.373  13.319  0.00  0.00    +0.124 C 
BRANCH  21  23
ATOM     23  C   UNL     1     -11.103   8.340  12.999  0.00  0.00    +0.168 C 
BRANCH  23   3
ATOM      3  O   UNL     1     -11.603   9.671  13.010  0.00  0.00    -0.382 OA
ATOM     30  C   UNL     1     -11.983  10.096  11.710  0.00  0.00    +0.194 C 
ENDBRANCH  23   3
ENDBRANCH  21  23
ENDBRANCH  20  21
ENDBRANCH  14   4
ENDBRANCH   8  14
BRANCH  10  15
ATOM     15  C   UNL     1     -13.146   9.495  21.568  0.00  0.00    +0.103 C 
BRANCH  15  19
ATOM      1  O   UNL     1     -13.410  11.879  21.889  0.00  0.00    -0.276 OA
ATOM      5  N   UNL     1     -12.266  10.628  23.480  0.00  0.00    -0.311 N 
ATOM     19  C   UNL     1     -12.975  10.807  22.300  0.00  0.00    +0.214 C 
ATOM     33  H   UNL     1     -11.931   9.699  23.722  0.00  0.00    +0.149 HD
BRANCH   5  22
ATOM     22  C   UNL     1     -11.952  11.711  24.383  0.00  0.00    +0.139 C 
BRANCH  22  24
ATOM     24  C   UNL     1     -11.873  11.249  25.810  0.00  0.00    -0.030 A 
ATOM     25  C   UNL     1     -10.862  10.373  26.204  0.00  0.00    +0.006 A 
ATOM     26  C   UNL     1     -12.811  11.696  26.740  0.00  0.00    +0.006 A 
ATOM     27  C   UNL     1     -10.788   9.944  27.529  0.00  0.00    +0.019 A 
ATOM     28  C   UNL     1     -12.736  11.267  28.065  0.00  0.00    +0.019 A 
ATOM     29  C   UNL     1     -11.725  10.391  28.460  0.00  0.00    +0.052 A 
BRANCH  29  31
ATOM      6  N   UNL     1     -11.587   9.594  30.920  0.00  0.00    -0.191 NA
ATOM     31  C   UNL     1     -11.649   9.951  29.817  0.00  0.00    +0.099 C 
ENDBRANCH  29  31
ENDBRANCH  22  24
ENDBRANCH   5  22
ENDBRANCH  15  19
ENDBRANCH  10  15
TORSDOF 11
ENDMDL
MODEL 10
REMARK VINA RESULT:      -5.7     22.338     25.338
REMARK  Name = 38029350
REMARK  15 active torsions:
REMARK  status: ('A' for Active; 'I' for Inactive)
REMARK    1  A    between atoms: O_3  and  C_23
REMARK    2  A    between atoms: O_3  and  C_30
REMARK    3  A    between atoms: N_4  and  C_14
REMARK    4  A    between atoms: N_5  and  C_22
REMARK    5  A    between atoms: C_7  and  C_11
REMARK    6  A    between atoms: C_8  and  C_14
REMARK    7  A    between atoms: C_10  and  C_15
REMARK    8  A    between atoms: C_11  and  C_16
REMARK    9  A    between atoms: C_11  and  C_17
REMARK   10  A    between atoms: C_12  and  C_18
REMARK   11  A    between atoms: C_15  and  C_19
REMARK   12  A    between atoms: C_20  and  C_21
REMARK   13  A    between atoms: C_21  and  C_23
REMARK   14  A    between atoms: C_22  and  C_24
REMARK   15  A    between atoms: C_29  and  C_31
REMARK                            x       y       z     vdW  Elec       q    Type
REMARK                         _______ _______ _______ _____ _____    ______ ____
ROOT
ATOM      7  C   UNL     1      14.038   5.891   0.313  0.00  0.00    +0.000 C 
ATOM      8  C   UNL     1      14.060   4.345   0.219  0.00  0.00    +0.032 C 
ATOM      9  C   UNL     1      13.745   6.337   1.755  0.00  0.00    +0.012 C 
ATOM     10  C   UNL     1      12.398   5.797   2.269  0.00  0.00    +0.023 C 
ATOM     12  C   UNL     1      12.231   4.321   1.969  0.00  0.00    -0.073 C 
ATOM     13  C   UNL     1      12.993   3.686   1.060  0.00  0.00    -0.022 C 
ATOM     18  C   UNL     1      11.200   3.579   2.774  0.00  0.00    +0.039 C 
ENDROOT
BRANCH   7  11
ATOM     11  C   UNL     1      15.356   6.510  -0.163  0.00  0.00    -0.013 C 
ATOM     16  C   UNL     1      15.156   7.233  -1.491  0.00  0.00    +0.007 C 
ATOM     17  C   UNL     1      15.910   7.461   0.892  0.00  0.00    +0.007 C 
ENDBRANCH   7  11
BRANCH   8  14
ATOM     14  C   UNL     1      13.926   3.877  -1.234  0.00  0.00    +0.112 C 
BRANCH  14   4
ATOM      2  O   UNL     1      12.043   1.995  -2.348  0.00  0.00    -0.276 OA
ATOM      4  N   UNL     1      12.621   4.163  -1.741  0.00  0.00    -0.315 N 
ATOM     20  C   UNL     1      11.769   3.188  -2.265  0.00  0.00    +0.215 C 
ATOM     32  H   UNL     1      12.280   5.118  -1.669  0.00  0.00    +0.149 HD
BRANCH  20  21
ATOM     21  C   UNL     1      10.445   3.776  -2.726  0.00  0.00    +0.124 C 
BRANCH  21  23
ATOM     23  C   UNL     1      10.614   5.033  -3.566  0.00  0.00    +0.168 C 
BRANCH  23   3
ATOM      3  O   UNL     1      10.206   6.165  -2.810  0.00  0.00    -0.382 OA
ATOM     30  C   UNL     1       9.283   5.808  -1.792  0.00  0.00    +0.194 C 
ENDBRANCH  23   3
ENDBRANCH  21  23
ENDBRANCH  20  21
ENDBRANCH  14   4
ENDBRANCH   8  14
BRANCH  10  15
ATOM     15  C   UNL     1      11.226   6.607   1.703  0.00  0.00    +0.103 C 
BRANCH  15  19
ATOM      1  O   UNL     1      10.890   8.530   3.133  0.00  0.00    -0.276 OA
ATOM      5  N   UNL     1       9.432   6.725   3.279  0.00  0.00    -0.311 N 
ATOM     19  C   UNL     1      10.525   7.414   2.773  0.00  0.00    +0.214 C 
ATOM     33  H   UNL     1       9.225   5.795   2.926  0.00  0.00    +0.149 HD
BRANCH   5  22
ATOM     22  C   UNL     1       8.577   7.255   4.316  0.00  0.00    +0.139 C 
BRANCH  22  24
ATOM     24  C   UNL     1       8.901   6.675   5.663  0.00  0.00    -0.030 A 
ATOM     25  C   UNL     1       8.635   7.407   6.820  0.00  0.00    +0.006 A 
ATOM     26  C   UNL     1       9.468   5.404   5.756  0.00  0.00    +0.006 A 
ATOM     27  C   UNL     1       8.935   6.868   8.071  0.00  0.00    +0.019 A 
ATOM     28  C   UNL     1       9.768   4.865   7.007  0.00  0.00    +0.019 A 
ATOM     29  C   UNL     1       9.502   5.597   8.164  0.00  0.00    +0.052 A 
BRANCH  29  31
ATOM      6  N   UNL     1      10.060   4.597  10.487  0.00  0.00    -0.191 NA
ATOM     31  C   UNL     1       9.809   5.045   9.446  0.00  0.00    +0.099 C 
ENDBRANCH  29  31
ENDBRANCH  22  24
ENDBRANCH   5  22
ENDBRANCH  15  19
ENDBRANCH  10  15
TORSDOF 11
ENDMDL
