MODEL 1
REMARK VINA RESULT:      -6.7      0.000      0.000
REMARK  Name = 38028376
REMARK  13 active torsions:
REMARK  status: ('A' for Active; 'I' for Inactive)
REMARK    1  A    between atoms: O_3  and  C_24
REMARK    2  A    between atoms: O_3  and  C_32
REMARK    3  A    between atoms: N_4  and  C_14
REMARK    4  A    between atoms: N_5  and  C_21
REMARK    5  A    between atoms: C_7  and  C_11
REMARK    6  A    between atoms: C_8  and  C_14
REMARK    7  A    between atoms: C_10  and  C_15
REMARK    8  A    between atoms: C_11  and  C_16
REMARK    9  A    between atoms: C_11  and  C_17
REMARK   10  A    between atoms: C_12  and  C_18
REMARK   11  A    between atoms: C_15  and  C_19
REMARK   12  A    between atoms: C_20  and  C_22
REMARK   13  A    between atoms: C_21  and  C_23
REMARK                            x       y       z     vdW  Elec       q    Type
REMARK                         _______ _______ _______ _____ _____    ______ ____
ROOT
ATOM      7  C   UNL     1      -5.823 -10.558  15.419  0.00  0.00    +0.000 C 
ATOM      8  C   UNL     1      -6.594 -10.567  16.762  0.00  0.00    +0.032 C 
ATOM      9  C   UNL     1      -4.873 -11.763  15.338  0.00  0.00    +0.012 C 
ATOM     10  C   UNL     1      -3.849 -11.776  16.488  0.00  0.00    +0.023 C 
ATOM     12  C   UNL     1      -4.508 -11.521  17.830  0.00  0.00    -0.073 C 
ATOM     13  C   UNL     1      -5.740 -10.993  17.932  0.00  0.00    -0.022 C 
ATOM     18  C   UNL     1      -3.733 -11.930  19.051  0.00  0.00    +0.039 C 
ENDROOT
BRANCH   7  11
ATOM     11  C   UNL     1      -6.772 -10.565  14.216  0.00  0.00    -0.013 C 
ATOM     16  C   UNL     1      -6.182  -9.757  13.066  0.00  0.00    +0.007 C 
ATOM     17  C   UNL     1      -7.065 -11.997  13.777  0.00  0.00    +0.007 C 
ENDBRANCH   7  11
BRANCH   8  14
ATOM     14  C   UNL     1      -7.213  -9.194  17.053  0.00  0.00    +0.112 C 
BRANCH  14   4
ATOM      2  O   UNL     1      -9.801 -10.068  16.170  0.00  0.00    -0.270 OA
ATOM      4  N   UNL     1      -8.388  -9.328  17.856  0.00  0.00    -0.311 N 
ATOM     20  C   UNL     1      -9.611  -9.762  17.344  0.00  0.00    +0.248 C 
ATOM     34  H   UNL     1      -8.308  -9.084  18.836  0.00  0.00    +0.149 HD
BRANCH  20  22
ATOM     22  C   UNL     1     -10.743  -9.822  18.303  0.00  0.00    +0.078 A 
ATOM     24  C   UNL     1     -10.579 -10.381  19.570  0.00  0.00    +0.132 A 
ATOM     25  C   UNL     1     -11.984  -9.311  17.921  0.00  0.00    +0.017 A 
ATOM     26  C   UNL     1     -11.655 -10.430  20.457  0.00  0.00    +0.046 A 
ATOM     27  C   UNL     1     -13.060  -9.360  18.808  0.00  0.00    +0.001 A 
ATOM     29  C   UNL     1     -12.896  -9.919  20.075  0.00  0.00    +0.004 A 
BRANCH  24   3
ATOM      3  O   UNL     1      -9.375 -10.887  19.961  0.00  0.00    -0.494 OA
ATOM     32  C   UNL     1      -9.250 -12.307  19.995  0.00  0.00    +0.277 C 
ENDBRANCH  24   3
ENDBRANCH  20  22
ENDBRANCH  14   4
ENDBRANCH   8  14
BRANCH  10  15
ATOM     15  C   UNL     1      -2.719 -10.774  16.233  0.00  0.00    +0.103 C 
BRANCH  15  19
ATOM      1  O   UNL     1      -1.270 -12.076  14.798  0.00  0.00    -0.276 OA
ATOM      5  N   UNL     1      -2.176 -10.086  14.008  0.00  0.00    -0.310 N 
ATOM     19  C   UNL     1      -1.968 -11.078  14.956  0.00  0.00    +0.214 C 
ATOM     35  H   UNL     1      -2.775  -9.297  14.232  0.00  0.00    +0.149 HD
BRANCH   5  21
ATOM     21  C   UNL     1      -1.581 -10.115  12.692  0.00  0.00    +0.159 C 
BRANCH  21  23
ATOM      6  N   UNL     1      -2.836  -9.463  10.717  0.00  0.00    -0.258 NA
ATOM     23  C   UNL     1      -2.588 -10.434  11.626  0.00  0.00    +0.058 A 
ATOM     28  C   UNL     1      -3.200 -11.676  11.619  0.00  0.00    +0.025 A 
ATOM     30  C   UNL     1      -4.127 -11.940  10.618  0.00  0.00    +0.003 A 
ATOM     31  C   UNL     1      -3.744  -9.756   9.759  0.00  0.00    +0.111 A 
ATOM     33  C   UNL     1      -4.410 -10.967   9.666  0.00  0.00    +0.020 A 
ENDBRANCH  21  23
ENDBRANCH   5  21
ENDBRANCH  15  19
ENDBRANCH  10  15
TORSDOF 9
ENDMDL
MODEL 2
REMARK VINA RESULT:      -6.4      4.251      9.259
REMARK  Name = 38028376
REMARK  13 active torsions:
REMARK  status: ('A' for Active; 'I' for Inactive)
REMARK    1  A    between atoms: O_3  and  C_24
REMARK    2  A    between atoms: O_3  and  C_32
REMARK    3  A    between atoms: N_4  and  C_14
REMARK    4  A    between atoms: N_5  and  C_21
REMARK    5  A    between atoms: C_7  and  C_11
REMARK    6  A    between atoms: C_8  and  C_14
REMARK    7  A    between atoms: C_10  and  C_15
REMARK    8  A    between atoms: C_11  and  C_16
REMARK    9  A    between atoms: C_11  and  C_17
REMARK   10  A    between atoms: C_12  and  C_18
REMARK   11  A    between atoms: C_15  and  C_19
REMARK   12  A    between atoms: C_20  and  C_22
REMARK   13  A    between atoms: C_21  and  C_23
REMARK                            x       y       z     vdW  Elec       q    Type
REMARK                         _______ _______ _______ _____ _____    ______ ____
ROOT
ATOM      7  C   UNL     1      -5.275 -10.551  10.622  0.00  0.00    +0.000 C 
ATOM      8  C   UNL     1      -4.682  -9.604   9.550  0.00  0.00    +0.032 C 
ATOM      9  C   UNL     1      -4.776 -10.157  12.021  0.00  0.00    +0.012 C 
ATOM     10  C   UNL     1      -3.240 -10.203  12.125  0.00  0.00    +0.023 C 
ATOM     12  C   UNL     1      -2.576  -9.514  10.950  0.00  0.00    -0.073 C 
ATOM     13  C   UNL     1      -3.239  -9.242   9.813  0.00  0.00    -0.022 C 
ATOM     18  C   UNL     1      -1.141  -9.103  11.131  0.00  0.00    +0.039 C 
ENDROOT
BRANCH   7  11
ATOM     11  C   UNL     1      -6.807 -10.550  10.599  0.00  0.00    -0.013 C 
ATOM     16  C   UNL     1      -7.357 -11.537  11.623  0.00  0.00    +0.007 C 
ATOM     17  C   UNL     1      -7.342  -9.145  10.861  0.00  0.00    +0.007 C 
ENDBRANCH   7  11
BRANCH   8  14
ATOM     14  C   UNL     1      -4.810 -10.208   8.146  0.00  0.00    +0.112 C 
BRANCH  14   4
ATOM      2  O   UNL     1      -6.577 -11.230   6.128  0.00  0.00    -0.270 OA
ATOM      4  N   UNL     1      -5.723  -9.451   7.350  0.00  0.00    -0.311 N 
ATOM     20  C   UNL     1      -6.550 -10.030   6.386  0.00  0.00    +0.248 C 
ATOM     34  H   UNL     1      -5.749  -8.449   7.502  0.00  0.00    +0.149 HD
BRANCH  20  22
ATOM     22  C   UNL     1      -7.424  -9.102   5.624  0.00  0.00    +0.078 A 
ATOM     24  C   UNL     1      -8.155  -8.110   6.276  0.00  0.00    +0.132 A 
ATOM     25  C   UNL     1      -7.508  -9.234   4.238  0.00  0.00    +0.017 A 
ATOM     26  C   UNL     1      -8.972  -7.249   5.542  0.00  0.00    +0.046 A 
ATOM     27  C   UNL     1      -8.325  -8.373   3.504  0.00  0.00    +0.001 A 
ATOM     29  C   UNL     1      -9.057  -7.381   4.156  0.00  0.00    +0.004 A 
BRANCH  24   3
ATOM      3  O   UNL     1      -8.087  -7.966   7.629  0.00  0.00    -0.494 OA
ATOM     32  C   UNL     1      -8.014  -6.635   8.136  0.00  0.00    +0.277 C 
ENDBRANCH  24   3
ENDBRANCH  20  22
ENDBRANCH  14   4
ENDBRANCH   8  14
BRANCH  10  15
ATOM     15  C   UNL     1      -2.739 -11.643  12.271  0.00  0.00    +0.103 C 
BRANCH  15  19
ATOM      1  O   UNL     1      -2.132 -13.125  14.085  0.00  0.00    -0.276 OA
ATOM      5  N   UNL     1      -2.554 -10.883  14.531  0.00  0.00    -0.310 N 
ATOM     19  C   UNL     1      -2.437 -11.997  13.711  0.00  0.00    +0.214 C 
ATOM     35  H   UNL     1      -2.811  -9.988  14.126  0.00  0.00    +0.149 HD
BRANCH   5  21
ATOM     21  C   UNL     1      -2.324 -10.926  15.956  0.00  0.00    +0.159 C 
BRANCH  21  23
ATOM      6  N   UNL     1      -3.620 -11.486  17.934  0.00  0.00    -0.258 NA
ATOM     23  C   UNL     1      -3.605 -10.858  16.736  0.00  0.00    +0.058 A 
ATOM     28  C   UNL     1      -4.685 -10.170  16.208  0.00  0.00    +0.025 A 
ATOM     30  C   UNL     1      -5.856 -10.125  16.955  0.00  0.00    +0.003 A 
ATOM     31  C   UNL     1      -4.776 -11.420  18.631  0.00  0.00    +0.111 A 
ATOM     33  C   UNL     1      -5.911 -10.759  18.191  0.00  0.00    +0.020 A 
ENDBRANCH  21  23
ENDBRANCH   5  21
ENDBRANCH  15  19
ENDBRANCH  10  15
TORSDOF 9
ENDMDL
MODEL 3
REMARK VINA RESULT:      -6.3      3.224      8.677
REMARK  Name = 38028376
REMARK  13 active torsions:
REMARK  status: ('A' for Active; 'I' for Inactive)
REMARK    1  A    between atoms: O_3  and  C_24
REMARK    2  A    between atoms: O_3  and  C_32
REMARK    3  A    between atoms: N_4  and  C_14
REMARK    4  A    between atoms: N_5  and  C_21
REMARK    5  A    between atoms: C_7  and  C_11
REMARK    6  A    between atoms: C_8  and  C_14
REMARK    7  A    between atoms: C_10  and  C_15
REMARK    8  A    between atoms: C_11  and  C_16
REMARK    9  A    between atoms: C_11  and  C_17
REMARK   10  A    between atoms: C_12  and  C_18
REMARK   11  A    between atoms: C_15  and  C_19
REMARK   12  A    between atoms: C_20  and  C_22
REMARK   13  A    between atoms: C_21  and  C_23
REMARK                            x       y       z     vdW  Elec       q    Type
REMARK                         _______ _______ _______ _____ _____    ______ ____
ROOT
ATOM      7  C   UNL     1      -6.962 -10.805  17.873  0.00  0.00    +0.000 C 
ATOM      8  C   UNL     1      -6.308 -11.141  16.510  0.00  0.00    +0.032 C 
ATOM      9  C   UNL     1      -8.492 -10.893  17.770  0.00  0.00    +0.012 C 
ATOM     10  C   UNL     1      -9.060  -9.934  16.707  0.00  0.00    +0.023 C 
ATOM     12  C   UNL     1      -8.288 -10.016  15.405  0.00  0.00    -0.073 C 
ATOM     13  C   UNL     1      -7.065 -10.572  15.334  0.00  0.00    -0.022 C 
ATOM     18  C   UNL     1      -8.974  -9.486  14.178  0.00  0.00    +0.039 C 
ENDROOT
BRANCH   7  11
ATOM     11  C   UNL     1      -6.464 -11.731  18.988  0.00  0.00    -0.013 C 
ATOM     16  C   UNL     1      -5.786 -10.924  20.089  0.00  0.00    +0.007 C 
ATOM     17  C   UNL     1      -7.618 -12.554  19.552  0.00  0.00    +0.007 C 
ENDBRANCH   7  11
BRANCH   8  14
ATOM     14  C   UNL     1      -4.852 -10.662  16.461  0.00  0.00    +0.112 C 
BRANCH  14   4
ATOM      2  O   UNL     1      -3.098 -12.065  14.674  0.00  0.00    -0.270 OA
ATOM      4  N   UNL     1      -4.493 -10.268  15.135  0.00  0.00    -0.311 N 
ATOM     20  C   UNL     1      -3.629 -11.012  14.331  0.00  0.00    +0.248 C 
ATOM     34  H   UNL     1      -4.887  -9.402  14.788  0.00  0.00    +0.149 HD
BRANCH  20  22
ATOM     22  C   UNL     1      -3.334 -10.454  12.987  0.00  0.00    +0.078 A 
ATOM     24  C   UNL     1      -4.365 -10.070  12.130  0.00  0.00    +0.132 A 
ATOM     25  C   UNL     1      -2.006 -10.316  12.586  0.00  0.00    +0.017 A 
ATOM     26  C   UNL     1      -4.068  -9.549  10.870  0.00  0.00    +0.046 A 
ATOM     27  C   UNL     1      -1.709  -9.794  11.326  0.00  0.00    +0.001 A 
ATOM     29  C   UNL     1      -2.740  -9.411  10.469  0.00  0.00    +0.004 A 
BRANCH  24   3
ATOM      3  O   UNL     1      -5.670 -10.199  12.503  0.00  0.00    -0.494 OA
ATOM     32  C   UNL     1      -6.538 -10.877  11.598  0.00  0.00    +0.277 C 
ENDBRANCH  24   3
ENDBRANCH  20  22
ENDBRANCH  14   4
ENDBRANCH   8  14
BRANCH  10  15
ATOM     15  C   UNL     1      -9.104  -8.495  17.229  0.00  0.00    +0.103 C 
BRANCH  15  19
ATOM      1  O   UNL     1     -11.496  -8.303  17.543  0.00  0.00    -0.276 OA
ATOM      5  N   UNL     1     -10.385  -6.737  16.234  0.00  0.00    -0.310 N 
ATOM     19  C   UNL     1     -10.466  -7.863  17.041  0.00  0.00    +0.214 C 
ATOM     35  H   UNL     1      -9.482  -6.449  15.866  0.00  0.00    +0.149 HD
BRANCH   5  21
ATOM     21  C   UNL     1     -11.532  -5.933  15.883  0.00  0.00    +0.159 C 
BRANCH  21  23
ATOM      6  N   UNL     1     -12.037  -7.379  13.996  0.00  0.00    -0.258 NA
ATOM     23  C   UNL     1     -11.923  -6.107  14.444  0.00  0.00    +0.058 A 
ATOM     28  C   UNL     1     -12.145  -4.987  13.661  0.00  0.00    +0.025 A 
ATOM     30  C   UNL     1     -12.507  -5.182  12.333  0.00  0.00    +0.003 A 
ATOM     31  C   UNL     1     -12.390  -7.529  12.700  0.00  0.00    +0.111 A 
ATOM     33  C   UNL     1     -12.634  -6.474  11.836  0.00  0.00    +0.020 A 
ENDBRANCH  21  23
ENDBRANCH   5  21
ENDBRANCH  15  19
ENDBRANCH  10  15
TORSDOF 9
ENDMDL
MODEL 4
REMARK VINA RESULT:      -6.2      2.643      8.247
REMARK  Name = 38028376
REMARK  13 active torsions:
REMARK  status: ('A' for Active; 'I' for Inactive)
REMARK    1  A    between atoms: O_3  and  C_24
REMARK    2  A    between atoms: O_3  and  C_32
REMARK    3  A    between atoms: N_4  and  C_14
REMARK    4  A    between atoms: N_5  and  C_21
REMARK    5  A    between atoms: C_7  and  C_11
REMARK    6  A    between atoms: C_8  and  C_14
REMARK    7  A    between atoms: C_10  and  C_15
REMARK    8  A    between atoms: C_11  and  C_16
REMARK    9  A    between atoms: C_11  and  C_17
REMARK   10  A    between atoms: C_12  and  C_18
REMARK   11  A    between atoms: C_15  and  C_19
REMARK   12  A    between atoms: C_20  and  C_22
REMARK   13  A    between atoms: C_21  and  C_23
REMARK                            x       y       z     vdW  Elec       q    Type
REMARK                         _______ _______ _______ _____ _____    ______ ____
ROOT
ATOM      7  C   UNL     1      -4.033 -11.501  15.607  0.00  0.00    +0.000 C 
ATOM      8  C   UNL     1      -2.545 -11.518  15.180  0.00  0.00    +0.032 C 
ATOM      9  C   UNL     1      -4.459 -12.884  16.125  0.00  0.00    +0.012 C 
ATOM     10  C   UNL     1      -4.267 -13.986  15.066  0.00  0.00    +0.023 C 
ATOM     12  C   UNL     1      -2.905 -13.900  14.405  0.00  0.00    -0.073 C 
ATOM     13  C   UNL     1      -2.144 -12.794  14.478  0.00  0.00    -0.022 C 
ATOM     18  C   UNL     1      -2.420 -15.133  13.695  0.00  0.00    +0.039 C 
ENDROOT
BRANCH   7  11
ATOM     11  C   UNL     1      -4.308 -10.440  16.677  0.00  0.00    -0.013 C 
ATOM     16  C   UNL     1      -5.486  -9.563  16.270  0.00  0.00    +0.007 C 
ATOM     17  C   UNL     1      -4.567 -11.102  18.028  0.00  0.00    +0.007 C 
ENDBRANCH   7  11
BRANCH   8  14
ATOM     14  C   UNL     1      -2.211 -10.317  14.287  0.00  0.00    +0.112 C 
BRANCH  14   4
ATOM      2  O   UNL     1      -1.133  -9.820  11.673  0.00  0.00    -0.270 OA
ATOM      4  N   UNL     1      -2.914 -10.398  13.046  0.00  0.00    -0.311 N 
ATOM     20  C   UNL     1      -2.311 -10.139  11.815  0.00  0.00    +0.248 C 
ATOM     34  H   UNL     1      -3.895 -10.649  13.086  0.00  0.00    +0.149 HD
BRANCH  20  22
ATOM     22  C   UNL     1      -3.184 -10.241  10.618  0.00  0.00    +0.078 A 
ATOM     24  C   UNL     1      -3.662 -11.477  10.184  0.00  0.00    +0.132 A 
ATOM     25  C   UNL     1      -3.525  -9.079   9.926  0.00  0.00    +0.017 A 
ATOM     26  C   UNL     1      -4.481 -11.552   9.056  0.00  0.00    +0.046 A 
ATOM     27  C   UNL     1      -4.344  -9.154   8.798  0.00  0.00    +0.001 A 
ATOM     29  C   UNL     1      -4.822 -10.390   8.364  0.00  0.00    +0.004 A 
BRANCH  24   3
ATOM      3  O   UNL     1      -3.339 -12.624  10.846  0.00  0.00    -0.494 OA
ATOM     32  C   UNL     1      -4.031 -13.810  10.462  0.00  0.00    +0.277 C 
ENDBRANCH  24   3
ENDBRANCH  20  22
ENDBRANCH  14   4
ENDBRANCH   8  14
BRANCH  10  15
ATOM     15  C   UNL     1      -5.387 -13.951  14.022  0.00  0.00    +0.103 C 
BRANCH  15  19
ATOM      1  O   UNL     1      -7.184 -14.888  15.344  0.00  0.00    -0.276 OA
ATOM      5  N   UNL     1      -7.454 -12.798  14.365  0.00  0.00    -0.310 N 
ATOM     19  C   UNL     1      -6.759 -13.962  14.660  0.00  0.00    +0.214 C 
ATOM     35  H   UNL     1      -7.014 -12.085  13.790  0.00  0.00    +0.149 HD
BRANCH   5  21
ATOM     21  C   UNL     1      -8.791 -12.535  14.842  0.00  0.00    +0.159 C 
BRANCH  21  23
ATOM      6  N   UNL     1      -9.261 -10.239  15.483  0.00  0.00    -0.258 NA
ATOM     23  C   UNL     1      -8.815 -11.452  15.882  0.00  0.00    +0.058 A 
ATOM     28  C   UNL     1      -8.393 -11.739  17.170  0.00  0.00    +0.025 A 
ATOM     30  C   UNL     1      -8.429 -10.714  18.109  0.00  0.00    +0.003 A 
ATOM     31  C   UNL     1      -9.281  -9.268  16.424  0.00  0.00    +0.111 A 
ATOM     33  C   UNL     1      -8.881  -9.453  17.737  0.00  0.00    +0.020 A 
ENDBRANCH  21  23
ENDBRANCH   5  21
ENDBRANCH  15  19
ENDBRANCH  10  15
TORSDOF 9
ENDMDL
MODEL 5
REMARK VINA RESULT:      -6.2      3.455      6.340
REMARK  Name = 38028376
REMARK  13 active torsions:
REMARK  status: ('A' for Active; 'I' for Inactive)
REMARK    1  A    between atoms: O_3  and  C_24
REMARK    2  A    between atoms: O_3  and  C_32
REMARK    3  A    between atoms: N_4  and  C_14
REMARK    4  A    between atoms: N_5  and  C_21
REMARK    5  A    between atoms: C_7  and  C_11
REMARK    6  A    between atoms: C_8  and  C_14
REMARK    7  A    between atoms: C_10  and  C_15
REMARK    8  A    between atoms: C_11  and  C_16
REMARK    9  A    between atoms: C_11  and  C_17
REMARK   10  A    between atoms: C_12  and  C_18
REMARK   11  A    between atoms: C_15  and  C_19
REMARK   12  A    between atoms: C_20  and  C_22
REMARK   13  A    between atoms: C_21  and  C_23
REMARK                            x       y       z     vdW  Elec       q    Type
REMARK                         _______ _______ _______ _____ _____    ______ ____
ROOT
ATOM      7  C   UNL     1      -4.261 -12.464  12.912  0.00  0.00    +0.000 C 
ATOM      8  C   UNL     1      -2.720 -12.380  12.788  0.00  0.00    +0.032 C 
ATOM      9  C   UNL     1      -4.928 -12.062  11.588  0.00  0.00    +0.012 C 
ATOM     10  C   UNL     1      -4.550 -10.632  11.156  0.00  0.00    +0.023 C 
ATOM     12  C   UNL     1      -3.058 -10.388  11.264  0.00  0.00    -0.073 C 
ATOM     13  C   UNL     1      -2.254 -11.187  11.987  0.00  0.00    -0.022 C 
ATOM     18  C   UNL     1      -2.505  -9.228  10.484  0.00  0.00    +0.039 C 
ENDROOT
BRANCH   7  11
ATOM     11  C   UNL     1      -4.725 -13.865  13.321  0.00  0.00    -0.013 C 
ATOM     16  C   UNL     1      -5.978 -13.782  14.186  0.00  0.00    +0.007 C 
ATOM     17  C   UNL     1      -4.977 -14.724  12.085  0.00  0.00    +0.007 C 
ENDBRANCH   7  11
BRANCH   8  14
ATOM     14  C   UNL     1      -2.054 -12.359  14.170  0.00  0.00    +0.112 C 
BRANCH  14   4
ATOM      2  O   UNL     1      -1.910 -10.435  16.295  0.00  0.00    -0.270 OA
ATOM      4  N   UNL     1      -3.025 -12.149  15.197  0.00  0.00    -0.311 N 
ATOM     20  C   UNL     1      -2.875 -11.188  16.197  0.00  0.00    +0.248 C 
ATOM     34  H   UNL     1      -3.847 -12.741  15.184  0.00  0.00    +0.149 HD
BRANCH  20  22
ATOM     22  C   UNL     1      -3.961 -11.112  17.207  0.00  0.00    +0.078 A 
ATOM     24  C   UNL     1      -5.185 -10.519  16.899  0.00  0.00    +0.132 A 
ATOM     25  C   UNL     1      -3.744 -11.643  18.478  0.00  0.00    +0.017 A 
ATOM     26  C   UNL     1      -6.193 -10.456  17.861  0.00  0.00    +0.046 A 
ATOM     27  C   UNL     1      -4.752 -11.580  19.441  0.00  0.00    +0.001 A 
ATOM     29  C   UNL     1      -5.976 -10.987  19.133  0.00  0.00    +0.004 A 
BRANCH  24   3
ATOM      3  O   UNL     1      -5.416  -9.993  15.663  0.00  0.00    -0.494 OA
ATOM     32  C   UNL     1      -6.732 -10.138  15.132  0.00  0.00    +0.277 C 
ENDBRANCH  24   3
ENDBRANCH  20  22
ENDBRANCH  14   4
ENDBRANCH   8  14
BRANCH  10  15
ATOM     15  C   UNL     1      -5.337  -9.588  11.954  0.00  0.00    +0.103 C 
BRANCH  15  19
ATOM      1  O   UNL     1      -7.750  -9.520  11.792  0.00  0.00    -0.276 OA
ATOM      5  N   UNL     1      -6.462  -8.602  10.089  0.00  0.00    -0.310 N 
ATOM     19  C   UNL     1      -6.658  -9.249  11.301  0.00  0.00    +0.214 C 
ATOM     35  H   UNL     1      -5.517  -8.420   9.766  0.00  0.00    +0.149 HD
BRANCH   5  21
ATOM     21  C   UNL     1      -7.549  -8.162   9.245  0.00  0.00    +0.159 C 
BRANCH  21  23
ATOM      6  N   UNL     1      -7.973  -7.763   6.886  0.00  0.00    -0.258 NA
ATOM     23  C   UNL     1      -7.320  -8.513   7.804  0.00  0.00    +0.058 A 
ATOM     28  C   UNL     1      -6.471  -9.561   7.487  0.00  0.00    +0.025 A 
ATOM     30  C   UNL     1      -6.279  -9.860   6.143  0.00  0.00    +0.003 A 
ATOM     31  C   UNL     1      -7.761  -8.085   5.590  0.00  0.00    +0.111 A 
ATOM     33  C   UNL     1      -6.933  -9.112   5.170  0.00  0.00    +0.020 A 
ENDBRANCH  21  23
ENDBRANCH   5  21
ENDBRANCH  15  19
ENDBRANCH  10  15
TORSDOF 9
ENDMDL
MODEL 6
REMARK VINA RESULT:      -6.1     25.276     28.413
REMARK  Name = 38028376
REMARK  13 active torsions:
REMARK  status: ('A' for Active; 'I' for Inactive)
REMARK    1  A    between atoms: O_3  and  C_24
REMARK    2  A    between atoms: O_3  and  C_32
REMARK    3  A    between atoms: N_4  and  C_14
REMARK    4  A    between atoms: N_5  and  C_21
REMARK    5  A    between atoms: C_7  and  C_11
REMARK    6  A    between atoms: C_8  and  C_14
REMARK    7  A    between atoms: C_10  and  C_15
REMARK    8  A    between atoms: C_11  and  C_16
REMARK    9  A    between atoms: C_11  and  C_17
REMARK   10  A    between atoms: C_12  and  C_18
REMARK   11  A    between atoms: C_15  and  C_19
REMARK   12  A    between atoms: C_20  and  C_22
REMARK   13  A    between atoms: C_21  and  C_23
REMARK                            x       y       z     vdW  Elec       q    Type
REMARK                         _______ _______ _______ _____ _____    ______ ____
ROOT
ATOM      7  C   UNL     1       8.779   8.912   4.699  0.00  0.00    +0.000 C 
ATOM      8  C   UNL     1       8.692   8.717   6.233  0.00  0.00    +0.032 C 
ATOM      9  C   UNL     1       8.343   7.632   3.970  0.00  0.00    +0.012 C 
ATOM     10  C   UNL     1       9.208   6.418   4.357  0.00  0.00    +0.023 C 
ATOM     12  C   UNL     1       9.391   6.313   5.858  0.00  0.00    -0.073 C 
ATOM     13  C   UNL     1       9.142   7.347   6.682  0.00  0.00    -0.022 C 
ATOM     18  C   UNL     1       9.823   4.977   6.395  0.00  0.00    +0.039 C 
ENDROOT
BRANCH   7  11
ATOM     11  C   UNL     1       7.927  10.094   4.226  0.00  0.00    -0.013 C 
ATOM     16  C   UNL     1       8.756  11.038   3.362  0.00  0.00    +0.007 C 
ATOM     17  C   UNL     1       6.703   9.596   3.462  0.00  0.00    +0.007 C 
ENDBRANCH   7  11
BRANCH   8  14
ATOM     14  C   UNL     1       9.501   9.789   6.974  0.00  0.00    +0.112 C 
BRANCH  14   4
ATOM      2  O   UNL     1      11.699  10.683   8.590  0.00  0.00    -0.270 OA
ATOM      4  N   UNL     1      10.890   9.685   6.656  0.00  0.00    -0.311 N 
ATOM     20  C   UNL     1      11.898  10.148   7.502  0.00  0.00    +0.248 C 
ATOM     34  H   UNL     1      11.131   9.261   5.768  0.00  0.00    +0.149 HD
BRANCH  20  22
ATOM     22  C   UNL     1      13.292   9.990   7.015  0.00  0.00    +0.078 A 
ATOM     24  C   UNL     1      13.735   8.776   6.492  0.00  0.00    +0.132 A 
ATOM     25  C   UNL     1      14.163  11.077   7.087  0.00  0.00    +0.017 A 
ATOM     26  C   UNL     1      15.048   8.646   6.041  0.00  0.00    +0.046 A 
ATOM     27  C   UNL     1      15.477  10.948   6.635  0.00  0.00    +0.001 A 
ATOM     29  C   UNL     1      15.919   9.733   6.112  0.00  0.00    +0.004 A 
BRANCH  24   3
ATOM      3  O   UNL     1      12.899   7.701   6.416  0.00  0.00    -0.494 OA
ATOM     32  C   UNL     1      13.176   6.602   7.281  0.00  0.00    +0.277 C 
ENDBRANCH  24   3
ENDBRANCH  20  22
ENDBRANCH  14   4
ENDBRANCH   8  14
BRANCH  10  15
ATOM     15  C   UNL     1      10.562   6.453   3.641  0.00  0.00    +0.103 C 
BRANCH  15  19
ATOM      1  O   UNL     1      10.006   5.332   1.569  0.00  0.00    -0.276 OA
ATOM      5  N   UNL     1      11.639   4.431   2.956  0.00  0.00    -0.310 N 
ATOM     19  C   UNL     1      10.679   5.366   2.595  0.00  0.00    +0.214 C 
ATOM     35  H   UNL     1      12.148   4.547   3.828  0.00  0.00    +0.149 HD
BRANCH   5  21
ATOM     21  C   UNL     1      11.964   3.281   2.145  0.00  0.00    +0.159 C 
BRANCH  21  23
ATOM      6  N   UNL     1      12.748   3.766  -0.103  0.00  0.00    -0.258 NA
ATOM     23  C   UNL     1      13.087   3.565   1.191  0.00  0.00    +0.058 A 
ATOM     28  C   UNL     1      14.388   3.609   1.667  0.00  0.00    +0.025 A 
ATOM     30  C   UNL     1      15.405   3.875   0.758  0.00  0.00    +0.003 A 
ATOM     31  C   UNL     1      13.764   4.022  -0.957  0.00  0.00    +0.111 A 
ATOM     33  C   UNL     1      15.096   4.088  -0.580  0.00  0.00    +0.020 A 
ENDBRANCH  21  23
ENDBRANCH   5  21
ENDBRANCH  15  19
ENDBRANCH  10  15
TORSDOF 9
ENDMDL
MODEL 7
REMARK VINA RESULT:      -5.8      2.300      3.846
REMARK  Name = 38028376
REMARK  13 active torsions:
REMARK  status: ('A' for Active; 'I' for Inactive)
REMARK    1  A    between atoms: O_3  and  C_24
REMARK    2  A    between atoms: O_3  and  C_32
REMARK    3  A    between atoms: N_4  and  C_14
REMARK    4  A    between atoms: N_5  and  C_21
REMARK    5  A    between atoms: C_7  and  C_11
REMARK    6  A    between atoms: C_8  and  C_14
REMARK    7  A    between atoms: C_10  and  C_15
REMARK    8  A    between atoms: C_11  and  C_16
REMARK    9  A    between atoms: C_11  and  C_17
REMARK   10  A    between atoms: C_12  and  C_18
REMARK   11  A    between atoms: C_15  and  C_19
REMARK   12  A    between atoms: C_20  and  C_22
REMARK   13  A    between atoms: C_21  and  C_23
REMARK                            x       y       z     vdW  Elec       q    Type
REMARK                         _______ _______ _______ _____ _____    ______ ____
ROOT
ATOM      7  C   UNL     1      -4.933 -12.306  15.968  0.00  0.00    +0.000 C 
ATOM      8  C   UNL     1      -4.173 -11.755  17.200  0.00  0.00    +0.032 C 
ATOM      9  C   UNL     1      -3.944 -12.704  14.861  0.00  0.00    +0.012 C 
ATOM     10  C   UNL     1      -3.072 -11.520  14.406  0.00  0.00    +0.023 C 
ATOM     12  C   UNL     1      -2.498 -10.758  15.584  0.00  0.00    -0.073 C 
ATOM     13  C   UNL     1      -2.995 -10.886  16.828  0.00  0.00    -0.022 C 
ATOM     18  C   UNL     1      -1.311  -9.879  15.308  0.00  0.00    +0.039 C 
ENDROOT
BRANCH   7  11
ATOM     11  C   UNL     1      -5.814 -13.505  16.332  0.00  0.00    -0.013 C 
ATOM     16  C   UNL     1      -6.441 -14.106  15.078  0.00  0.00    +0.007 C 
ATOM     17  C   UNL     1      -5.001 -14.553  17.087  0.00  0.00    +0.007 C 
ENDBRANCH   7  11
BRANCH   8  14
ATOM     14  C   UNL     1      -5.113 -10.973  18.125  0.00  0.00    +0.112 C 
BRANCH  14   4
ATOM      2  O   UNL     1      -7.898 -10.728  18.776  0.00  0.00    -0.270 OA
ATOM      4  N   UNL     1      -6.107 -10.279  17.369  0.00  0.00    -0.311 N 
ATOM     20  C   UNL     1      -7.445 -10.210  17.759  0.00  0.00    +0.248 C 
ATOM     34  H   UNL     1      -5.807  -9.832  16.510  0.00  0.00    +0.149 HD
BRANCH  20  22
ATOM     22  C   UNL     1      -8.360  -9.473  16.850  0.00  0.00    +0.078 A 
ATOM     24  C   UNL     1      -8.494  -9.846  15.513  0.00  0.00    +0.132 A 
ATOM     25  C   UNL     1      -9.090  -8.395  17.350  0.00  0.00    +0.017 A 
ATOM     26  C   UNL     1      -9.357  -9.141  14.675  0.00  0.00    +0.046 A 
ATOM     27  C   UNL     1      -9.954  -7.690  16.512  0.00  0.00    +0.001 A 
ATOM     29  C   UNL     1     -10.087  -8.063  15.174  0.00  0.00    +0.004 A 
BRANCH  24   3
ATOM      3  O   UNL     1      -7.787 -10.895  15.006  0.00  0.00    -0.494 OA
ATOM     32  C   UNL     1      -7.567 -10.907  13.597  0.00  0.00    +0.277 C 
ENDBRANCH  24   3
ENDBRANCH  20  22
ENDBRANCH  14   4
ENDBRANCH   8  14
BRANCH  10  15
ATOM     15  C   UNL     1      -3.851 -10.585  13.475  0.00  0.00    +0.103 C 
BRANCH  15  19
ATOM      1  O   UNL     1      -2.029 -10.814  11.899  0.00  0.00    -0.276 OA
ATOM      5  N   UNL     1      -3.985  -9.745  11.240  0.00  0.00    -0.310 N 
ATOM     19  C   UNL     1      -3.164 -10.412  12.139  0.00  0.00    +0.214 C 
ATOM     35  H   UNL     1      -4.913  -9.453  11.532  0.00  0.00    +0.149 HD
BRANCH   5  21
ATOM     21  C   UNL     1      -3.588  -9.440   9.886  0.00  0.00    +0.159 C 
BRANCH  21  23
ATOM      6  N   UNL     1      -4.218 -11.602   8.974  0.00  0.00    -0.258 NA
ATOM     23  C   UNL     1      -4.344 -10.258   8.880  0.00  0.00    +0.058 A 
ATOM     28  C   UNL     1      -5.119  -9.617   7.927  0.00  0.00    +0.025 A 
ATOM     30  C   UNL     1      -5.808 -10.404   7.011  0.00  0.00    +0.003 A 
ATOM     31  C   UNL     1      -4.903 -12.334   8.066  0.00  0.00    +0.111 A 
ATOM     33  C   UNL     1      -5.703 -11.789   7.076  0.00  0.00    +0.020 A 
ENDBRANCH  21  23
ENDBRANCH   5  21
ENDBRANCH  15  19
ENDBRANCH  10  15
TORSDOF 9
ENDMDL
MODEL 8
REMARK VINA RESULT:      -5.8      3.353      6.504
REMARK  Name = 38028376
REMARK  13 active torsions:
REMARK  status: ('A' for Active; 'I' for Inactive)
REMARK    1  A    between atoms: O_3  and  C_24
REMARK    2  A    between atoms: O_3  and  C_32
REMARK    3  A    between atoms: N_4  and  C_14
REMARK    4  A    between atoms: N_5  and  C_21
REMARK    5  A    between atoms: C_7  and  C_11
REMARK    6  A    between atoms: C_8  and  C_14
REMARK    7  A    between atoms: C_10  and  C_15
REMARK    8  A    between atoms: C_11  and  C_16
REMARK    9  A    between atoms: C_11  and  C_17
REMARK   10  A    between atoms: C_12  and  C_18
REMARK   11  A    between atoms: C_15  and  C_19
REMARK   12  A    between atoms: C_20  and  C_22
REMARK   13  A    between atoms: C_21  and  C_23
REMARK                            x       y       z     vdW  Elec       q    Type
REMARK                         _______ _______ _______ _____ _____    ______ ____
ROOT
ATOM      7  C   UNL     1      -3.386 -13.170  12.406  0.00  0.00    +0.000 C 
ATOM      8  C   UNL     1      -2.051 -12.499  12.812  0.00  0.00    +0.032 C 
ATOM      9  C   UNL     1      -3.705 -12.881  10.930  0.00  0.00    +0.012 C 
ATOM     10  C   UNL     1      -3.809 -11.371  10.643  0.00  0.00    +0.023 C 
ATOM     12  C   UNL     1      -2.653 -10.601  11.250  0.00  0.00    -0.073 C 
ATOM     13  C   UNL     1      -1.870 -11.127  12.208  0.00  0.00    -0.022 C 
ATOM     18  C   UNL     1      -2.390  -9.229  10.696  0.00  0.00    +0.039 C 
ENDROOT
BRANCH   7  11
ATOM     11  C   UNL     1      -3.359 -14.683  12.642  0.00  0.00    -0.013 C 
ATOM     16  C   UNL     1      -4.778 -15.235  12.731  0.00  0.00    +0.007 C 
ATOM     17  C   UNL     1      -2.575 -15.382  11.535  0.00  0.00    +0.007 C 
ENDBRANCH   7  11
BRANCH   8  14
ATOM     14  C   UNL     1      -1.919 -12.408  14.337  0.00  0.00    +0.112 C 
BRANCH  14   4
ATOM      2  O   UNL     1      -2.209 -10.256  16.215  0.00  0.00    -0.270 OA
ATOM      4  N   UNL     1      -3.138 -11.947  14.924  0.00  0.00    -0.311 N 
ATOM     20  C   UNL     1      -3.189 -10.890  15.833  0.00  0.00    +0.248 C 
ATOM     34  H   UNL     1      -3.989 -12.430  14.661  0.00  0.00    +0.149 HD
BRANCH  20  22
ATOM     22  C   UNL     1      -4.530 -10.549  16.373  0.00  0.00    +0.078 A 
ATOM     24  C   UNL     1      -4.860 -10.827  17.699  0.00  0.00    +0.132 A 
ATOM     25  C   UNL     1      -5.466  -9.945  15.534  0.00  0.00    +0.017 A 
ATOM     26  C   UNL     1      -6.125 -10.500  18.188  0.00  0.00    +0.046 A 
ATOM     27  C   UNL     1      -6.732  -9.618  16.022  0.00  0.00    +0.001 A 
ATOM     29  C   UNL     1      -7.061  -9.896  17.349  0.00  0.00    +0.004 A 
BRANCH  24   3
ATOM      3  O   UNL     1      -3.959 -11.418  18.534  0.00  0.00    -0.494 OA
ATOM     32  C   UNL     1      -4.236 -12.757  18.941  0.00  0.00    +0.277 C 
ENDBRANCH  24   3
ENDBRANCH  20  22
ENDBRANCH  14   4
ENDBRANCH   8  14
BRANCH  10  15
ATOM     15  C   UNL     1      -5.153 -10.810  11.119  0.00  0.00    +0.103 C 
BRANCH  15  19
ATOM      1  O   UNL     1      -7.133 -11.891  10.245  0.00  0.00    -0.276 OA
ATOM      5  N   UNL     1      -6.135 -10.177   9.033  0.00  0.00    -0.310 N 
ATOM     19  C   UNL     1      -6.256 -11.043  10.111  0.00  0.00    +0.214 C 
ATOM     35  H   UNL     1      -5.374  -9.504   9.014  0.00  0.00    +0.149 HD
BRANCH   5  21
ATOM     21  C   UNL     1      -7.052 -10.174   7.917  0.00  0.00    +0.159 C 
BRANCH  21  23
ATOM      6  N   UNL     1      -8.262  -8.320   8.919  0.00  0.00    -0.258 NA
ATOM     23  C   UNL     1      -7.769  -8.862   7.781  0.00  0.00    +0.058 A 
ATOM     28  C   UNL     1      -7.888  -8.280   6.530  0.00  0.00    +0.025 A 
ATOM     30  C   UNL     1      -8.557  -7.065   6.438  0.00  0.00    +0.003 A 
ATOM     31  C   UNL     1      -8.906  -7.138   8.789  0.00  0.00    +0.111 A 
ATOM     33  C   UNL     1      -9.078  -6.476   7.585  0.00  0.00    +0.020 A 
ENDBRANCH  21  23
ENDBRANCH   5  21
ENDBRANCH  15  19
ENDBRANCH  10  15
TORSDOF 9
ENDMDL
MODEL 9
REMARK VINA RESULT:      -5.8      3.317      6.161
REMARK  Name = 38028376
REMARK  13 active torsions:
REMARK  status: ('A' for Active; 'I' for Inactive)
REMARK    1  A    between atoms: O_3  and  C_24
REMARK    2  A    between atoms: O_3  and  C_32
REMARK    3  A    between atoms: N_4  and  C_14
REMARK    4  A    between atoms: N_5  and  C_21
REMARK    5  A    between atoms: C_7  and  C_11
REMARK    6  A    between atoms: C_8  and  C_14
REMARK    7  A    between atoms: C_10  and  C_15
REMARK    8  A    between atoms: C_11  and  C_16
REMARK    9  A    between atoms: C_11  and  C_17
REMARK   10  A    between atoms: C_12  and  C_18
REMARK   11  A    between atoms: C_15  and  C_19
REMARK   12  A    between atoms: C_20  and  C_22
REMARK   13  A    between atoms: C_21  and  C_23
REMARK                            x       y       z     vdW  Elec       q    Type
REMARK                         _______ _______ _______ _____ _____    ______ ____
ROOT
ATOM      7  C   UNL     1      -3.275 -12.374  13.200  0.00  0.00    +0.000 C 
ATOM      8  C   UNL     1      -2.129 -11.448  13.677  0.00  0.00    +0.032 C 
ATOM      9  C   UNL     1      -3.190 -12.595  11.682  0.00  0.00    +0.012 C 
ATOM     10  C   UNL     1      -3.270 -11.274  10.895  0.00  0.00    +0.023 C 
ATOM     12  C   UNL     1      -2.355 -10.215  11.478  0.00  0.00    -0.073 C 
ATOM     13  C   UNL     1      -1.843 -10.317  12.717  0.00  0.00    -0.022 C 
ATOM     18  C   UNL     1      -2.004  -9.059  10.584  0.00  0.00    +0.039 C 
ENDROOT
BRANCH   7  11
ATOM     11  C   UNL     1      -3.255 -13.725  13.923  0.00  0.00    -0.013 C 
ATOM     16  C   UNL     1      -4.277 -14.674  13.307  0.00  0.00    +0.007 C 
ATOM     17  C   UNL     1      -1.856 -14.332  13.877  0.00  0.00    +0.007 C 
ENDBRANCH   7  11
BRANCH   8  14
ATOM     14  C   UNL     1      -2.422 -10.876  15.069  0.00  0.00    +0.112 C 
BRANCH  14   4
ATOM      2  O   UNL     1      -4.296 -11.592  17.122  0.00  0.00    -0.270 OA
ATOM      4  N   UNL     1      -3.784 -10.453  15.166  0.00  0.00    -0.311 N 
ATOM     20  C   UNL     1      -4.629 -10.850  16.202  0.00  0.00    +0.248 C 
ATOM     34  H   UNL     1      -4.131  -9.843  14.435  0.00  0.00    +0.149 HD
BRANCH  20  22
ATOM     22  C   UNL     1      -6.024 -10.345  16.145  0.00  0.00    +0.078 A 
ATOM     24  C   UNL     1      -6.800 -10.512  14.999  0.00  0.00    +0.132 A 
ATOM     25  C   UNL     1      -6.556  -9.694  17.259  0.00  0.00    +0.017 A 
ATOM     26  C   UNL     1      -8.109 -10.029  14.964  0.00  0.00    +0.046 A 
ATOM     27  C   UNL     1      -7.865  -9.211  17.224  0.00  0.00    +0.001 A 
ATOM     29  C   UNL     1      -8.641  -9.379  16.078  0.00  0.00    +0.004 A 
BRANCH  24   3
ATOM      3  O   UNL     1      -6.298 -11.143  13.900  0.00  0.00    -0.494 OA
ATOM     32  C   UNL     1      -7.091 -12.182  13.331  0.00  0.00    +0.277 C 
ENDBRANCH  24   3
ENDBRANCH  20  22
ENDBRANCH  14   4
ENDBRANCH   8  14
BRANCH  10  15
ATOM     15  C   UNL     1      -4.714 -10.766  10.814  0.00  0.00    +0.103 C 
BRANCH  15  19
ATOM      1  O   UNL     1      -4.465 -10.675   8.409  0.00  0.00    -0.276 OA
ATOM      5  N   UNL     1      -6.592 -10.612   9.343  0.00  0.00    -0.310 N 
ATOM     19  C   UNL     1      -5.207 -10.682   9.387  0.00  0.00    +0.214 C 
ATOM     35  H   UNL     1      -7.122 -10.627  10.210  0.00  0.00    +0.149 HD
BRANCH   5  21
ATOM     21  C   UNL     1      -7.339 -10.523   8.110  0.00  0.00    +0.159 C 
BRANCH  21  23
ATOM      6  N   UNL     1      -8.276  -8.427   8.906  0.00  0.00    -0.258 NA
ATOM     23  C   UNL     1      -7.818  -9.125   7.842  0.00  0.00    +0.058 A 
ATOM     28  C   UNL     1      -7.768  -8.626   6.551  0.00  0.00    +0.025 A 
ATOM     30  C   UNL     1      -8.218  -7.329   6.336  0.00  0.00    +0.003 A 
ATOM     31  C   UNL     1      -8.706  -7.169   8.659  0.00  0.00    +0.111 A 
ATOM     33  C   UNL     1      -8.697  -6.580   7.405  0.00  0.00    +0.020 A 
ENDBRANCH  21  23
ENDBRANCH   5  21
ENDBRANCH  15  19
ENDBRANCH  10  15
TORSDOF 9
ENDMDL
MODEL 10
REMARK VINA RESULT:      -5.7     24.372     27.255
REMARK  Name = 38028376
REMARK  13 active torsions:
REMARK  status: ('A' for Active; 'I' for Inactive)
REMARK    1  A    between atoms: O_3  and  C_24
REMARK    2  A    between atoms: O_3  and  C_32
REMARK    3  A    between atoms: N_4  and  C_14
REMARK    4  A    between atoms: N_5  and  C_21
REMARK    5  A    between atoms: C_7  and  C_11
REMARK    6  A    between atoms: C_8  and  C_14
REMARK    7  A    between atoms: C_10  and  C_15
REMARK    8  A    between atoms: C_11  and  C_16
REMARK    9  A    between atoms: C_11  and  C_17
REMARK   10  A    between atoms: C_12  and  C_18
REMARK   11  A    between atoms: C_15  and  C_19
REMARK   12  A    between atoms: C_20  and  C_22
REMARK   13  A    between atoms: C_21  and  C_23
REMARK                            x       y       z     vdW  Elec       q    Type
REMARK                         _______ _______ _______ _____ _____    ______ ____
ROOT
ATOM      7  C   UNL     1       9.235   8.167   5.938  0.00  0.00    +0.000 C 
ATOM      8  C   UNL     1       9.156   8.144   7.484  0.00  0.00    +0.032 C 
ATOM      9  C   UNL     1       8.602   6.897   5.349  0.00  0.00    +0.012 C 
ATOM     10  C   UNL     1       9.292   5.615   5.854  0.00  0.00    +0.023 C 
ATOM     12  C   UNL     1       9.493   5.639   7.356  0.00  0.00    -0.073 C 
ATOM     13  C   UNL     1       9.415   6.776   8.070  0.00  0.00    -0.022 C 
ATOM     18  C   UNL     1       9.740   4.316   8.025  0.00  0.00    +0.039 C 
ENDROOT
BRANCH   7  11
ATOM     11  C   UNL     1       8.550   9.406   5.351  0.00  0.00    -0.013 C 
ATOM     16  C   UNL     1       9.588  10.377   4.799  0.00  0.00    +0.007 C 
ATOM     17  C   UNL     1       7.556   9.002   4.267  0.00  0.00    +0.007 C 
ENDBRANCH   7  11
BRANCH   8  14
ATOM     14  C   UNL     1      10.127   9.156   8.103  0.00  0.00    +0.112 C 
BRANCH  14   4
ATOM      2  O   UNL     1      11.240  11.280   9.681  0.00  0.00    -0.270 OA
ATOM      4  N   UNL     1       9.416  10.256   8.676  0.00  0.00    -0.311 N 
ATOM     20  C   UNL     1      10.038  11.249   9.434  0.00  0.00    +0.248 C 
ATOM     34  H   UNL     1       8.416  10.291   8.520  0.00  0.00    +0.149 HD
BRANCH  20  22
ATOM     22  C   UNL     1       9.155  12.310   9.982  0.00  0.00    +0.078 A 
ATOM     24  C   UNL     1       8.346  13.073   9.141  0.00  0.00    +0.132 A 
ATOM     25  C   UNL     1       9.142  12.538  11.358  0.00  0.00    +0.017 A 
ATOM     26  C   UNL     1       7.524  14.066   9.674  0.00  0.00    +0.046 A 
ATOM     27  C   UNL     1       8.320  13.531  11.891  0.00  0.00    +0.001 A 
ATOM     29  C   UNL     1       7.512  14.295  11.050  0.00  0.00    +0.004 A 
BRANCH  24   3
ATOM      3  O   UNL     1       8.346  12.866   7.794  0.00  0.00    -0.494 OA
ATOM     32  C   UNL     1       8.980  13.855   6.986  0.00  0.00    +0.277 C 
ENDBRANCH  24   3
ENDBRANCH  20  22
ENDBRANCH  14   4
ENDBRANCH   8  14
BRANCH  10  15
ATOM     15  C   UNL     1      10.620   5.380   5.126  0.00  0.00    +0.103 C 
BRANCH  15  19
ATOM      1  O   UNL     1      10.247   6.505   3.017  0.00  0.00    -0.276 OA
ATOM      5  N   UNL     1      10.607   4.209   3.041  0.00  0.00    -0.310 N 
ATOM     19  C   UNL     1      10.467   5.461   3.624  0.00  0.00    +0.214 C 
ATOM     35  H   UNL     1      10.791   3.402   3.629  0.00  0.00    +0.149 HD
BRANCH   5  21
ATOM     21  C   UNL     1      10.508   3.986   1.618  0.00  0.00    +0.159 C 
BRANCH  21  23
ATOM      6  N   UNL     1      11.910   4.339  -0.335  0.00  0.00    -0.258 NA
ATOM     23  C   UNL     1      11.857   3.950   0.959  0.00  0.00    +0.058 A 
ATOM     28  C   UNL     1      12.958   3.532   1.689  0.00  0.00    +0.025 A 
ATOM     30  C   UNL     1      14.192   3.511   1.050  0.00  0.00    +0.003 A 
ATOM     31  C   UNL     1      13.128   4.305  -0.922  0.00  0.00    +0.111 A 
ATOM     33  C   UNL     1      14.288   3.904  -0.280  0.00  0.00    +0.020 A 
ENDBRANCH  21  23
ENDBRANCH   5  21
ENDBRANCH  15  19
ENDBRANCH  10  15
TORSDOF 9
ENDMDL
