REMARK  Name = 51137486
REMARK  6 active torsions:
REMARK  status: ('A' for Active; 'I' for Inactive)
REMARK    1  A    between atoms: O_2  and  C_28
REMARK    2  A    between atoms: O_2  and  C_29
REMARK    3  A    between atoms: N_3  and  C_11
REMARK    4  A    between atoms: C_7  and  C_12
REMARK    5  A    between atoms: C_11  and  C_13
REMARK    6  A    between atoms: C_16  and  C_19
REMARK                            x       y       z     vdW  Elec       q    Type
REMARK                         _______ _______ _______ _____ _____    ______ ____
ROOT
ATOM      3  N   UNL     1      -1.552  -1.179  -0.288  0.00  0.00    -0.297 NA
ATOM      7  C   UNL     1       0.398  -2.282   0.403  0.00  0.00    +0.092 C 
ATOM      8  C   UNL     1      -0.220  -1.534   1.597  0.00  0.00    +0.029 C 
ATOM      9  C   UNL     1      -0.288  -1.680  -0.831  0.00  0.00    +0.097 C 
ATOM     10  C   UNL     1      -1.192  -0.538   0.977  0.00  0.00    +0.085 C 
ENDROOT
BRANCH   7  12
ATOM      1  O   UNL     1       2.467  -0.985   0.224  0.00  0.00    -0.420 OA
ATOM      4  N   UNL     1       2.784  -3.196   0.345  0.00  0.00    -0.112 NA
ATOM      5  N   UNL     1       4.024  -2.592   0.248  0.00  0.00    -0.107 NA
ATOM     12  C   UNL     1       1.906  -2.221   0.327  0.00  0.00    +0.222 A 
ATOM     16  C   UNL     1       3.790  -1.302   0.180  0.00  0.00    +0.248 A 
BRANCH  16  19
ATOM     19  C   UNL     1       4.697  -0.196   0.069  0.00  0.00    +0.039 A 
ATOM     22  C   UNL     1       6.072  -0.424   0.018  0.00  0.00    +0.017 A 
ATOM     23  C   UNL     1       4.203   1.107   0.012  0.00  0.00    +0.017 A 
ATOM     26  C   UNL     1       6.954   0.651  -0.091  0.00  0.00    +0.046 A 
ATOM     27  C   UNL     1       5.085   2.183  -0.097  0.00  0.00    +0.046 A 
ATOM     28  C   UNL     1       6.460   1.955  -0.148  0.00  0.00    +0.120 A 
BRANCH  28   2
ATOM      2  O   UNL     1       7.320   3.004  -0.257  0.00  0.00    -0.495 OA
ATOM     29  C   UNL     1       8.713   2.699  -0.307  0.00  0.00    +0.277 C 
ENDBRANCH  28   2
ENDBRANCH  16  19
ENDBRANCH   7  12
BRANCH   3  11
ATOM     11  C   UNL     1      -2.225  -0.265  -1.200  0.00  0.00    +0.121 C 
BRANCH  11  13
ATOM      6  N   UNL     1      -5.915  -0.965  -0.922  0.00  0.00    -0.255 NA
ATOM     13  C   UNL     1      -3.665  -0.091  -0.874  0.00  0.00    -0.015 A 
ATOM     14  C   UNL     1      -4.125   1.054  -0.240  0.00  0.00    +0.016 A 
ATOM     15  C   UNL     1      -4.593  -1.062  -1.191  0.00  0.00    +0.116 A 
ATOM     17  C   UNL     1      -5.488   1.196   0.057  0.00  0.00    +0.001 A 
ATOM     18  C   UNL     1      -6.359   0.148  -0.307  0.00  0.00    +0.071 A 
ATOM     20  C   UNL     1      -5.986   2.342   0.698  0.00  0.00    +0.010 A 
ATOM     21  C   UNL     1      -7.712   0.289  -0.012  0.00  0.00    +0.028 A 
ATOM     24  C   UNL     1      -7.344   2.457   0.981  0.00  0.00    +0.001 A 
ATOM     25  C   UNL     1      -8.208   1.429   0.625  0.00  0.00    +0.002 A 
ENDBRANCH  11  13
ENDBRANCH   3  11
TORSDOF 5
