MODEL 1
REMARK VINA RESULT:      -7.2      0.000      0.000
REMARK  Name = 75537056
REMARK  5 active torsions:
REMARK  status: ('A' for Active; 'I' for Inactive)
REMARK    1  A    between atoms: S_1  and  C_25
REMARK    2  A    between atoms: S_1  and  C_27
REMARK    3  A    between atoms: N_6  and  C_14
REMARK    4  A    between atoms: N_7  and  C_15
REMARK    5  A    between atoms: C_14  and  C_16
REMARK                            x       y       z     vdW  Elec       q    Type
REMARK                         _______ _______ _______ _____ _____    ______ ____
ROOT
ATOM      2  O   UNL     1     -16.353   5.189  20.444  0.00  0.00    -0.252 OA
ATOM      5  N   UNL     1     -16.247   4.347  22.615  0.00  0.00    -0.278 N 
ATOM      6  N   UNL     1     -17.126   3.519  25.156  0.00  0.00    -0.295 NA
ATOM      7  N   UNL     1     -14.560   5.701  21.945  0.00  0.00    -0.254 N 
ATOM      8  C   UNL     1     -15.303   4.307  23.703  0.00  0.00    +0.109 C 
ATOM      9  C   UNL     1     -16.018   4.489  25.042  0.00  0.00    +0.109 C 
ATOM     10  C   UNL     1     -14.308   5.406  23.351  0.00  0.00    +0.139 C 
ATOM     11  C   UNL     1     -17.452   3.545  22.693  0.00  0.00    +0.125 C 
ATOM     12  C   UNL     1     -18.104   3.711  24.067  0.00  0.00    +0.104 C 
ATOM     13  C   UNL     1     -15.780   5.095  21.521  0.00  0.00    +0.309 C 
ENDROOT
BRANCH   7  15
ATOM     15  C   UNL     1     -13.713   6.553  21.179  0.00  0.00    +0.038 A 
ATOM     17  C   UNL     1     -12.332   6.361  21.196  0.00  0.00    +0.023 A 
ATOM     18  C   UNL     1     -14.265   7.580  20.414  0.00  0.00    +0.023 A 
ATOM     23  C   UNL     1     -11.501   7.195  20.447  0.00  0.00    +0.002 A 
ATOM     24  C   UNL     1     -13.436   8.414  19.664  0.00  0.00    +0.002 A 
ATOM     26  C   UNL     1     -12.054   8.221  19.681  0.00  0.00    +0.000 A 
ENDBRANCH   7  15
BRANCH   6  14
ATOM     14  C   UNL     1     -17.781   3.645  26.458  0.00  0.00    +0.119 C 
BRANCH  14  16
ATOM     16  C   UNL     1     -17.135   2.766  27.496  0.00  0.00    -0.033 A 
ATOM     19  C   UNL     1     -16.014   3.216  28.193  0.00  0.00    +0.007 A 
ATOM     20  C   UNL     1     -17.657   1.499  27.760  0.00  0.00    +0.007 A 
ATOM     21  C   UNL     1     -15.416   2.402  29.154  0.00  0.00    +0.027 A 
ATOM     22  C   UNL     1     -17.058   0.684  28.720  0.00  0.00    +0.027 A 
ATOM     25  C   UNL     1     -15.938   1.135  29.417  0.00  0.00    +0.088 A 
BRANCH  25   1
ATOM      1  S   UNL     1     -15.191   0.117  30.623  0.00  0.00    -0.006 S 
ATOM      3  O   UNL     1     -14.969   0.900  31.831  0.00  0.00    -0.170 OA
ATOM      4  O   UNL     1     -15.949  -1.123  30.695  0.00  0.00    -0.170 OA
ATOM     27  C   UNL     1     -13.588  -0.261  29.951  0.00  0.00    +0.200 C 
ENDBRANCH  25   1
ENDBRANCH  14  16
ENDBRANCH   6  14
TORSDOF 4
ENDMDL
MODEL 2
REMARK VINA RESULT:      -7.2     32.562     36.127
REMARK  Name = 75537056
REMARK  5 active torsions:
REMARK  status: ('A' for Active; 'I' for Inactive)
REMARK    1  A    between atoms: S_1  and  C_25
REMARK    2  A    between atoms: S_1  and  C_27
REMARK    3  A    between atoms: N_6  and  C_14
REMARK    4  A    between atoms: N_7  and  C_15
REMARK    5  A    between atoms: C_14  and  C_16
REMARK                            x       y       z     vdW  Elec       q    Type
REMARK                         _______ _______ _______ _____ _____    ______ ____
ROOT
ATOM      2  O   UNL     1      24.226   5.969  21.150  0.00  0.00    -0.252 OA
ATOM      5  N   UNL     1      21.932   6.242  20.844  0.00  0.00    -0.278 N 
ATOM      6  N   UNL     1      19.396   7.459  20.934  0.00  0.00    -0.295 NA
ATOM      7  N   UNL     1      22.661   4.180  21.432  0.00  0.00    -0.254 N 
ATOM      8  C   UNL     1      20.754   5.413  20.776  0.00  0.00    +0.109 C 
ATOM      9  C   UNL     1      19.576   6.095  21.471  0.00  0.00    +0.109 C 
ATOM     10  C   UNL     1      21.205   4.103  21.411  0.00  0.00    +0.139 C 
ATOM     11  C   UNL     1      21.833   7.642  20.483  0.00  0.00    +0.125 C 
ATOM     12  C   UNL     1      20.610   8.272  21.153  0.00  0.00    +0.104 C 
ATOM     13  C   UNL     1      23.092   5.509  21.140  0.00  0.00    +0.309 C 
ENDROOT
BRANCH   7  15
ATOM     15  C   UNL     1      23.480   3.070  21.787  0.00  0.00    +0.038 A 
ATOM     17  C   UNL     1      24.030   2.990  23.065  0.00  0.00    +0.023 A 
ATOM     18  C   UNL     1      23.732   2.063  20.855  0.00  0.00    +0.023 A 
ATOM     23  C   UNL     1      24.833   1.903  23.414  0.00  0.00    +0.002 A 
ATOM     24  C   UNL     1      24.535   0.976  21.202  0.00  0.00    +0.002 A 
ATOM     26  C   UNL     1      25.085   0.897  22.482  0.00  0.00    +0.000 A 
ENDBRANCH   7  15
BRANCH   6  14
ATOM     14  C   UNL     1      18.235   8.100  21.551  0.00  0.00    +0.119 C 
BRANCH  14  16
ATOM     16  C   UNL     1      17.017   8.017  20.670  0.00  0.00    -0.033 A 
ATOM     19  C   UNL     1      16.207   9.138  20.490  0.00  0.00    +0.007 A 
ATOM     20  C   UNL     1      16.697   6.817  20.033  0.00  0.00    +0.007 A 
ATOM     21  C   UNL     1      15.079   9.061  19.675  0.00  0.00    +0.027 A 
ATOM     22  C   UNL     1      15.568   6.739  19.218  0.00  0.00    +0.027 A 
ATOM     25  C   UNL     1      14.759   7.860  19.039  0.00  0.00    +0.088 A 
BRANCH  25   1
ATOM      1  S   UNL     1      13.347   7.765  18.015  0.00  0.00    -0.006 S 
ATOM      3  O   UNL     1      13.770   7.450  16.657  0.00  0.00    -0.170 OA
ATOM      4  O   UNL     1      12.367   6.920  18.681  0.00  0.00    -0.170 OA
ATOM     27  C   UNL     1      12.709   9.424  17.986  0.00  0.00    +0.200 C 
ENDBRANCH  25   1
ENDBRANCH  14  16
ENDBRANCH   6  14
TORSDOF 4
ENDMDL
MODEL 3
REMARK VINA RESULT:      -6.7     20.490     22.777
REMARK  Name = 75537056
REMARK  5 active torsions:
REMARK  status: ('A' for Active; 'I' for Inactive)
REMARK    1  A    between atoms: S_1  and  C_25
REMARK    2  A    between atoms: S_1  and  C_27
REMARK    3  A    between atoms: N_6  and  C_14
REMARK    4  A    between atoms: N_7  and  C_15
REMARK    5  A    between atoms: C_14  and  C_16
REMARK                            x       y       z     vdW  Elec       q    Type
REMARK                         _______ _______ _______ _____ _____    ______ ____
ROOT
ATOM      2  O   UNL     1      -5.067 -10.354  18.081  0.00  0.00    -0.252 OA
ATOM      5  N   UNL     1      -4.497 -10.860  15.878  0.00  0.00    -0.278 N 
ATOM      6  N   UNL     1      -2.983 -10.937  13.508  0.00  0.00    -0.295 NA
ATOM      7  N   UNL     1      -6.661 -10.338  16.295  0.00  0.00    -0.254 N 
ATOM      8  C   UNL     1      -5.170 -11.095  14.625  0.00  0.00    +0.109 C 
ATOM      9  C   UNL     1      -4.385 -10.474  13.469  0.00  0.00    +0.109 C 
ATOM     10  C   UNL     1      -6.556 -10.505  14.850  0.00  0.00    +0.139 C 
ATOM     11  C   UNL     1      -3.078 -11.139  15.982  0.00  0.00    +0.125 C 
ATOM     12  C   UNL     1      -2.338 -10.551  14.779  0.00  0.00    +0.104 C 
ATOM     13  C   UNL     1      -5.382 -10.502  16.907  0.00  0.00    +0.309 C 
ENDROOT
BRANCH   7  15
ATOM     15  C   UNL     1      -7.881  -9.979  16.937  0.00  0.00    +0.038 A 
ATOM     17  C   UNL     1      -8.566  -8.832  16.538  0.00  0.00    +0.023 A 
ATOM     18  C   UNL     1      -8.389 -10.773  17.964  0.00  0.00    +0.023 A 
ATOM     23  C   UNL     1      -9.761  -8.478  17.166  0.00  0.00    +0.002 A 
ATOM     24  C   UNL     1      -9.583 -10.421  18.593  0.00  0.00    +0.002 A 
ATOM     26  C   UNL     1     -10.269  -9.273  18.194  0.00  0.00    +0.000 A 
ENDBRANCH   7  15
BRANCH   6  14
ATOM     14  C   UNL     1      -2.236 -10.395  12.373  0.00  0.00    +0.119 C 
BRANCH  14  16
ATOM     16  C   UNL     1      -3.021 -10.487  11.091  0.00  0.00    -0.033 A 
ATOM     19  C   UNL     1      -3.317  -9.331  10.369  0.00  0.00    +0.007 A 
ATOM     20  C   UNL     1      -3.454 -11.729  10.626  0.00  0.00    +0.007 A 
ATOM     21  C   UNL     1      -4.045  -9.416   9.183  0.00  0.00    +0.027 A 
ATOM     22  C   UNL     1      -4.183 -11.815   9.440  0.00  0.00    +0.027 A 
ATOM     25  C   UNL     1      -4.478 -10.659   8.718  0.00  0.00    +0.088 A 
BRANCH  25   1
ATOM      1  S   UNL     1      -5.387 -10.765   7.231  0.00  0.00    -0.006 S 
ATOM      3  O   UNL     1      -5.942  -9.454   6.922  0.00  0.00    -0.170 OA
ATOM      4  O   UNL     1      -4.559 -11.449   6.248  0.00  0.00    -0.170 OA
ATOM     27  C   UNL     1      -6.758 -11.827   7.625  0.00  0.00    +0.200 C 
ENDBRANCH  25   1
ENDBRANCH  14  16
ENDBRANCH   6  14
TORSDOF 4
ENDMDL
MODEL 4
REMARK VINA RESULT:      -6.6     19.257     21.514
REMARK  Name = 75537056
REMARK  5 active torsions:
REMARK  status: ('A' for Active; 'I' for Inactive)
REMARK    1  A    between atoms: S_1  and  C_25
REMARK    2  A    between atoms: S_1  and  C_27
REMARK    3  A    between atoms: N_6  and  C_14
REMARK    4  A    between atoms: N_7  and  C_15
REMARK    5  A    between atoms: C_14  and  C_16
REMARK                            x       y       z     vdW  Elec       q    Type
REMARK                         _______ _______ _______ _____ _____    ______ ____
ROOT
ATOM      2  O   UNL     1      -4.881 -10.568   7.724  0.00  0.00    -0.252 OA
ATOM      5  N   UNL     1      -6.806  -9.320   8.138  0.00  0.00    -0.278 N 
ATOM      6  N   UNL     1      -8.948  -7.559   7.659  0.00  0.00    -0.295 NA
ATOM      7  N   UNL     1      -5.281  -9.456   9.807  0.00  0.00    -0.254 N 
ATOM      8  C   UNL     1      -7.441  -8.669   9.257  0.00  0.00    +0.109 C 
ATOM      9  C   UNL     1      -8.066  -7.343   8.823  0.00  0.00    +0.109 C 
ATOM     10  C   UNL     1      -6.319  -8.547  10.280  0.00  0.00    +0.139 C 
ATOM     11  C   UNL     1      -7.533  -9.451   6.891  0.00  0.00    +0.125 C 
ATOM     12  C   UNL     1      -8.190  -8.119   6.523  0.00  0.00    +0.104 C 
ATOM     13  C   UNL     1      -5.561  -9.877   8.472  0.00  0.00    +0.309 C 
ENDROOT
BRANCH   7  15
ATOM     15  C   UNL     1      -4.129  -9.773  10.583  0.00  0.00    +0.038 A 
ATOM     17  C   UNL     1      -4.231 -10.667  11.648  0.00  0.00    +0.023 A 
ATOM     18  C   UNL     1      -2.900  -9.188  10.278  0.00  0.00    +0.023 A 
ATOM     23  C   UNL     1      -3.104 -10.978  12.410  0.00  0.00    +0.002 A 
ATOM     24  C   UNL     1      -1.773  -9.498  11.039  0.00  0.00    +0.002 A 
ATOM     26  C   UNL     1      -1.875 -10.393  12.105  0.00  0.00    +0.000 A 
ENDBRANCH   7  15
BRANCH   6  14
ATOM     14  C   UNL     1      -9.597  -6.307   7.272  0.00  0.00    +0.119 C 
BRANCH  14  16
ATOM     16  C   UNL     1     -10.423  -5.735   8.394  0.00  0.00    -0.033 A 
ATOM     19  C   UNL     1     -10.328  -4.380   8.709  0.00  0.00    +0.007 A 
ATOM     20  C   UNL     1     -11.283  -6.561   9.118  0.00  0.00    +0.007 A 
ATOM     21  C   UNL     1     -11.092  -3.850   9.748  0.00  0.00    +0.027 A 
ATOM     22  C   UNL     1     -12.047  -6.031  10.158  0.00  0.00    +0.027 A 
ATOM     25  C   UNL     1     -11.952  -4.676  10.473  0.00  0.00    +0.088 A 
BRANCH  25   1
ATOM      1  S   UNL     1     -12.912  -4.011  11.772  0.00  0.00    -0.006 S 
ATOM      3  O   UNL     1     -12.075  -3.125  12.570  0.00  0.00    -0.170 OA
ATOM      4  O   UNL     1     -14.155  -3.513  11.201  0.00  0.00    -0.170 OA
ATOM     27  C   UNL     1     -13.302  -5.413  12.795  0.00  0.00    +0.200 C 
ENDBRANCH  25   1
ENDBRANCH  14  16
ENDBRANCH   6  14
TORSDOF 4
ENDMDL
MODEL 5
REMARK VINA RESULT:      -6.6     20.688     23.278
REMARK  Name = 75537056
REMARK  5 active torsions:
REMARK  status: ('A' for Active; 'I' for Inactive)
REMARK    1  A    between atoms: S_1  and  C_25
REMARK    2  A    between atoms: S_1  and  C_27
REMARK    3  A    between atoms: N_6  and  C_14
REMARK    4  A    between atoms: N_7  and  C_15
REMARK    5  A    between atoms: C_14  and  C_16
REMARK                            x       y       z     vdW  Elec       q    Type
REMARK                         _______ _______ _______ _____ _____    ______ ____
ROOT
ATOM      2  O   UNL     1      -1.996 -11.236  15.919  0.00  0.00    -0.252 OA
ATOM      5  N   UNL     1      -2.923 -10.977  13.796  0.00  0.00    -0.278 N 
ATOM      6  N   UNL     1      -3.168 -10.138  11.122  0.00  0.00    -0.295 NA
ATOM      7  N   UNL     1      -4.338 -10.893  15.562  0.00  0.00    -0.254 N 
ATOM      8  C   UNL     1      -4.234 -10.909  13.201  0.00  0.00    +0.109 C 
ATOM      9  C   UNL     1      -4.262  -9.873  12.078  0.00  0.00    +0.109 C 
ATOM     10  C   UNL     1      -5.145 -10.601  14.383  0.00  0.00    +0.139 C 
ATOM     11  C   UNL     1      -1.761 -11.086  12.937  0.00  0.00    +0.125 C 
ATOM     12  C   UNL     1      -1.855 -10.072  11.795  0.00  0.00    +0.104 C 
ATOM     13  C   UNL     1      -2.969 -11.064  15.197  0.00  0.00    +0.309 C 
ENDROOT
BRANCH   7  15
ATOM     15  C   UNL     1      -4.884 -10.905  16.878  0.00  0.00    +0.038 A 
ATOM     17  C   UNL     1      -4.266 -11.650  17.882  0.00  0.00    +0.023 A 
ATOM     18  C   UNL     1      -6.037 -10.174  17.162  0.00  0.00    +0.023 A 
ATOM     23  C   UNL     1      -4.799 -11.663  19.171  0.00  0.00    +0.002 A 
ATOM     24  C   UNL     1      -6.572 -10.187  18.451  0.00  0.00    +0.002 A 
ATOM     26  C   UNL     1      -5.953 -10.932  19.455  0.00  0.00    +0.000 A 
ENDBRANCH   7  15
BRANCH   6  14
ATOM     14  C   UNL     1      -3.220  -9.187  10.012  0.00  0.00    +0.119 C 
BRANCH  14  16
ATOM     16  C   UNL     1      -4.554  -9.215   9.314  0.00  0.00    -0.033 A 
ATOM     19  C   UNL     1      -5.501  -8.224   9.578  0.00  0.00    +0.007 A 
ATOM     20  C   UNL     1      -4.845 -10.231   8.404  0.00  0.00    +0.007 A 
ATOM     21  C   UNL     1      -6.736  -8.250   8.932  0.00  0.00    +0.027 A 
ATOM     22  C   UNL     1      -6.081 -10.258   7.759  0.00  0.00    +0.027 A 
ATOM     25  C   UNL     1      -7.026  -9.268   8.022  0.00  0.00    +0.088 A 
BRANCH  25   1
ATOM      1  S   UNL     1      -8.573  -9.297   7.211  0.00  0.00    -0.006 S 
ATOM      3  O   UNL     1      -8.653 -10.500   6.394  0.00  0.00    -0.170 OA
ATOM      4  O   UNL     1      -9.604  -9.026   8.202  0.00  0.00    -0.170 OA
ATOM     27  C   UNL     1      -8.512  -7.916   6.093  0.00  0.00    +0.200 C 
ENDBRANCH  25   1
ENDBRANCH  14  16
ENDBRANCH   6  14
TORSDOF 4
ENDMDL
MODEL 6
REMARK VINA RESULT:      -6.5     31.219     34.434
REMARK  Name = 75537056
REMARK  5 active torsions:
REMARK  status: ('A' for Active; 'I' for Inactive)
REMARK    1  A    between atoms: S_1  and  C_25
REMARK    2  A    between atoms: S_1  and  C_27
REMARK    3  A    between atoms: N_6  and  C_14
REMARK    4  A    between atoms: N_7  and  C_15
REMARK    5  A    between atoms: C_14  and  C_16
REMARK                            x       y       z     vdW  Elec       q    Type
REMARK                         _______ _______ _______ _____ _____    ______ ____
ROOT
ATOM      2  O   UNL     1      15.642  10.018  21.396  0.00  0.00    -0.252 OA
ATOM      5  N   UNL     1      17.046   8.157  21.417  0.00  0.00    -0.278 N 
ATOM      6  N   UNL     1      19.399   6.638  21.142  0.00  0.00    -0.295 NA
ATOM      7  N   UNL     1      14.931   7.852  20.664  0.00  0.00    -0.254 N 
ATOM      8  C   UNL     1      16.941   6.734  21.211  0.00  0.00    +0.109 C 
ATOM      9  C   UNL     1      18.163   6.208  20.458  0.00  0.00    +0.109 C 
ATOM     10  C   UNL     1      15.616   6.578  20.475  0.00  0.00    +0.139 C 
ATOM     11  C   UNL     1      18.279   8.706  21.944  0.00  0.00    +0.125 C 
ATOM     12  C   UNL     1      19.478   8.112  21.204  0.00  0.00    +0.104 C 
ATOM     13  C   UNL     1      15.833   8.827  21.188  0.00  0.00    +0.309 C 
ENDROOT
BRANCH   7  15
ATOM     15  C   UNL     1      13.575   8.056  20.280  0.00  0.00    +0.038 A 
ATOM     17  C   UNL     1      12.569   8.046  21.245  0.00  0.00    +0.023 A 
ATOM     18  C   UNL     1      13.253   8.264  18.939  0.00  0.00    +0.023 A 
ATOM     23  C   UNL     1      11.239   8.245  20.871  0.00  0.00    +0.002 A 
ATOM     24  C   UNL     1      11.924   8.463  18.564  0.00  0.00    +0.002 A 
ATOM     26  C   UNL     1      10.918   8.453  19.530  0.00  0.00    +0.000 A 
ENDBRANCH   7  15
BRANCH   6  14
ATOM     14  C   UNL     1      20.573   6.092  20.464  0.00  0.00    +0.119 C 
BRANCH  14  16
ATOM     16  C   UNL     1      21.310   5.105  21.329  0.00  0.00    -0.033 A 
ATOM     19  C   UNL     1      21.821   5.505  22.564  0.00  0.00    +0.007 A 
ATOM     20  C   UNL     1      21.483   3.790  20.896  0.00  0.00    +0.007 A 
ATOM     21  C   UNL     1      22.505   4.591  23.366  0.00  0.00    +0.027 A 
ATOM     22  C   UNL     1      22.168   2.876  21.697  0.00  0.00    +0.027 A 
ATOM     25  C   UNL     1      22.678   3.276  22.932  0.00  0.00    +0.088 A 
BRANCH  25   1
ATOM      1  S   UNL     1      23.531   2.131  23.937  0.00  0.00    -0.006 S 
ATOM      3  O   UNL     1      24.564   2.836  24.683  0.00  0.00    -0.170 OA
ATOM      4  O   UNL     1      22.542   1.335  24.648  0.00  0.00    -0.170 OA
ATOM     27  C   UNL     1      24.364   1.064  22.783  0.00  0.00    +0.200 C 
ENDBRANCH  25   1
ENDBRANCH  14  16
ENDBRANCH   6  14
TORSDOF 4
ENDMDL
MODEL 7
REMARK VINA RESULT:      -6.4     21.874     24.363
REMARK  Name = 75537056
REMARK  5 active torsions:
REMARK  status: ('A' for Active; 'I' for Inactive)
REMARK    1  A    between atoms: S_1  and  C_25
REMARK    2  A    between atoms: S_1  and  C_27
REMARK    3  A    between atoms: N_6  and  C_14
REMARK    4  A    between atoms: N_7  and  C_15
REMARK    5  A    between atoms: C_14  and  C_16
REMARK                            x       y       z     vdW  Elec       q    Type
REMARK                         _______ _______ _______ _____ _____    ______ ____
ROOT
ATOM      2  O   UNL     1      -1.988 -10.900  15.946  0.00  0.00    -0.252 OA
ATOM      5  N   UNL     1      -3.046 -10.932  13.870  0.00  0.00    -0.278 N 
ATOM      6  N   UNL     1      -3.564 -10.304  11.176  0.00  0.00    -0.295 NA
ATOM      7  N   UNL     1      -4.368 -10.998  15.707  0.00  0.00    -0.254 N 
ATOM      8  C   UNL     1      -4.374 -11.131  13.348  0.00  0.00    +0.109 C 
ATOM      9  C   UNL     1      -4.641 -10.182  12.179  0.00  0.00    +0.109 C 
ATOM     10  C   UNL     1      -5.269 -10.922  14.563  0.00  0.00    +0.139 C 
ATOM     11  C   UNL     1      -1.925 -10.882  12.952  0.00  0.00    +0.125 C 
ATOM     12  C   UNL     1      -2.254  -9.968  11.770  0.00  0.00    +0.104 C 
ATOM     13  C   UNL     1      -3.009 -10.945  15.274  0.00  0.00    +0.309 C 
ENDROOT
BRANCH   7  15
ATOM     15  C   UNL     1      -4.840 -11.031  17.051  0.00  0.00    +0.038 A 
ATOM     17  C   UNL     1      -4.161 -11.784  18.009  0.00  0.00    +0.023 A 
ATOM     18  C   UNL     1      -5.980 -10.312  17.408  0.00  0.00    +0.023 A 
ATOM     23  C   UNL     1      -4.622 -11.818  19.325  0.00  0.00    +0.002 A 
ATOM     24  C   UNL     1      -6.442 -10.346  18.724  0.00  0.00    +0.002 A 
ATOM     26  C   UNL     1      -5.763 -11.099  19.683  0.00  0.00    +0.000 A 
ENDBRANCH   7  15
BRANCH   6  14
ATOM     14  C   UNL     1      -3.839  -9.442  10.027  0.00  0.00    +0.119 C 
BRANCH  14  16
ATOM     16  C   UNL     1      -4.401 -10.221   8.867  0.00  0.00    -0.033 A 
ATOM     19  C   UNL     1      -5.162  -9.572   7.894  0.00  0.00    +0.007 A 
ATOM     20  C   UNL     1      -4.161 -11.591   8.764  0.00  0.00    +0.007 A 
ATOM     21  C   UNL     1      -5.683 -10.292   6.820  0.00  0.00    +0.027 A 
ATOM     22  C   UNL     1      -4.683 -12.312   7.691  0.00  0.00    +0.027 A 
ATOM     25  C   UNL     1      -5.443 -11.663   6.718  0.00  0.00    +0.088 A 
BRANCH  25   1
ATOM      1  S   UNL     1      -6.093 -12.565   5.371  0.00  0.00    -0.006 S 
ATOM      3  O   UNL     1      -6.004 -13.988   5.669  0.00  0.00    -0.170 OA
ATOM      4  O   UNL     1      -7.378 -11.979   5.018  0.00  0.00    -0.170 OA
ATOM     27  C   UNL     1      -4.961 -12.244   4.037  0.00  0.00    +0.200 C 
ENDBRANCH  25   1
ENDBRANCH  14  16
ENDBRANCH   6  14
TORSDOF 4
ENDMDL
MODEL 8
REMARK VINA RESULT:      -6.4     15.295     16.124
REMARK  Name = 75537056
REMARK  5 active torsions:
REMARK  status: ('A' for Active; 'I' for Inactive)
REMARK    1  A    between atoms: S_1  and  C_25
REMARK    2  A    between atoms: S_1  and  C_27
REMARK    3  A    between atoms: N_6  and  C_14
REMARK    4  A    between atoms: N_7  and  C_15
REMARK    5  A    between atoms: C_14  and  C_16
REMARK                            x       y       z     vdW  Elec       q    Type
REMARK                         _______ _______ _______ _____ _____    ______ ____
ROOT
ATOM      2  O   UNL     1     -13.597  -7.116  11.114  0.00  0.00    -0.252 OA
ATOM      5  N   UNL     1     -12.383  -6.933  13.095  0.00  0.00    -0.278 N 
ATOM      6  N   UNL     1     -11.424  -7.587  15.658  0.00  0.00    -0.295 NA
ATOM      7  N   UNL     1     -13.235  -5.025  12.222  0.00  0.00    -0.254 N 
ATOM      8  C   UNL     1     -11.849  -5.887  13.931  0.00  0.00    +0.109 C 
ATOM      9  C   UNL     1     -11.999  -6.250  15.408  0.00  0.00    +0.109 C 
ATOM     10  C   UNL     1     -12.624  -4.650  13.492  0.00  0.00    +0.139 C 
ATOM     11  C   UNL     1     -12.001  -8.307  13.351  0.00  0.00    +0.125 C 
ATOM     12  C   UNL     1     -12.109  -8.613  14.846  0.00  0.00    +0.104 C 
ATOM     13  C   UNL     1     -13.132  -6.434  12.017  0.00  0.00    +0.309 C 
ENDROOT
BRANCH   7  15
ATOM     15  C   UNL     1     -13.901  -4.083  11.386  0.00  0.00    +0.038 A 
ATOM     17  C   UNL     1     -13.491  -3.909  10.065  0.00  0.00    +0.023 A 
ATOM     18  C   UNL     1     -14.964  -3.334  11.891  0.00  0.00    +0.023 A 
ATOM     23  C   UNL     1     -14.143  -2.986   9.247  0.00  0.00    +0.002 A 
ATOM     24  C   UNL     1     -15.617  -2.411  11.073  0.00  0.00    +0.002 A 
ATOM     26  C   UNL     1     -15.206  -2.237   9.751  0.00  0.00    +0.000 A 
ENDBRANCH   7  15
BRANCH   6  14
ATOM     14  C   UNL     1     -11.509  -7.921  17.080  0.00  0.00    +0.119 C 
BRANCH  14  16
ATOM     16  C   UNL     1     -10.342  -8.761  17.528  0.00  0.00    -0.033 A 
ATOM     19  C   UNL     1      -9.054  -8.458  17.086  0.00  0.00    +0.007 A 
ATOM     20  C   UNL     1     -10.549  -9.842  18.385  0.00  0.00    +0.007 A 
ATOM     21  C   UNL     1      -7.973  -9.235  17.501  0.00  0.00    +0.027 A 
ATOM     22  C   UNL     1      -9.469 -10.621  18.799  0.00  0.00    +0.027 A 
ATOM     25  C   UNL     1      -8.181 -10.317  18.358  0.00  0.00    +0.088 A 
BRANCH  25   1
ATOM      1  S   UNL     1      -6.827 -11.289  18.879  0.00  0.00    -0.006 S 
ATOM      3  O   UNL     1      -6.488 -10.929  20.249  0.00  0.00    -0.170 OA
ATOM      4  O   UNL     1      -7.116 -12.676  18.547  0.00  0.00    -0.170 OA
ATOM     27  C   UNL     1      -5.476 -10.752  17.854  0.00  0.00    +0.200 C 
ENDBRANCH  25   1
ENDBRANCH  14  16
ENDBRANCH   6  14
TORSDOF 4
ENDMDL
MODEL 9
REMARK VINA RESULT:      -6.1     36.294     38.551
REMARK  Name = 75537056
REMARK  5 active torsions:
REMARK  status: ('A' for Active; 'I' for Inactive)
REMARK    1  A    between atoms: S_1  and  C_25
REMARK    2  A    between atoms: S_1  and  C_27
REMARK    3  A    between atoms: N_6  and  C_14
REMARK    4  A    between atoms: N_7  and  C_15
REMARK    5  A    between atoms: C_14  and  C_16
REMARK                            x       y       z     vdW  Elec       q    Type
REMARK                         _______ _______ _______ _____ _____    ______ ____
ROOT
ATOM      2  O   UNL     1      18.107  -5.678  25.817  0.00  0.00    -0.252 OA
ATOM      5  N   UNL     1      19.354  -6.984  24.343  0.00  0.00    -0.278 N 
ATOM      6  N   UNL     1      21.371  -8.724  23.439  0.00  0.00    -0.295 NA
ATOM      7  N   UNL     1      18.588  -4.997  23.573  0.00  0.00    -0.254 N 
ATOM      8  C   UNL     1      19.703  -6.984  22.945  0.00  0.00    +0.109 C 
ATOM      9  C   UNL     1      21.151  -7.435  22.752  0.00  0.00    +0.109 C 
ATOM     10  C   UNL     1      19.411  -5.554  22.506  0.00  0.00    +0.139 C 
ATOM     11  C   UNL     1      19.665  -8.147  25.150  0.00  0.00    +0.125 C 
ATOM     12  C   UNL     1      21.102  -8.600  24.885  0.00  0.00    +0.104 C 
ATOM     13  C   UNL     1      18.607  -5.854  24.714  0.00  0.00    +0.309 C 
ENDROOT
BRANCH   7  15
ATOM     15  C   UNL     1      17.949  -3.728  23.462  0.00  0.00    +0.038 A 
ATOM     17  C   UNL     1      16.609  -3.653  23.083  0.00  0.00    +0.023 A 
ATOM     18  C   UNL     1      18.664  -2.561  23.733  0.00  0.00    +0.023 A 
ATOM     23  C   UNL     1      15.982  -2.412  22.974  0.00  0.00    +0.002 A 
ATOM     24  C   UNL     1      18.038  -1.319  23.624  0.00  0.00    +0.002 A 
ATOM     26  C   UNL     1      16.697  -1.245  23.244  0.00  0.00    +0.000 A 
ENDBRANCH   7  15
BRANCH   6  14
ATOM     14  C   UNL     1      22.738  -9.194  23.213  0.00  0.00    +0.119 C 
BRANCH  14  16
ATOM     16  C   UNL     1      22.964  -9.586  21.777  0.00  0.00    -0.033 A 
ATOM     19  C   UNL     1      24.261  -9.654  21.268  0.00  0.00    +0.007 A 
ATOM     20  C   UNL     1      21.876  -9.880  20.954  0.00  0.00    +0.007 A 
ATOM     21  C   UNL     1      24.471 -10.016  19.938  0.00  0.00    +0.027 A 
ATOM     22  C   UNL     1      22.085 -10.241  19.623  0.00  0.00    +0.027 A 
ATOM     25  C   UNL     1      23.382 -10.310  19.115  0.00  0.00    +0.088 A 
BRANCH  25   1
ATOM      1  S   UNL     1      23.646 -10.766  17.450  0.00  0.00    -0.006 S 
ATOM      3  O   UNL     1      22.369 -10.749  16.749  0.00  0.00    -0.170 OA
ATOM      4  O   UNL     1      24.761  -9.982  16.941  0.00  0.00    -0.170 OA
ATOM     27  C   UNL     1      24.166 -12.465  17.534  0.00  0.00    +0.200 C 
ENDBRANCH  25   1
ENDBRANCH  14  16
ENDBRANCH   6  14
TORSDOF 4
ENDMDL
MODEL 10
REMARK VINA RESULT:      -6.1      5.347     11.400
REMARK  Name = 75537056
REMARK  5 active torsions:
REMARK  status: ('A' for Active; 'I' for Inactive)
REMARK    1  A    between atoms: S_1  and  C_25
REMARK    2  A    between atoms: S_1  and  C_27
REMARK    3  A    between atoms: N_6  and  C_14
REMARK    4  A    between atoms: N_7  and  C_15
REMARK    5  A    between atoms: C_14  and  C_16
REMARK                            x       y       z     vdW  Elec       q    Type
REMARK                         _______ _______ _______ _____ _____    ______ ____
ROOT
ATOM      2  O   UNL     1     -17.079   6.051  21.602  0.00  0.00    -0.252 OA
ATOM      5  N   UNL     1     -14.838   6.641  21.347  0.00  0.00    -0.278 N 
ATOM      6  N   UNL     1     -12.458   7.424  20.068  0.00  0.00    -0.295 NA
ATOM      7  N   UNL     1     -15.312   4.982  22.814  0.00  0.00    -0.254 N 
ATOM      8  C   UNL     1     -13.576   6.350  21.978  0.00  0.00    +0.109 C 
ATOM      9  C   UNL     1     -12.467   6.228  20.933  0.00  0.00    +0.109 C 
ATOM     10  C   UNL     1     -13.858   5.078  22.768  0.00  0.00    +0.139 C 
ATOM     11  C   UNL     1     -14.909   7.702  20.363  0.00  0.00    +0.125 C 
ATOM     12  C   UNL     1     -13.751   7.577  19.371  0.00  0.00    +0.104 C 
ATOM     13  C   UNL     1     -15.900   5.904  21.897  0.00  0.00    +0.309 C 
ENDROOT
BRANCH   7  15
ATOM     15  C   UNL     1     -15.990   4.022  23.619  0.00  0.00    +0.038 A 
ATOM     17  C   UNL     1     -16.920   3.159  23.041  0.00  0.00    +0.023 A 
ATOM     18  C   UNL     1     -15.725   3.946  24.986  0.00  0.00    +0.023 A 
ATOM     23  C   UNL     1     -17.585   2.219  23.828  0.00  0.00    +0.002 A 
ATOM     24  C   UNL     1     -16.389   3.007  25.775  0.00  0.00    +0.002 A 
ATOM     26  C   UNL     1     -17.319   2.143  25.195  0.00  0.00    +0.000 A 
ENDBRANCH   7  15
BRANCH   6  14
ATOM     14  C   UNL     1     -11.364   7.345  19.100  0.00  0.00    +0.119 C 
BRANCH  14  16
ATOM     16  C   UNL     1     -10.963   8.706  18.596  0.00  0.00    -0.033 A 
ATOM     19  C   UNL     1     -10.417   8.845  17.320  0.00  0.00    +0.007 A 
ATOM     20  C   UNL     1     -11.138   9.829  19.405  0.00  0.00    +0.007 A 
ATOM     21  C   UNL     1     -10.045  10.105  16.853  0.00  0.00    +0.027 A 
ATOM     22  C   UNL     1     -10.766  11.090  18.938  0.00  0.00    +0.027 A 
ATOM     25  C   UNL     1     -10.220  11.228  17.663  0.00  0.00    +0.088 A 
BRANCH  25   1
ATOM      1  S   UNL     1      -9.758  12.806  17.076  0.00  0.00    -0.006 S 
ATOM      3  O   UNL     1     -10.180  13.811  18.042  0.00  0.00    -0.170 OA
ATOM      4  O   UNL     1      -8.363  12.741  16.664  0.00  0.00    -0.170 OA
ATOM     27  C   UNL     1     -10.748  13.043  15.618  0.00  0.00    +0.200 C 
ENDBRANCH  25   1
ENDBRANCH  14  16
ENDBRANCH   6  14
TORSDOF 4
ENDMDL
