REMARK  Name = 75536969
REMARK  3 active torsions:
REMARK  status: ('A' for Active; 'I' for Inactive)
REMARK    1  A    between atoms: O_3  and  C_16
REMARK    2  A    between atoms: O_3  and  C_21
REMARK    3  A    between atoms: N_7  and  C_15
REMARK                            x       y       z     vdW  Elec       q    Type
REMARK                         _______ _______ _______ _____ _____    ______ ____
ROOT
ATOM      1  O   UNL     1       5.886   0.380  -0.068  0.00  0.00    -0.253 OA
ATOM      2  O   UNL     1      -0.715   2.433  -0.386  0.00  0.00    -0.252 OA
ATOM      4  N   UNL     1       3.539   0.254  -0.191  0.00  0.00    -0.278 N 
ATOM      5  N   UNL     1       0.882   0.909   0.293  0.00  0.00    -0.282 N 
ATOM      6  N   UNL     1       4.707  -1.639   0.131  0.00  0.00    -0.297 N 
ATOM      7  N   UNL     1      -1.286   0.186  -0.286  0.00  0.00    -0.266 N 
ATOM      8  C   UNL     1       2.546  -0.807  -0.240  0.00  0.00    +0.112 C 
ATOM      9  C   UNL     1       1.353  -0.448   0.639  0.00  0.00    +0.133 C 
ATOM     10  C   UNL     1       3.322  -2.043   0.203  0.00  0.00    +0.129 C 
ATOM     11  C   UNL     1       3.137   1.636  -0.392  0.00  0.00    +0.128 C 
ATOM     12  C   UNL     1       1.906   1.954   0.457  0.00  0.00    +0.128 C 
ATOM     13  C   UNL     1       4.837  -0.249  -0.049  0.00  0.00    +0.303 C 
ATOM     14  C   UNL     1      -0.412   1.263  -0.139  0.00  0.00    +0.307 C 
ATOM     22  H   UNL     1       5.494  -2.264   0.278  0.00  0.00    +0.150 HD
ATOM     23  H   UNL     1      -0.894  -0.719  -0.519  0.00  0.00    +0.156 HD
ENDROOT
BRANCH   7  15
ATOM     15  C   UNL     1      -2.693   0.193  -0.121  0.00  0.00    +0.077 A 
ATOM     16  C   UNL     1      -3.437  -0.972  -0.306  0.00  0.00    +0.141 A 
ATOM     17  C   UNL     1      -3.335   1.382   0.226  0.00  0.00    +0.027 A 
ATOM     18  C   UNL     1      -4.822  -0.949  -0.143  0.00  0.00    +0.047 A 
ATOM     19  C   UNL     1      -4.720   1.405   0.389  0.00  0.00    +0.002 A 
ATOM     20  C   UNL     1      -5.464   0.240   0.204  0.00  0.00    +0.004 A 
BRANCH  16   3
ATOM      3  O   UNL     1      -2.829  -2.144  -0.645  0.00  0.00    -0.493 OA
ATOM     21  C   UNL     1      -2.401  -2.985   0.424  0.00  0.00    +0.277 C 
ENDBRANCH  16   3
ENDBRANCH   7  15
TORSDOF 2
