MODEL 1
REMARK VINA RESULT:      -5.9      0.000      0.000
REMARK  Name = 75537037
REMARK  1 active torsions:
REMARK  status: ('A' for Active; 'I' for Inactive)
REMARK    1  A    between atoms: N_3  and  C_7
REMARK                            x       y       z     vdW  Elec       q    Type
REMARK                         _______ _______ _______ _____ _____    ______ ____
ROOT
ATOM      2  O   UNL     1      13.164   6.804  18.855  0.00  0.00    -0.253 OA
ATOM      3  N   UNL     1      11.341  10.541  21.775  0.00  0.00    -0.296 NA
ATOM      4  N   UNL     1      11.922   8.299  20.181  0.00  0.00    -0.279 N 
ATOM      5  N   UNL     1      11.717   6.094  20.560  0.00  0.00    -0.297 N 
ATOM      6  C   UNL     1      10.883   8.196  21.183  0.00  0.00    +0.109 C 
ATOM      8  C   UNL     1      11.144   9.184  22.321  0.00  0.00    +0.108 C 
ATOM      9  C   UNL     1      12.491  10.576  20.850  0.00  0.00    +0.104 C 
ATOM     10  C   UNL     1      12.300   9.604  19.682  0.00  0.00    +0.125 C 
ATOM     11  C   UNL     1      10.919   6.725  21.588  0.00  0.00    +0.129 C 
ATOM     14  C   UNL     1      12.366   7.045  19.749  0.00  0.00    +0.303 C 
ATOM     17  H   UNL     1      11.863   5.093  20.483  0.00  0.00    +0.150 HD
ENDROOT
BRANCH   3   7
ATOM      1  O   UNL     1      10.380  13.267  24.820  0.00  0.00    -0.380 OA
ATOM      7  C   UNL     1      11.532  11.502  22.859  0.00  0.00    +0.061 C 
ATOM     12  C   UNL     1      10.916  12.854  22.486  0.00  0.00    +0.047 C 
ATOM     13  C   UNL     1      10.918  10.990  24.165  0.00  0.00    +0.047 C 
ATOM     15  C   UNL     1      11.006  13.820  23.662  0.00  0.00    +0.161 C 
ATOM     16  C   UNL     1      11.007  12.059  25.249  0.00  0.00    +0.161 C 
ENDBRANCH   3   7
TORSDOF 1
ENDMDL
MODEL 2
REMARK VINA RESULT:      -5.6     25.347     27.335
REMARK  Name = 75537037
REMARK  1 active torsions:
REMARK  status: ('A' for Active; 'I' for Inactive)
REMARK    1  A    between atoms: N_3  and  C_7
REMARK                            x       y       z     vdW  Elec       q    Type
REMARK                         _______ _______ _______ _____ _____    ______ ____
ROOT
ATOM      2  O   UNL     1      -7.740 -11.015  20.014  0.00  0.00    -0.253 OA
ATOM      3  N   UNL     1      -4.630 -11.621  16.042  0.00  0.00    -0.296 NA
ATOM      4  N   UNL     1      -6.678 -11.208  17.923  0.00  0.00    -0.279 N 
ATOM      5  N   UNL     1      -8.070  -9.480  18.271  0.00  0.00    -0.297 N 
ATOM      6  C   UNL     1      -6.759 -10.541  16.641  0.00  0.00    +0.109 C 
ATOM      8  C   UNL     1      -5.359 -10.338  16.060  0.00  0.00    +0.108 C 
ATOM      9  C   UNL     1      -4.498 -12.173  17.405  0.00  0.00    +0.104 C 
ATOM     10  C   UNL     1      -5.866 -12.400  18.054  0.00  0.00    +0.125 C 
ATOM     11  C   UNL     1      -7.518  -9.254  16.953  0.00  0.00    +0.129 C 
ATOM     14  C   UNL     1      -7.521 -10.626  18.876  0.00  0.00    +0.303 C 
ATOM     17  H   UNL     1      -8.709  -8.845  18.740  0.00  0.00    +0.150 HD
ENDROOT
BRANCH   3   7
ATOM      1  O   UNL     1      -1.263  -9.685  14.448  0.00  0.00    -0.380 OA
ATOM      7  C   UNL     1      -3.313 -11.450  15.433  0.00  0.00    +0.061 C 
ATOM     12  C   UNL     1      -3.436 -10.714  14.096  0.00  0.00    +0.047 C 
ATOM     13  C   UNL     1      -2.370 -10.686  16.367  0.00  0.00    +0.047 C 
ATOM     15  C   UNL     1      -2.055 -10.426  13.520  0.00  0.00    +0.161 C 
ATOM     16  C   UNL     1      -1.046 -10.399  15.665  0.00  0.00    +0.161 C 
ENDBRANCH   3   7
TORSDOF 1
ENDMDL
MODEL 3
REMARK VINA RESULT:      -5.5     28.041     28.889
REMARK  Name = 75537037
REMARK  1 active torsions:
REMARK  status: ('A' for Active; 'I' for Inactive)
REMARK    1  A    between atoms: N_3  and  C_7
REMARK                            x       y       z     vdW  Elec       q    Type
REMARK                         _______ _______ _______ _____ _____    ______ ____
ROOT
ATOM      2  O   UNL     1     -14.465  -0.672  29.453  0.00  0.00    -0.253 OA
ATOM      3  N   UNL     1     -14.590   3.923  31.618  0.00  0.00    -0.296 NA
ATOM      4  N   UNL     1     -14.686   1.595  30.046  0.00  0.00    -0.279 N 
ATOM      5  N   UNL     1     -16.370   0.598  28.943  0.00  0.00    -0.297 N 
ATOM      6  C   UNL     1     -15.629   2.660  29.780  0.00  0.00    +0.109 C 
ATOM      8  C   UNL     1     -15.876   3.479  31.047  0.00  0.00    +0.108 C 
ATOM      9  C   UNL     1     -13.738   2.768  31.963  0.00  0.00    +0.104 C 
ATOM     10  C   UNL     1     -13.451   1.896  30.737  0.00  0.00    +0.125 C 
ATOM     11  C   UNL     1     -16.854   1.928  29.239  0.00  0.00    +0.129 C 
ATOM     14  C   UNL     1     -15.087   0.380  29.478  0.00  0.00    +0.303 C 
ATOM     17  H   UNL     1     -16.919  -0.121  28.481  0.00  0.00    +0.150 HD
ENDROOT
BRANCH   3   7
ATOM      1  O   UNL     1     -13.758   6.065  35.132  0.00  0.00    -0.380 OA
ATOM      7  C   UNL     1     -14.817   4.757  32.796  0.00  0.00    +0.061 C 
ATOM     12  C   UNL     1     -14.448   3.991  34.070  0.00  0.00    +0.047 C 
ATOM     13  C   UNL     1     -14.012   6.057  32.715  0.00  0.00    +0.047 C 
ATOM     15  C   UNL     1     -14.567   4.899  35.288  0.00  0.00    +0.161 C 
ATOM     16  C   UNL     1     -14.155   6.852  34.009  0.00  0.00    +0.161 C 
ENDBRANCH   3   7
TORSDOF 1
ENDMDL
MODEL 4
REMARK VINA RESULT:      -5.4     28.163     28.951
REMARK  Name = 75537037
REMARK  1 active torsions:
REMARK  status: ('A' for Active; 'I' for Inactive)
REMARK    1  A    between atoms: N_3  and  C_7
REMARK                            x       y       z     vdW  Elec       q    Type
REMARK                         _______ _______ _______ _____ _____    ______ ____
ROOT
ATOM      2  O   UNL     1     -16.149   0.780  28.024  0.00  0.00    -0.253 OA
ATOM      3  N   UNL     1     -14.972   3.234  32.314  0.00  0.00    -0.296 NA
ATOM      4  N   UNL     1     -15.652   1.501  30.208  0.00  0.00    -0.279 N 
ATOM      5  N   UNL     1     -14.698  -0.388  29.452  0.00  0.00    -0.297 N 
ATOM      6  C   UNL     1     -14.936   0.971  31.349  0.00  0.00    +0.109 C 
ATOM      8  C   UNL     1     -14.112   2.072  32.017  0.00  0.00    +0.108 C 
ATOM      9  C   UNL     1     -15.571   3.778  31.079  0.00  0.00    +0.104 C 
ATOM     10  C   UNL     1     -16.411   2.725  30.352  0.00  0.00    +0.125 C 
ATOM     11  C   UNL     1     -14.119  -0.175  30.760  0.00  0.00    +0.129 C 
ATOM     14  C   UNL     1     -15.578   0.653  29.098  0.00  0.00    +0.303 C 
ATOM     17  H   UNL     1     -14.440  -1.145  28.827  0.00  0.00    +0.150 HD
ENDROOT
BRANCH   3   7
ATOM      1  O   UNL     1     -14.162   6.798  34.381  0.00  0.00    -0.380 OA
ATOM      7  C   UNL     1     -14.207   4.269  33.007  0.00  0.00    +0.061 C 
ATOM     12  C   UNL     1     -14.331   5.606  32.270  0.00  0.00    +0.047 C 
ATOM     13  C   UNL     1     -14.675   4.424  34.457  0.00  0.00    +0.047 C 
ATOM     15  C   UNL     1     -13.636   6.711  33.057  0.00  0.00    +0.161 C 
ATOM     16  C   UNL     1     -13.961   5.595  35.123  0.00  0.00    +0.161 C 
ENDBRANCH   3   7
TORSDOF 1
ENDMDL
MODEL 5
REMARK VINA RESULT:      -5.3     24.798     26.768
REMARK  Name = 75537037
REMARK  1 active torsions:
REMARK  status: ('A' for Active; 'I' for Inactive)
REMARK    1  A    between atoms: N_3  and  C_7
REMARK                            x       y       z     vdW  Elec       q    Type
REMARK                         _______ _______ _______ _____ _____    ______ ____
ROOT
ATOM      2  O   UNL     1      -2.303 -10.191  12.259  0.00  0.00    -0.253 OA
ATOM      3  N   UNL     1      -4.390 -11.917  16.558  0.00  0.00    -0.296 NA
ATOM      4  N   UNL     1      -2.834 -11.094  14.366  0.00  0.00    -0.279 N 
ATOM      5  N   UNL     1      -1.098  -9.677  14.206  0.00  0.00    -0.297 N 
ATOM      6  C   UNL     1      -2.242 -11.092  15.687  0.00  0.00    +0.109 C 
ATOM      8  C   UNL     1      -3.323 -10.916  16.753  0.00  0.00    +0.108 C 
ATOM      9  C   UNL     1      -5.014 -11.772  15.228  0.00  0.00    +0.104 C 
ATOM     10  C   UNL     1      -3.984 -11.934  14.106  0.00  0.00    +0.125 C 
ATOM     11  C   UNL     1      -1.217  -9.963  15.619  0.00  0.00    +0.129 C 
ATOM     14  C   UNL     1      -2.108 -10.314  13.460  0.00  0.00    +0.303 C 
ATOM     17  H   UNL     1      -0.426  -9.029  13.808  0.00  0.00    +0.150 HD
ENDROOT
BRANCH   3   7
ATOM      1  O   UNL     1      -6.507 -10.297  19.802  0.00  0.00    -0.380 OA
ATOM      7  C   UNL     1      -5.399 -11.796  17.608  0.00  0.00    +0.061 C 
ATOM     12  C   UNL     1      -4.731 -11.741  18.985  0.00  0.00    +0.047 C 
ATOM     13  C   UNL     1      -6.268 -10.553  17.397  0.00  0.00    +0.047 C 
ATOM     15  C   UNL     1      -5.772 -11.491  20.070  0.00  0.00    +0.161 C 
ATOM     16  C   UNL     1      -7.225 -10.369  18.570  0.00  0.00    +0.161 C 
ENDBRANCH   3   7
TORSDOF 1
ENDMDL
MODEL 6
REMARK VINA RESULT:      -5.3      4.025      6.235
REMARK  Name = 75537037
REMARK  1 active torsions:
REMARK  status: ('A' for Active; 'I' for Inactive)
REMARK    1  A    between atoms: N_3  and  C_7
REMARK                            x       y       z     vdW  Elec       q    Type
REMARK                         _______ _______ _______ _____ _____    ______ ____
ROOT
ATOM      2  O   UNL     1      13.086  11.685  13.855  0.00  0.00    -0.253 OA
ATOM      3  N   UNL     1      13.291   8.793  18.028  0.00  0.00    -0.296 NA
ATOM      4  N   UNL     1      13.638  10.355  15.716  0.00  0.00    -0.279 N 
ATOM      5  N   UNL     1      14.831  12.219  15.330  0.00  0.00    -0.297 N 
ATOM      6  C   UNL     1      14.693  10.326  16.707  0.00  0.00    +0.109 C 
ATOM      8  C   UNL     1      14.114  10.017  18.088  0.00  0.00    +0.108 C 
ATOM      9  C   UNL     1      12.175   8.954  17.075  0.00  0.00    +0.104 C 
ATOM     10  C   UNL     1      12.681   9.270  15.665  0.00  0.00    +0.125 C 
ATOM     11  C   UNL     1      15.347  11.698  16.577  0.00  0.00    +0.129 C 
ATOM     14  C   UNL     1      13.764  11.440  14.842  0.00  0.00    +0.303 C 
ATOM     17  H   UNL     1      15.139  13.087  14.901  0.00  0.00    +0.150 HD
ENDROOT
BRANCH   3   7
ATOM      1  O   UNL     1      11.047   6.847  20.995  0.00  0.00    -0.380 OA
ATOM      7  C   UNL     1      12.783   8.456  19.355  0.00  0.00    +0.061 C 
ATOM     12  C   UNL     1      11.269   8.684  19.420  0.00  0.00    +0.047 C 
ATOM     13  C   UNL     1      13.109   7.004  19.719  0.00  0.00    +0.047 C 
ATOM     15  C   UNL     1      10.720   8.217  20.762  0.00  0.00    +0.161 C 
ATOM     16  C   UNL     1      12.457   6.630  21.045  0.00  0.00    +0.161 C 
ENDBRANCH   3   7
TORSDOF 1
ENDMDL
MODEL 7
REMARK VINA RESULT:      -5.2     28.658     29.971
REMARK  Name = 75537037
REMARK  1 active torsions:
REMARK  status: ('A' for Active; 'I' for Inactive)
REMARK    1  A    between atoms: N_3  and  C_7
REMARK                            x       y       z     vdW  Elec       q    Type
REMARK                         _______ _______ _______ _____ _____    ______ ____
ROOT
ATOM      2  O   UNL     1     -17.535   5.836  34.734  0.00  0.00    -0.253 OA
ATOM      3  N   UNL     1     -14.836   3.673  31.012  0.00  0.00    -0.296 NA
ATOM      4  N   UNL     1     -15.921   5.017  33.230  0.00  0.00    -0.279 N 
ATOM      5  N   UNL     1     -15.535   4.828  35.435  0.00  0.00    -0.297 N 
ATOM      6  C   UNL     1     -14.579   4.484  33.321  0.00  0.00    +0.109 C 
ATOM      8  C   UNL     1     -14.415   3.294  32.375  0.00  0.00    +0.108 C 
ATOM      9  C   UNL     1     -16.250   4.097  30.994  0.00  0.00    +0.104 C 
ATOM     10  C   UNL     1     -16.490   5.288  31.927  0.00  0.00    +0.125 C 
ATOM     11  C   UNL     1     -14.424   4.152  34.803  0.00  0.00    +0.129 C 
ATOM     14  C   UNL     1     -16.464   5.299  34.488  0.00  0.00    +0.303 C 
ATOM     17  H   UNL     1     -15.676   4.883  36.439  0.00  0.00    +0.150 HD
ENDROOT
BRANCH   3   7
ATOM      1  O   UNL     1     -15.003  -0.221  29.452  0.00  0.00    -0.380 OA
ATOM      7  C   UNL     1     -14.627   2.561  30.087  0.00  0.00    +0.061 C 
ATOM     12  C   UNL     1     -13.823   1.448  30.765  0.00  0.00    +0.047 C 
ATOM     13  C   UNL     1     -15.962   2.008  29.579  0.00  0.00    +0.047 C 
ATOM     15  C   UNL     1     -13.710   0.239  29.844  0.00  0.00    +0.161 C 
ATOM     16  C   UNL     1     -15.731   0.767  28.724  0.00  0.00    +0.161 C 
ENDBRANCH   3   7
TORSDOF 1
ENDMDL
MODEL 8
REMARK VINA RESULT:      -5.1     23.715     24.509
REMARK  Name = 75537037
REMARK  1 active torsions:
REMARK  status: ('A' for Active; 'I' for Inactive)
REMARK    1  A    between atoms: N_3  and  C_7
REMARK                            x       y       z     vdW  Elec       q    Type
REMARK                         _______ _______ _______ _____ _____    ______ ____
ROOT
ATOM      2  O   UNL     1      -9.784  11.498  18.023  0.00  0.00    -0.253 OA
ATOM      3  N   UNL     1     -13.259   8.268  19.840  0.00  0.00    -0.296 NA
ATOM      4  N   UNL     1     -11.434   9.869  18.423  0.00  0.00    -0.279 N 
ATOM      5  N   UNL     1      -9.708   9.350  17.082  0.00  0.00    -0.297 N 
ATOM      6  C   UNL     1     -11.749   8.550  17.918  0.00  0.00    +0.109 C 
ATOM      8  C   UNL     1     -12.178   7.632  19.063  0.00  0.00    +0.108 C 
ATOM      9  C   UNL     1     -12.813   9.555  20.411  0.00  0.00    +0.104 C 
ATOM     10  C   UNL     1     -12.363  10.527  19.317  0.00  0.00    +0.125 C 
ATOM     11  C   UNL     1     -10.471   8.127  17.199  0.00  0.00    +0.129 C 
ATOM     14  C   UNL     1     -10.259  10.383  17.865  0.00  0.00    +0.303 C 
ATOM     17  H   UNL     1      -8.836   9.434  16.569  0.00  0.00    +0.150 HD
ENDROOT
BRANCH   3   7
ATOM      1  O   UNL     1     -14.480   4.725  21.734  0.00  0.00    -0.380 OA
ATOM      7  C   UNL     1     -13.717   7.373  20.901  0.00  0.00    +0.061 C 
ATOM     12  C   UNL     1     -15.066   6.751  20.527  0.00  0.00    +0.047 C 
ATOM     13  C   UNL     1     -12.690   6.271  21.174  0.00  0.00    +0.047 C 
ATOM     15  C   UNL     1     -15.485   5.726  21.574  0.00  0.00    +0.161 C 
ATOM     16  C   UNL     1     -13.241   5.271  22.186  0.00  0.00    +0.161 C 
ENDBRANCH   3   7
TORSDOF 1
ENDMDL
MODEL 9
REMARK VINA RESULT:      -5.1     24.305     25.029
REMARK  Name = 75537037
REMARK  1 active torsions:
REMARK  status: ('A' for Active; 'I' for Inactive)
REMARK    1  A    between atoms: N_3  and  C_7
REMARK                            x       y       z     vdW  Elec       q    Type
REMARK                         _______ _______ _______ _____ _____    ______ ____
ROOT
ATOM      2  O   UNL     1     -16.563   4.863  20.892  0.00  0.00    -0.253 OA
ATOM      3  N   UNL     1     -12.609   7.981  20.217  0.00  0.00    -0.296 NA
ATOM      4  N   UNL     1     -14.698   6.290  21.041  0.00  0.00    -0.279 N 
ATOM      5  N   UNL     1     -14.707   4.396  22.250  0.00  0.00    -0.297 N 
ATOM      6  C   UNL     1     -13.498   6.365  21.846  0.00  0.00    +0.109 C 
ATOM      8  C   UNL     1     -12.301   6.755  20.979  0.00  0.00    +0.108 C 
ATOM      9  C   UNL     1     -13.779   7.777  19.339  0.00  0.00    +0.104 C 
ATOM     10  C   UNL     1     -15.020   7.378  20.143  0.00  0.00    +0.125 C 
ATOM     11  C   UNL     1     -13.405   4.981  22.483  0.00  0.00    +0.129 C 
ATOM     14  C   UNL     1     -15.463   5.156  21.337  0.00  0.00    +0.303 C 
ATOM     17  H   UNL     1     -15.009   3.503  22.627  0.00  0.00    +0.150 HD
ENDROOT
BRANCH   3   7
ATOM      1  O   UNL     1     -10.392   9.820  17.163  0.00  0.00    -0.380 OA
ATOM      7  C   UNL     1     -11.450   8.397  19.430  0.00  0.00    +0.061 C 
ATOM     12  C   UNL     1     -11.557   7.859  18.000  0.00  0.00    +0.047 C 
ATOM     13  C   UNL     1     -11.318   9.922  19.407  0.00  0.00    +0.047 C 
ATOM     15  C   UNL     1     -10.413   8.393  17.146  0.00  0.00    +0.161 C 
ATOM     16  C   UNL     1     -10.186  10.343  18.475  0.00  0.00    +0.161 C 
ENDBRANCH   3   7
TORSDOF 1
ENDMDL
MODEL 10
REMARK VINA RESULT:      -4.9     25.971     27.634
REMARK  Name = 75537037
REMARK  1 active torsions:
REMARK  status: ('A' for Active; 'I' for Inactive)
REMARK    1  A    between atoms: N_3  and  C_7
REMARK                            x       y       z     vdW  Elec       q    Type
REMARK                         _______ _______ _______ _____ _____    ______ ____
ROOT
ATOM      2  O   UNL     1      -9.321 -10.527  18.508  0.00  0.00    -0.253 OA
ATOM      3  N   UNL     1      -4.669 -10.138  16.502  0.00  0.00    -0.296 NA
ATOM      4  N   UNL     1      -7.032 -10.289  18.018  0.00  0.00    -0.279 N 
ATOM      5  N   UNL     1      -7.638 -11.621  19.723  0.00  0.00    -0.297 N 
ATOM      6  C   UNL     1      -5.783 -10.698  18.624  0.00  0.00    +0.109 C 
ATOM      8  C   UNL     1      -4.801 -11.168  17.551  0.00  0.00    +0.108 C 
ATOM      9  C   UNL     1      -5.972  -9.866  15.862  0.00  0.00    +0.104 C 
ATOM     10  C   UNL     1      -7.010  -9.392  16.882  0.00  0.00    +0.125 C 
ATOM     11  C   UNL     1      -6.203 -11.770  19.625  0.00  0.00    +0.129 C 
ATOM     14  C   UNL     1      -8.142 -10.773  18.719  0.00  0.00    +0.303 C 
ATOM     17  H   UNL     1      -8.223 -12.130  20.378  0.00  0.00    +0.150 HD
ENDROOT
BRANCH   3   7
ATOM      1  O   UNL     1      -1.762 -12.489  14.592  0.00  0.00    -0.380 OA
ATOM      7  C   UNL     1      -3.688 -10.552  15.502  0.00  0.00    +0.061 C 
ATOM     12  C   UNL     1      -2.304 -10.697  16.141  0.00  0.00    +0.047 C 
ATOM     13  C   UNL     1      -4.099 -11.871  14.840  0.00  0.00    +0.047 C 
ATOM     15  C   UNL     1      -1.306 -11.247  15.128  0.00  0.00    +0.161 C 
ATOM     16  C   UNL     1      -3.002 -12.356  13.898  0.00  0.00    +0.161 C 
ENDBRANCH   3   7
TORSDOF 1
ENDMDL
