MODEL 1
REMARK VINA RESULT:      -8.0      0.000      0.000
REMARK  Name = 11911966
REMARK  2 active torsions:
REMARK  status: ('A' for Active; 'I' for Inactive)
REMARK    1  A    between atoms: C_17  and  C_20
REMARK    2  A    between atoms: C_18  and  C_21
REMARK                            x       y       z     vdW  Elec       q    Type
REMARK                         _______ _______ _______ _____ _____    ______ ____
ROOT
ATOM      2  O   UNL     1      15.340   6.392  21.663  0.00  0.00    -0.267 OA
ATOM      3  O   UNL     1      11.977   7.293  18.044  0.00  0.00    -0.268 OA
ATOM      4  N   UNL     1      13.958   8.272  21.640  0.00  0.00    -0.311 N 
ATOM      5  N   UNL     1      11.659   8.982  19.600  0.00  0.00    -0.295 N 
ATOM      8  C   UNL     1      11.415   8.117  21.918  0.00  0.00    +0.027 C 
ATOM      9  C   UNL     1      12.475  10.305  21.535  0.00  0.00    +0.054 C 
ATOM     10  C   UNL     1      11.528   9.539  22.457  0.00  0.00    +0.018 C 
ATOM     11  C   UNL     1      12.795   7.449  21.998  0.00  0.00    +0.130 C 
ATOM     12  C   UNL     1      10.859   8.130  20.482  0.00  0.00    +0.113 C 
ATOM     13  C   UNL     1      11.888  10.345  20.108  0.00  0.00    +0.117 C 
ATOM     14  C   UNL     1      13.847   9.659  21.499  0.00  0.00    +0.027 A 
ATOM     15  C   UNL     1      14.941  10.407  21.285  0.00  0.00    +0.022 A 
ATOM     16  C   UNL     1      15.198   7.610  21.539  0.00  0.00    +0.260 A 
ATOM     17  C   UNL     1      12.205   8.444  18.418  0.00  0.00    +0.266 C 
ATOM     18  C   UNL     1      16.397   8.475  21.266  0.00  0.00    +0.053 A 
ATOM     19  C   UNL     1      16.238   9.802  21.167  0.00  0.00    +0.016 A 
ENDROOT
BRANCH  18  21
ATOM      1  S   UNL     1      19.080   8.820  21.501  0.00  0.00    -0.088 S 
ATOM     21  C   UNL     1      17.694   7.896  21.123  0.00  0.00    +0.026 A 
ATOM     22  C   UNL     1      18.031   6.626  20.702  0.00  0.00    +0.024 A 
ATOM     24  C   UNL     1      19.448   6.395  20.684  0.00  0.00    -0.010 A 
ATOM     25  C   UNL     1      20.150   7.528  21.104  0.00  0.00    +0.020 A 
ATOM     26  C   UNL     1      20.188   5.244  20.321  0.00  0.00    +0.009 A 
ATOM     28  C   UNL     1      21.558   7.540  21.169  0.00  0.00    +0.015 A 
ATOM     30  C   UNL     1      21.585   5.252  20.385  0.00  0.00    +0.001 A 
ATOM     31  C   UNL     1      22.260   6.390  20.805  0.00  0.00    +0.001 A 
ENDBRANCH  18  21
BRANCH  17  20
ATOM      6  N   UNL     1      14.269   9.611  18.224  0.00  0.00    -0.247 NA
ATOM      7  N   UNL     1      13.554  10.553  15.681  0.00  0.00    -0.259 NA
ATOM     20  C   UNL     1      13.095   9.301  17.648  0.00  0.00    +0.144 A 
ATOM     23  C   UNL     1      12.739   9.759  16.403  0.00  0.00    +0.143 A 
ATOM     27  C   UNL     1      15.084  10.405  17.502  0.00  0.00    +0.131 A 
ATOM     29  C   UNL     1      14.733  10.867  16.252  0.00  0.00    +0.130 A 
ENDBRANCH  17  20
TORSDOF 2
ENDMDL
MODEL 2
REMARK VINA RESULT:      -7.8      1.950      2.639
REMARK  Name = 11911966
REMARK  2 active torsions:
REMARK  status: ('A' for Active; 'I' for Inactive)
REMARK    1  A    between atoms: C_17  and  C_20
REMARK    2  A    between atoms: C_18  and  C_21
REMARK                            x       y       z     vdW  Elec       q    Type
REMARK                         _______ _______ _______ _____ _____    ______ ____
ROOT
ATOM      2  O   UNL     1      16.106   6.427  18.752  0.00  0.00    -0.267 OA
ATOM      3  O   UNL     1      14.597  10.570  16.349  0.00  0.00    -0.268 OA
ATOM      4  N   UNL     1      14.392   7.806  19.532  0.00  0.00    -0.311 N 
ATOM      5  N   UNL     1      13.141  10.344  18.138  0.00  0.00    -0.295 N 
ATOM      8  C   UNL     1      12.162   8.063  18.296  0.00  0.00    +0.027 C 
ATOM      9  C   UNL     1      12.584   9.357  20.348  0.00  0.00    +0.054 C 
ATOM     10  C   UNL     1      11.600   8.403  19.673  0.00  0.00    +0.018 C 
ATOM     11  C   UNL     1      13.491   7.318  18.478  0.00  0.00    +0.130 C 
ATOM     12  C   UNL     1      12.324   9.341  17.452  0.00  0.00    +0.113 C 
ATOM     13  C   UNL     1      12.707  10.650  19.513  0.00  0.00    +0.117 C 
ATOM     14  C   UNL     1      13.952   8.718  20.495  0.00  0.00    +0.027 A 
ATOM     15  C   UNL     1      14.752   9.064  21.516  0.00  0.00    +0.022 A 
ATOM     16  C   UNL     1      15.682   7.239  19.576  0.00  0.00    +0.260 A 
ATOM     17  C   UNL     1      14.285  10.864  17.503  0.00  0.00    +0.266 C 
ATOM     18  C   UNL     1      16.563   7.673  20.714  0.00  0.00    +0.053 A 
ATOM     19  C   UNL     1      16.081   8.531  21.625  0.00  0.00    +0.016 A 
ENDROOT
BRANCH  18  21
ATOM      1  S   UNL     1      19.083   8.111  21.628  0.00  0.00    -0.088 S 
ATOM     21  C   UNL     1      17.896   7.174  20.834  0.00  0.00    +0.026 A 
ATOM     22  C   UNL     1      18.413   5.977  20.384  0.00  0.00    +0.024 A 
ATOM     24  C   UNL     1      19.806   5.814  20.688  0.00  0.00    -0.010 A 
ATOM     25  C   UNL     1      20.306   6.923  21.376  0.00  0.00    +0.020 A 
ATOM     26  C   UNL     1      20.692   4.747  20.403  0.00  0.00    +0.009 A 
ATOM     28  C   UNL     1      21.654   6.991  21.783  0.00  0.00    +0.015 A 
ATOM     30  C   UNL     1      22.029   4.811  20.805  0.00  0.00    +0.001 A 
ATOM     31  C   UNL     1      22.502   5.923  21.487  0.00  0.00    +0.001 A 
ENDBRANCH  18  21
BRANCH  17  20
ATOM      6  N   UNL     1      16.043  11.177  19.075  0.00  0.00    -0.247 NA
ATOM      7  N   UNL     1      15.754  13.962  18.919  0.00  0.00    -0.259 NA
ATOM     20  C   UNL     1      15.127  11.760  18.283  0.00  0.00    +0.144 A 
ATOM     23  C   UNL     1      14.981  13.123  18.201  0.00  0.00    +0.143 A 
ATOM     27  C   UNL     1      16.816  12.017  19.792  0.00  0.00    +0.131 A 
ATOM     29  C   UNL     1      16.675  13.385  19.715  0.00  0.00    +0.130 A 
ENDBRANCH  17  20
TORSDOF 2
ENDMDL
MODEL 3
REMARK VINA RESULT:      -7.8     27.178     30.337
REMARK  Name = 11911966
REMARK  2 active torsions:
REMARK  status: ('A' for Active; 'I' for Inactive)
REMARK    1  A    between atoms: C_17  and  C_20
REMARK    2  A    between atoms: C_18  and  C_21
REMARK                            x       y       z     vdW  Elec       q    Type
REMARK                         _______ _______ _______ _____ _____    ______ ____
ROOT
ATOM      2  O   UNL     1      -6.748 -10.077  14.512  0.00  0.00    -0.267 OA
ATOM      3  O   UNL     1      -4.752 -14.258  12.574  0.00  0.00    -0.268 OA
ATOM      4  N   UNL     1      -4.468 -10.566  14.600  0.00  0.00    -0.311 N 
ATOM      5  N   UNL     1      -2.944 -13.012  13.317  0.00  0.00    -0.295 N 
ATOM      8  C   UNL     1      -2.998 -10.662  12.503  0.00  0.00    +0.027 C 
ATOM      9  C   UNL     1      -2.026 -11.171  14.707  0.00  0.00    +0.054 C 
ATOM     10  C   UNL     1      -1.860 -10.310  13.455  0.00  0.00    +0.018 C 
ATOM     11  C   UNL     1      -4.330 -10.282  13.164  0.00  0.00    +0.130 C 
ATOM     12  C   UNL     1      -2.942 -12.155  12.129  0.00  0.00    +0.113 C 
ATOM     13  C   UNL     1      -1.927 -12.663  14.324  0.00  0.00    +0.117 C 
ATOM     14  C   UNL     1      -3.359 -10.908  15.380  0.00  0.00    +0.027 A 
ATOM     15  C   UNL     1      -3.485 -11.051  16.709  0.00  0.00    +0.022 A 
ATOM     16  C   UNL     1      -5.748 -10.384  15.162  0.00  0.00    +0.260 A 
ATOM     17  C   UNL     1      -3.926 -14.011  13.453  0.00  0.00    +0.266 C 
ATOM     18  C   UNL     1      -5.858 -10.584  16.648  0.00  0.00    +0.053 A 
ATOM     19  C   UNL     1      -4.758 -10.885  17.352  0.00  0.00    +0.016 A 
ENDROOT
BRANCH  18  21
ATOM      1  S   UNL     1      -7.449 -11.379  18.700  0.00  0.00    -0.088 S 
ATOM     21  C   UNL     1      -7.117 -10.446  17.309  0.00  0.00    +0.026 A 
ATOM     22  C   UNL     1      -8.177  -9.626  16.984  0.00  0.00    +0.024 A 
ATOM     24  C   UNL     1      -9.287  -9.756  17.884  0.00  0.00    -0.010 A 
ATOM     25  C   UNL     1      -9.021 -10.695  18.884  0.00  0.00    +0.020 A 
ATOM     26  C   UNL     1     -10.543  -9.102  17.896  0.00  0.00    +0.009 A 
ATOM     28  C   UNL     1      -9.966 -10.994  19.885  0.00  0.00    +0.015 A 
ATOM     30  C   UNL     1     -11.484  -9.396  18.889  0.00  0.00    +0.001 A 
ATOM     31  C   UNL     1     -11.195 -10.332  19.871  0.00  0.00    +0.001 A 
ENDBRANCH  18  21
BRANCH  17  20
ATOM      6  N   UNL     1      -4.762 -14.252  15.668  0.00  0.00    -0.247 NA
ATOM      7  N   UNL     1      -3.218 -16.562  16.052  0.00  0.00    -0.259 NA
ATOM     20  C   UNL     1      -3.957 -14.744  14.711  0.00  0.00    +0.144 A 
ATOM     23  C   UNL     1      -3.199 -15.876  14.893  0.00  0.00    +0.143 A 
ATOM     27  C   UNL     1      -4.781 -14.939  16.828  0.00  0.00    +0.131 A 
ATOM     29  C   UNL     1      -4.024 -16.074  17.016  0.00  0.00    +0.130 A 
ENDBRANCH  17  20
TORSDOF 2
ENDMDL
MODEL 4
REMARK VINA RESULT:      -7.7     26.144     28.775
REMARK  Name = 11911966
REMARK  2 active torsions:
REMARK  status: ('A' for Active; 'I' for Inactive)
REMARK    1  A    between atoms: C_17  and  C_20
REMARK    2  A    between atoms: C_18  and  C_21
REMARK                            x       y       z     vdW  Elec       q    Type
REMARK                         _______ _______ _______ _____ _____    ______ ____
ROOT
ATOM      2  O   UNL     1     -12.850  10.228  20.360  0.00  0.00    -0.267 OA
ATOM      3  O   UNL     1     -14.249  12.184  15.951  0.00  0.00    -0.268 OA
ATOM      4  N   UNL     1     -11.399  10.467  18.548  0.00  0.00    -0.311 N 
ATOM      5  N   UNL     1     -11.970  11.814  15.753  0.00  0.00    -0.295 N 
ATOM      8  C   UNL     1     -10.675  12.757  17.655  0.00  0.00    +0.027 C 
ATOM      9  C   UNL     1      -9.894  10.704  16.542  0.00  0.00    +0.054 C 
ATOM     10  C   UNL     1      -9.432  12.018  17.170  0.00  0.00    +0.018 C 
ATOM     11  C   UNL     1     -11.348  11.922  18.752  0.00  0.00    +0.130 C 
ATOM     12  C   UNL     1     -11.625  13.039  16.476  0.00  0.00    +0.113 C 
ATOM     13  C   UNL     1     -10.813  11.001  15.338  0.00  0.00    +0.117 C 
ATOM     14  C   UNL     1     -10.640   9.849  17.549  0.00  0.00    +0.027 A 
ATOM     15  C   UNL     1     -10.611   8.511  17.452  0.00  0.00    +0.022 A 
ATOM     16  C   UNL     1     -12.173   9.725  19.463  0.00  0.00    +0.260 A 
ATOM     17  C   UNL     1     -13.323  11.462  15.583  0.00  0.00    +0.266 C 
ATOM     18  C   UNL     1     -12.143   8.230  19.304  0.00  0.00    +0.053 A 
ATOM     19  C   UNL     1     -11.376   7.688  18.346  0.00  0.00    +0.016 A 
ENDROOT
BRANCH  18  21
ATOM      1  S   UNL     1     -14.608   7.320  19.988  0.00  0.00    -0.088 S 
ATOM     21  C   UNL     1     -12.911   7.391  20.166  0.00  0.00    +0.026 A 
ATOM     22  C   UNL     1     -12.475   6.573  21.188  0.00  0.00    +0.024 A 
ATOM     24  C   UNL     1     -13.541   5.872  21.844  0.00  0.00    -0.010 A 
ATOM     25  C   UNL     1     -14.779   6.192  21.280  0.00  0.00    +0.020 A 
ATOM     26  C   UNL     1     -13.514   4.953  22.921  0.00  0.00    +0.009 A 
ATOM     28  C   UNL     1     -15.977   5.624  21.759  0.00  0.00    +0.015 A 
ATOM     30  C   UNL     1     -14.699   4.387  23.399  0.00  0.00    +0.001 A 
ATOM     31  C   UNL     1     -15.917   4.722  22.822  0.00  0.00    +0.001 A 
ENDBRANCH  18  21
BRANCH  17  20
ATOM      6  N   UNL     1     -13.592  10.136  13.626  0.00  0.00    -0.247 NA
ATOM      7  N   UNL     1     -14.116   7.861  15.180  0.00  0.00    -0.259 NA
ATOM     20  C   UNL     1     -13.601  10.171  14.970  0.00  0.00    +0.144 A 
ATOM     23  C   UNL     1     -13.856   9.060  15.736  0.00  0.00    +0.143 A 
ATOM     27  C   UNL     1     -13.851   8.935  13.070  0.00  0.00    +0.131 A 
ATOM     29  C   UNL     1     -14.107   7.818  13.833  0.00  0.00    +0.130 A 
ENDBRANCH  17  20
TORSDOF 2
ENDMDL
MODEL 5
REMARK VINA RESULT:      -7.7     28.020     30.383
REMARK  Name = 11911966
REMARK  2 active torsions:
REMARK  status: ('A' for Active; 'I' for Inactive)
REMARK    1  A    between atoms: C_17  and  C_20
REMARK    2  A    between atoms: C_18  and  C_21
REMARK                            x       y       z     vdW  Elec       q    Type
REMARK                         _______ _______ _______ _____ _____    ______ ____
ROOT
ATOM      2  O   UNL     1      -6.507 -13.053  15.273  0.00  0.00    -0.267 OA
ATOM      3  O   UNL     1     -11.352 -12.127  16.215  0.00  0.00    -0.268 OA
ATOM      4  N   UNL     1      -7.291 -12.327  17.347  0.00  0.00    -0.311 N 
ATOM      5  N   UNL     1     -10.276 -11.848  18.248  0.00  0.00    -0.295 N 
ATOM      8  C   UNL     1      -8.806 -13.768  18.829  0.00  0.00    +0.027 C 
ATOM      9  C   UNL     1      -8.190 -11.496  19.548  0.00  0.00    +0.054 C 
ATOM     10  C   UNL     1      -8.212 -12.961  19.979  0.00  0.00    +0.018 C 
ATOM     11  C   UNL     1      -7.879 -13.648  17.612  0.00  0.00    +0.130 C 
ATOM     12  C   UNL     1     -10.236 -13.286  18.518  0.00  0.00    +0.113 C 
ATOM     13  C   UNL     1      -9.632 -11.014  19.278  0.00  0.00    +0.117 C 
ATOM     14  C   UNL     1      -7.351 -11.305  18.299  0.00  0.00    +0.027 A 
ATOM     15  C   UNL     1      -6.710 -10.145  18.087  0.00  0.00    +0.022 A 
ATOM     16  C   UNL     1      -6.589 -12.177  16.134  0.00  0.00    +0.260 A 
ATOM     17  C   UNL     1     -10.825 -11.380  17.039  0.00  0.00    +0.266 C 
ATOM     18  C   UNL     1      -5.911 -10.853  15.915  0.00  0.00    +0.053 A 
ATOM     19  C   UNL     1      -5.978  -9.917  16.873  0.00  0.00    +0.016 A 
ENDROOT
BRANCH  18  21
ATOM      1  S   UNL     1      -6.032 -10.028  13.331  0.00  0.00    -0.088 S 
ATOM     21  C   UNL     1      -5.195 -10.593  14.708  0.00  0.00    +0.026 A 
ATOM     22  C   UNL     1      -3.845 -10.734  14.458  0.00  0.00    +0.024 A 
ATOM     24  C   UNL     1      -3.480 -10.376  13.117  0.00  0.00    -0.010 A 
ATOM     25  C   UNL     1      -4.594  -9.966  12.381  0.00  0.00    +0.020 A 
ATOM     26  C   UNL     1      -2.218 -10.381  12.475  0.00  0.00    +0.009 A 
ATOM     28  C   UNL     1      -4.482  -9.565  11.035  0.00  0.00    +0.015 A 
ATOM     30  C   UNL     1      -2.102  -9.983  11.139  0.00  0.00    +0.001 A 
ATOM     31  C   UNL     1      -3.224  -9.580  10.430  0.00  0.00    +0.001 A 
ENDBRANCH  18  21
BRANCH  17  20
ATOM      6  N   UNL     1      -9.626  -9.550  16.103  0.00  0.00    -0.247 NA
ATOM      7  N   UNL     1     -11.612  -7.756  16.942  0.00  0.00    -0.259 NA
ATOM     20  C   UNL     1     -10.721  -9.953  16.771  0.00  0.00    +0.144 A 
ATOM     23  C   UNL     1     -11.697  -9.079  17.184  0.00  0.00    +0.143 A 
ATOM     27  C   UNL     1      -9.541  -8.227  15.861  0.00  0.00    +0.131 A 
ATOM     29  C   UNL     1     -10.517  -7.346  16.272  0.00  0.00    +0.130 A 
ENDBRANCH  17  20
TORSDOF 2
ENDMDL
MODEL 6
REMARK VINA RESULT:      -7.5      5.074     10.527
REMARK  Name = 11911966
REMARK  2 active torsions:
REMARK  status: ('A' for Active; 'I' for Inactive)
REMARK    1  A    between atoms: C_17  and  C_20
REMARK    2  A    between atoms: C_18  and  C_21
REMARK                            x       y       z     vdW  Elec       q    Type
REMARK                         _______ _______ _______ _____ _____    ______ ____
ROOT
ATOM      2  O   UNL     1      20.228   3.524  20.529  0.00  0.00    -0.267 OA
ATOM      3  O   UNL     1      22.364   2.290  24.903  0.00  0.00    -0.268 OA
ATOM      4  N   UNL     1      22.469   3.945  21.022  0.00  0.00    -0.311 N 
ATOM      5  N   UNL     1      24.091   3.121  23.599  0.00  0.00    -0.295 N 
ATOM      8  C   UNL     1      24.185   2.069  21.347  0.00  0.00    +0.027 C 
ATOM      9  C   UNL     1      24.867   4.418  21.630  0.00  0.00    +0.054 C 
ATOM     10  C   UNL     1      25.203   3.115  20.905  0.00  0.00    +0.018 C 
ATOM     11  C   UNL     1      22.789   2.516  20.891  0.00  0.00    +0.130 C 
ATOM     12  C   UNL     1      24.257   1.861  22.872  0.00  0.00    +0.113 C 
ATOM     13  C   UNL     1      24.982   4.206  23.154  0.00  0.00    +0.117 C 
ATOM     14  C   UNL     1      23.466   4.888  21.288  0.00  0.00    +0.027 A 
ATOM     15  C   UNL     1      23.175   6.199  21.290  0.00  0.00    +0.022 A 
ATOM     16  C   UNL     1      21.134   4.322  20.773  0.00  0.00    +0.260 A 
ATOM     17  C   UNL     1      23.079   3.236  24.572  0.00  0.00    +0.266 C 
ATOM     18  C   UNL     1      20.837   5.795  20.816  0.00  0.00    +0.053 A 
ATOM     19  C   UNL     1      21.836   6.658  21.050  0.00  0.00    +0.016 A 
ENDROOT
BRANCH  18  21
ATOM      1  S   UNL     1      18.944   7.624  21.484  0.00  0.00    -0.088 S 
ATOM     21  C   UNL     1      19.510   6.276  20.601  0.00  0.00    +0.026 A 
ATOM     22  C   UNL     1      18.547   5.796  19.737  0.00  0.00    +0.024 A 
ATOM     24  C   UNL     1      17.320   6.538  19.792  0.00  0.00    -0.010 A 
ATOM     25  C   UNL     1      17.400   7.580  20.719  0.00  0.00    +0.020 A 
ATOM     26  C   UNL     1      16.109   6.368  19.077  0.00  0.00    +0.009 A 
ATOM     28  C   UNL     1      16.314   8.449  20.947  0.00  0.00    +0.015 A 
ATOM     30  C   UNL     1      15.029   7.228  19.301  0.00  0.00    +0.001 A 
ATOM     31  C   UNL     1      15.134   8.256  20.227  0.00  0.00    +0.001 A 
ENDBRANCH  18  21
BRANCH  17  20
ATOM      6  N   UNL     1      22.021   5.366  24.536  0.00  0.00    -0.247 NA
ATOM      7  N   UNL     1      23.362   6.127  26.879  0.00  0.00    -0.259 NA
ATOM     20  C   UNL     1      22.879   4.548  25.170  0.00  0.00    +0.144 A 
ATOM     23  C   UNL     1      23.539   4.915  26.317  0.00  0.00    +0.143 A 
ATOM     27  C   UNL     1      21.844   6.579  25.099  0.00  0.00    +0.131 A 
ATOM     29  C   UNL     1      22.502   6.952  26.250  0.00  0.00    +0.130 A 
ENDBRANCH  17  20
TORSDOF 2
ENDMDL
MODEL 7
REMARK VINA RESULT:      -7.4     28.283     30.182
REMARK  Name = 11911966
REMARK  2 active torsions:
REMARK  status: ('A' for Active; 'I' for Inactive)
REMARK    1  A    between atoms: C_17  and  C_20
REMARK    2  A    between atoms: C_18  and  C_21
REMARK                            x       y       z     vdW  Elec       q    Type
REMARK                         _______ _______ _______ _____ _____    ______ ____
ROOT
ATOM      2  O   UNL     1      -7.114  -9.654  13.428  0.00  0.00    -0.267 OA
ATOM      3  O   UNL     1      -7.309 -12.621   9.382  0.00  0.00    -0.268 OA
ATOM      4  N   UNL     1      -5.486  -9.647  11.757  0.00  0.00    -0.311 N 
ATOM      5  N   UNL     1      -5.458 -11.266   9.050  0.00  0.00    -0.295 N 
ATOM      8  C   UNL     1      -5.966  -8.853   9.369  0.00  0.00    +0.027 C 
ATOM      9  C   UNL     1      -3.736  -9.720   9.948  0.00  0.00    +0.054 C 
ATOM     10  C   UNL     1      -4.474  -8.536   9.324  0.00  0.00    +0.018 C 
ATOM     11  C   UNL     1      -6.403  -8.961  10.836  0.00  0.00    +0.130 C 
ATOM     12  C   UNL     1      -6.265 -10.140   8.577  0.00  0.00    +0.113 C 
ATOM     13  C   UNL     1      -4.012 -10.995   9.123  0.00  0.00    +0.117 C 
ATOM     14  C   UNL     1      -4.171  -9.942  11.383  0.00  0.00    +0.027 A 
ATOM     15  C   UNL     1      -3.315 -10.464  12.276  0.00  0.00    +0.022 A 
ATOM     16  C   UNL     1      -5.967  -9.904  13.057  0.00  0.00    +0.260 A 
ATOM     17  C   UNL     1      -6.093 -12.452   9.467  0.00  0.00    +0.266 C 
ATOM     18  C   UNL     1      -4.990 -10.519  14.021  0.00  0.00    +0.053 A 
ATOM     19  C   UNL     1      -3.734 -10.757  13.618  0.00  0.00    +0.016 A 
ENDROOT
BRANCH  18  21
ATOM      1  S   UNL     1      -6.395 -12.189  15.637  0.00  0.00    -0.088 S 
ATOM     21  C   UNL     1      -5.388 -10.839  15.354  0.00  0.00    +0.026 A 
ATOM     22  C   UNL     1      -5.067 -10.192  16.529  0.00  0.00    +0.024 A 
ATOM     24  C   UNL     1      -5.652 -10.803  17.688  0.00  0.00    -0.010 A 
ATOM     25  C   UNL     1      -6.415 -11.921  17.340  0.00  0.00    +0.020 A 
ATOM     26  C   UNL     1      -5.568 -10.450  19.057  0.00  0.00    +0.009 A 
ATOM     28  C   UNL     1      -7.088 -12.686  18.312  0.00  0.00    +0.015 A 
ATOM     30  C   UNL     1      -6.235 -11.207  20.025  0.00  0.00    +0.001 A 
ATOM     31  C   UNL     1      -6.986 -12.313  19.654  0.00  0.00    +0.001 A 
ENDBRANCH  18  21
BRANCH  17  20
ATOM      6  N   UNL     1      -5.093 -13.451  11.381  0.00  0.00    -0.247 NA
ATOM      7  N   UNL     1      -3.872 -15.406   9.783  0.00  0.00    -0.259 NA
ATOM     20  C   UNL     1      -5.249 -13.488  10.046  0.00  0.00    +0.144 A 
ATOM     23  C   UNL     1      -4.655 -14.443   9.258  0.00  0.00    +0.143 A 
ATOM     27  C   UNL     1      -4.310 -14.416  11.905  0.00  0.00    +0.131 A 
ATOM     29  C   UNL     1      -3.710 -15.376  11.120  0.00  0.00    +0.130 A 
ENDBRANCH  17  20
TORSDOF 2
ENDMDL
MODEL 8
REMARK VINA RESULT:      -7.3     21.431     24.184
REMARK  Name = 11911966
REMARK  2 active torsions:
REMARK  status: ('A' for Active; 'I' for Inactive)
REMARK    1  A    between atoms: C_17  and  C_20
REMARK    2  A    between atoms: C_18  and  C_21
REMARK                            x       y       z     vdW  Elec       q    Type
REMARK                         _______ _______ _______ _____ _____    ______ ____
ROOT
ATOM      2  O   UNL     1       9.563  -9.381  32.584  0.00  0.00    -0.267 OA
ATOM      3  O   UNL     1       9.246  -7.953  37.388  0.00  0.00    -0.268 OA
ATOM      4  N   UNL     1       8.767  -7.290  33.248  0.00  0.00    -0.311 N 
ATOM      5  N   UNL     1       8.632  -6.086  36.160  0.00  0.00    -0.295 N 
ATOM      8  C   UNL     1      10.264  -5.537  34.366  0.00  0.00    +0.027 C 
ATOM      9  C   UNL     1       7.871  -5.069  34.026  0.00  0.00    +0.054 C 
ATOM     10  C   UNL     1       9.280  -4.528  33.783  0.00  0.00    +0.018 C 
ATOM     11  C   UNL     1      10.127  -6.859  33.599  0.00  0.00    +0.130 C 
ATOM     12  C   UNL     1      10.019  -5.714  35.876  0.00  0.00    +0.113 C 
ATOM     13  C   UNL     1       7.624  -5.204  35.544  0.00  0.00    +0.117 C 
ATOM     14  C   UNL     1       7.680  -6.418  33.360  0.00  0.00    +0.027 A 
ATOM     15  C   UNL     1       6.465  -6.791  32.927  0.00  0.00    +0.022 A 
ATOM     16  C   UNL     1       8.631  -8.584  32.707  0.00  0.00    +0.260 A 
ATOM     17  C   UNL     1       8.359  -7.255  36.896  0.00  0.00    +0.266 C 
ATOM     18  C   UNL     1       7.251  -8.981  32.262  0.00  0.00    +0.053 A 
ATOM     19  C   UNL     1       6.249  -8.096  32.368  0.00  0.00    +0.016 A 
ENDROOT
BRANCH  18  21
ATOM      1  S   UNL     1       6.383 -11.511  32.729  0.00  0.00    -0.088 S 
ATOM     21  C   UNL     1       7.005 -10.280  31.723  0.00  0.00    +0.026 A 
ATOM     22  C   UNL     1       7.201 -10.730  30.433  0.00  0.00    +0.024 A 
ATOM     24  C   UNL     1       6.840 -12.107  30.256  0.00  0.00    -0.010 A 
ATOM     25  C   UNL     1       6.370 -12.665  31.448  0.00  0.00    +0.020 A 
ATOM     26  C   UNL     1       6.891 -12.932  29.106  0.00  0.00    +0.009 A 
ATOM     28  C   UNL     1       5.954 -14.009  31.520  0.00  0.00    +0.015 A 
ATOM     30  C   UNL     1       6.478 -14.266  29.173  0.00  0.00    +0.001 A 
ATOM     31  C   UNL     1       6.016 -14.796  30.369  0.00  0.00    +0.001 A 
ENDBRANCH  18  21
BRANCH  17  20
ATOM      6  N   UNL     1       6.480  -8.482  36.106  0.00  0.00    -0.247 NA
ATOM      7  N   UNL     1       4.899  -7.511  38.209  0.00  0.00    -0.259 NA
ATOM     20  C   UNL     1       6.962  -7.640  37.037  0.00  0.00    +0.144 A 
ATOM     23  C   UNL     1       6.193  -7.162  38.069  0.00  0.00    +0.143 A 
ATOM     27  C   UNL     1       5.186  -8.831  36.246  0.00  0.00    +0.131 A 
ATOM     29  C   UNL     1       4.409  -8.355  37.280  0.00  0.00    +0.130 A 
ENDBRANCH  17  20
TORSDOF 2
ENDMDL
MODEL 9
REMARK VINA RESULT:      -7.1     31.663     33.252
REMARK  Name = 11911966
REMARK  2 active torsions:
REMARK  status: ('A' for Active; 'I' for Inactive)
REMARK    1  A    between atoms: C_17  and  C_20
REMARK    2  A    between atoms: C_18  and  C_21
REMARK                            x       y       z     vdW  Elec       q    Type
REMARK                         _______ _______ _______ _____ _____    ______ ____
ROOT
ATOM      2  O   UNL     1     -12.115  -7.697   9.988  0.00  0.00    -0.267 OA
ATOM      3  O   UNL     1     -16.661  -5.647  10.587  0.00  0.00    -0.268 OA
ATOM      4  N   UNL     1     -12.516  -5.850  11.357  0.00  0.00    -0.311 N 
ATOM      5  N   UNL     1     -15.278  -4.489  12.043  0.00  0.00    -0.295 N 
ATOM      8  C   UNL     1     -13.929  -5.997  13.490  0.00  0.00    +0.027 C 
ATOM      9  C   UNL     1     -13.000  -3.830  12.781  0.00  0.00    +0.054 C 
ATOM     10  C   UNL     1     -13.099  -4.804  13.954  0.00  0.00    +0.018 C 
ATOM     11  C   UNL     1     -13.182  -6.704  12.351  0.00  0.00    +0.130 C 
ATOM     12  C   UNL     1     -15.336  -5.538  13.063  0.00  0.00    +0.113 C 
ATOM     13  C   UNL     1     -14.413  -3.347  12.388  0.00  0.00    +0.117 C 
ATOM     14  C   UNL     1     -12.338  -4.482  11.582  0.00  0.00    +0.027 A 
ATOM     15  C   UNL     1     -11.627  -3.741  10.717  0.00  0.00    +0.022 A 
ATOM     16  C   UNL     1     -11.987  -6.494  10.220  0.00  0.00    +0.260 A 
ATOM     17  C   UNL     1     -15.950  -4.669  10.818  0.00  0.00    +0.266 C 
ATOM     18  C   UNL     1     -11.225  -5.627   9.256  0.00  0.00    +0.053 A 
ATOM     19  C   UNL     1     -11.061  -4.326   9.534  0.00  0.00    +0.016 A 
ENDROOT
BRANCH  18  21
ATOM      1  S   UNL     1      -9.006  -6.557   7.997  0.00  0.00    -0.088 S 
ATOM     21  C   UNL     1     -10.671  -6.180   8.062  0.00  0.00    +0.026 A 
ATOM     22  C   UNL     1     -11.305  -6.480   6.874  0.00  0.00    +0.024 A 
ATOM     24  C   UNL     1     -10.421  -7.028   5.886  0.00  0.00    -0.010 A 
ATOM     25  C   UNL     1      -9.115  -7.127   6.373  0.00  0.00    +0.020 A 
ATOM     26  C   UNL     1     -10.676  -7.458   4.560  0.00  0.00    +0.009 A 
ATOM     28  C   UNL     1      -8.069  -7.638   5.580  0.00  0.00    +0.015 A 
ATOM     30  C   UNL     1      -9.640  -7.966   3.770  0.00  0.00    +0.001 A 
ATOM     31  C   UNL     1      -8.351  -8.054   4.278  0.00  0.00    +0.001 A 
ENDBRANCH  18  21
BRANCH  17  20
ATOM      6  N   UNL     1     -14.710  -3.837   8.966  0.00  0.00    -0.247 NA
ATOM      7  N   UNL     1     -16.413  -1.619   8.758  0.00  0.00    -0.259 NA
ATOM     20  C   UNL     1     -15.750  -3.651   9.796  0.00  0.00    +0.144 A 
ATOM     23  C   UNL     1     -16.588  -2.567   9.699  0.00  0.00    +0.143 A 
ATOM     27  C   UNL     1     -14.536  -2.889   8.024  0.00  0.00    +0.131 A 
ATOM     29  C   UNL     1     -15.373  -1.800   7.921  0.00  0.00    +0.130 A 
ENDBRANCH  17  20
TORSDOF 2
ENDMDL
MODEL 10
REMARK VINA RESULT:      -7.1     25.515     27.484
REMARK  Name = 11911966
REMARK  2 active torsions:
REMARK  status: ('A' for Active; 'I' for Inactive)
REMARK    1  A    between atoms: C_17  and  C_20
REMARK    2  A    between atoms: C_18  and  C_21
REMARK                            x       y       z     vdW  Elec       q    Type
REMARK                         _______ _______ _______ _____ _____    ______ ____
ROOT
ATOM      2  O   UNL     1      18.414  -7.586  -1.895  0.00  0.00    -0.267 OA
ATOM      3  O   UNL     1      18.276  -7.191  -6.900  0.00  0.00    -0.268 OA
ATOM      4  N   UNL     1      16.790  -6.361  -3.037  0.00  0.00    -0.311 N 
ATOM      5  N   UNL     1      16.373  -6.098  -6.153  0.00  0.00    -0.295 N 
ATOM      8  C   UNL     1      15.045  -7.465  -4.555  0.00  0.00    +0.027 C 
ATOM      9  C   UNL     1      15.093  -5.014  -4.322  0.00  0.00    +0.054 C 
ATOM     10  C   UNL     1      14.192  -6.245  -4.226  0.00  0.00    +0.018 C 
ATOM     11  C   UNL     1      16.143  -7.600  -3.491  0.00  0.00    +0.130 C 
ATOM     12  C   UNL     1      15.627  -7.345  -5.977  0.00  0.00    +0.113 C 
ATOM     13  C   UNL     1      15.637  -4.883  -5.761  0.00  0.00    +0.117 C 
ATOM     14  C   UNL     1      16.253  -5.108  -3.350  0.00  0.00    +0.027 A 
ATOM     15  C   UNL     1      16.791  -3.993  -2.831  0.00  0.00    +0.022 A 
ATOM     16  C   UNL     1      17.914  -6.502  -2.200  0.00  0.00    +0.260 A 
ATOM     17  C   UNL     1      17.713  -6.142  -6.584  0.00  0.00    +0.266 C 
ATOM     18  C   UNL     1      18.511  -5.230  -1.663  0.00  0.00    +0.053 A 
ATOM     19  C   UNL     1      17.940  -4.058  -1.973  0.00  0.00    +0.016 A 
ENDROOT
BRANCH  18  21
ATOM      1  S   UNL     1      21.172  -5.741  -1.477  0.00  0.00    -0.088 S 
ATOM     21  C   UNL     1      19.667  -5.266  -0.825  0.00  0.00    +0.026 A 
ATOM     22  C   UNL     1      19.770  -4.957   0.516  0.00  0.00    +0.024 A 
ATOM     24  C   UNL     1      21.102  -5.110   1.028  0.00  0.00    -0.010 A 
ATOM     25  C   UNL     1      21.982  -5.539   0.032  0.00  0.00    +0.020 A 
ATOM     26  C   UNL     1      21.617  -4.897   2.330  0.00  0.00    +0.009 A 
ATOM     28  C   UNL     1      23.348  -5.759   0.299  0.00  0.00    +0.015 A 
ATOM     30  C   UNL     1      22.971  -5.114   2.599  0.00  0.00    +0.001 A 
ATOM     31  C   UNL     1      23.825  -5.541   1.592  0.00  0.00    +0.001 A 
ENDBRANCH  18  21
BRANCH  17  20
ATOM      6  N   UNL     1      19.100  -4.545  -5.496  0.00  0.00    -0.247 NA
ATOM      7  N   UNL     1      19.116  -2.925  -7.786  0.00  0.00    -0.259 NA
ATOM     20  C   UNL     1      18.442  -4.882  -6.618  0.00  0.00    +0.144 A 
ATOM     23  C   UNL     1      18.446  -4.094  -7.743  0.00  0.00    +0.143 A 
ATOM     27  C   UNL     1      19.771  -3.376  -5.539  0.00  0.00    +0.131 A 
ATOM     29  C   UNL     1      19.779  -2.581  -6.664  0.00  0.00    +0.130 A 
ENDBRANCH  17  20
TORSDOF 2
ENDMDL
