MODEL 1
REMARK VINA RESULT:      -5.7      0.000      0.000
REMARK  Name = 7049517
REMARK  9 active torsions:
REMARK  status: ('A' for Active; 'I' for Inactive)
REMARK    1  A    between atoms: S_1  and  C_20
REMARK    2  A    between atoms: S_1  and  C_25
REMARK    3  A    between atoms: N_9  and  C_13
REMARK    4  A    between atoms: N_10  and  C_21
REMARK    5  A    between atoms: N_10  and  C_22
REMARK    6  A    between atoms: N_11  and  C_24
REMARK    7  A    between atoms: C_14  and  C_17
REMARK    8  A    between atoms: C_18  and  C_20
REMARK    9  A    between atoms: C_21  and  C_23
REMARK                            x       y       z     vdW  Elec       q    Type
REMARK                         _______ _______ _______ _____ _____    ______ ____
ROOT
ATOM      5  O   UNL     1      11.401   6.699   7.472  0.00  0.00    -0.275 OA
ATOM      8  N   UNL     1       9.725   7.312   5.998  0.00  0.00    -0.287 N 
ATOM     13  C   UNL     1       9.701   7.875   3.694  0.00  0.00    +0.105 C 
ATOM     14  C   UNL     1      10.605   7.757   4.922  0.00  0.00    +0.182 C 
ATOM     15  C   UNL     1       8.323   8.168   4.293  0.00  0.00    +0.043 C 
ATOM     16  C   UNL     1       8.321   7.388   5.602  0.00  0.00    +0.110 C 
ATOM     18  C   UNL     1      10.207   6.747   7.168  0.00  0.00    +0.226 C 
ENDROOT
BRANCH  13   9
ATOM      6  O   UNL     1      11.429   7.201   1.512  0.00  0.00    -0.252 OA
ATOM      9  N   UNL     1       9.695   6.646   2.938  0.00  0.00    -0.294 N 
ATOM     11  N   UNL     1      10.338   5.129   1.339  0.00  0.00    -0.267 N 
ATOM     19  C   UNL     1      10.577   6.395   1.880  0.00  0.00    +0.304 C 
ATOM     31  H   UNL     1       8.972   5.960   3.134  0.00  0.00    +0.151 HD
ATOM     32  H   UNL     1       9.592   4.582   1.763  0.00  0.00    +0.156 HD
BRANCH  11  24
ATOM      2  F   UNL     1      12.675   3.687   1.749  0.00  0.00    -0.203 F 
ATOM      3  F   UNL     1      12.964   2.694  -2.868  0.00  0.00    -0.205 F 
ATOM     24  C   UNL     1      11.011   4.504   0.263  0.00  0.00    +0.070 A 
ATOM     26  C   UNL     1      12.175   3.794   0.509  0.00  0.00    +0.147 A 
ATOM     27  C   UNL     1      10.492   4.618  -1.016  0.00  0.00    +0.029 A 
ATOM     28  C   UNL     1      12.838   3.180  -0.554  0.00  0.00    +0.078 A 
ATOM     29  C   UNL     1      11.155   4.003  -2.079  0.00  0.00    +0.040 A 
ATOM     30  C   UNL     1      12.328   3.285  -1.847  0.00  0.00    +0.126 A 
ENDBRANCH  11  24
ENDBRANCH  13   9
BRANCH  14  17
ATOM      4  O   UNL     1      10.401   9.887   5.922  0.00  0.00    -0.273 OA
ATOM     10  N   UNL     1      12.478   9.355   5.025  0.00  0.00    -0.294 N 
ATOM     17  C   UNL     1      11.143   9.094   5.337  0.00  0.00    +0.238 C 
ATOM     22  C   UNL     1      13.320   8.389   4.332  0.00  0.00    +0.132 C 
BRANCH  10  21
ATOM     21  C   UNL     1      13.130  10.615   5.371  0.00  0.00    +0.202 C 
BRANCH  21  23
ATOM      7  O   UNL     1      15.095  10.263   6.742  0.00  0.00    -0.274 OA
ATOM     12  N   UNL     1      13.053  10.509   7.769  0.00  0.00    -0.328 N 
ATOM     23  C   UNL     1      13.885  10.459   6.671  0.00  0.00    +0.228 C 
ATOM     33  H   UNL     1      12.051  10.652   7.689  0.00  0.00    +0.145 HD
ATOM     34  H   UNL     1      13.423  10.405   8.708  0.00  0.00    +0.145 HD
ENDBRANCH  21  23
ENDBRANCH  10  21
ENDBRANCH  14  17
BRANCH  18  20
ATOM     20  C   UNL     1       9.163   6.177   8.094  0.00  0.00    +0.164 C 
BRANCH  20   1
ATOM      1  S   UNL     1       9.704   4.534   8.584  0.00  0.00    -0.155 S 
ATOM     25  C   UNL     1       9.131   4.549  10.300  0.00  0.00    +0.085 C 
ENDBRANCH  20   1
ENDBRANCH  18  20
TORSDOF 7
ENDMDL
MODEL 2
REMARK VINA RESULT:      -5.6     25.529     28.860
REMARK  Name = 7049517
REMARK  9 active torsions:
REMARK  status: ('A' for Active; 'I' for Inactive)
REMARK    1  A    between atoms: S_1  and  C_20
REMARK    2  A    between atoms: S_1  and  C_25
REMARK    3  A    between atoms: N_9  and  C_13
REMARK    4  A    between atoms: N_10  and  C_21
REMARK    5  A    between atoms: N_10  and  C_22
REMARK    6  A    between atoms: N_11  and  C_24
REMARK    7  A    between atoms: C_14  and  C_17
REMARK    8  A    between atoms: C_18  and  C_20
REMARK    9  A    between atoms: C_21  and  C_23
REMARK                            x       y       z     vdW  Elec       q    Type
REMARK                         _______ _______ _______ _____ _____    ______ ____
ROOT
ATOM      5  O   UNL     1      -5.200 -13.731  14.901  0.00  0.00    -0.275 OA
ATOM      8  N   UNL     1      -4.839 -12.852  17.013  0.00  0.00    -0.287 N 
ATOM     13  C   UNL     1      -5.068 -10.682  17.940  0.00  0.00    +0.105 C 
ATOM     14  C   UNL     1      -4.923 -11.448  16.625  0.00  0.00    +0.182 C 
ATOM     15  C   UNL     1      -4.374 -11.588  18.959  0.00  0.00    +0.043 C 
ATOM     16  C   UNL     1      -4.669 -12.996  18.456  0.00  0.00    +0.110 C 
ATOM     18  C   UNL     1      -5.060 -13.887  16.117  0.00  0.00    +0.226 C 
ENDROOT
BRANCH  13   9
ATOM      6  O   UNL     1      -7.008  -9.241  16.403  0.00  0.00    -0.252 OA
ATOM      9  N   UNL     1      -6.459 -10.487  18.272  0.00  0.00    -0.294 N 
ATOM     11  N   UNL     1      -8.618  -9.743  18.036  0.00  0.00    -0.267 N 
ATOM     19  C   UNL     1      -7.344  -9.765  17.462  0.00  0.00    +0.304 C 
ATOM     31  H   UNL     1      -6.796 -10.827  19.168  0.00  0.00    +0.151 HD
ATOM     32  H   UNL     1      -8.731 -10.231  18.922  0.00  0.00    +0.156 HD
BRANCH  11  24
ATOM      2  F   UNL     1     -10.925 -11.206  17.539  0.00  0.00    -0.203 F 
ATOM      3  F   UNL     1     -13.172  -7.312  16.067  0.00  0.00    -0.205 F 
ATOM     24  C   UNL     1      -9.786  -9.122  17.533  0.00  0.00    +0.070 A 
ATOM     26  C   UNL     1     -10.916  -9.888  17.297  0.00  0.00    +0.147 A 
ATOM     27  C   UNL     1      -9.772  -7.760  17.284  0.00  0.00    +0.029 A 
ATOM     28  C   UNL     1     -12.066  -9.273  16.799  0.00  0.00    +0.078 A 
ATOM     29  C   UNL     1     -10.922  -7.145  16.786  0.00  0.00    +0.040 A 
ATOM     30  C   UNL     1     -12.068  -7.902  16.544  0.00  0.00    +0.126 A 
ENDBRANCH  11  24
ENDBRANCH  13   9
BRANCH  14  17
ATOM      4  O   UNL     1      -2.573 -11.214  16.566  0.00  0.00    -0.273 OA
ATOM     10  N   UNL     1      -3.716 -10.715  14.605  0.00  0.00    -0.294 N 
ATOM     17  C   UNL     1      -3.631 -11.118  15.938  0.00  0.00    +0.238 C 
ATOM     22  C   UNL     1      -4.989 -10.615  13.901  0.00  0.00    +0.132 C 
BRANCH  10  21
ATOM     21  C   UNL     1      -2.538 -10.365  13.817  0.00  0.00    +0.202 C 
BRANCH  21  23
ATOM      7  O   UNL     1      -2.309 -11.631  11.765  0.00  0.00    -0.274 OA
ATOM     12  N   UNL     1      -1.540 -12.547  13.728  0.00  0.00    -0.328 N 
ATOM     23  C   UNL     1      -2.117 -11.548  12.975  0.00  0.00    +0.228 C 
ATOM     33  H   UNL     1      -1.408 -12.468  14.731  0.00  0.00    +0.145 HD
ATOM     34  H   UNL     1      -1.221 -13.408  13.294  0.00  0.00    +0.145 HD
ENDBRANCH  21  23
ENDBRANCH  10  21
ENDBRANCH  14  17
BRANCH  18  20
ATOM     20  C   UNL     1      -5.114 -15.268  16.717  0.00  0.00    +0.164 C 
BRANCH  20   1
ATOM      1  S   UNL     1      -6.657 -16.032  16.195  0.00  0.00    -0.155 S 
ATOM     25  C   UNL     1      -7.814 -14.960  17.081  0.00  0.00    +0.085 C 
ENDBRANCH  20   1
ENDBRANCH  18  20
TORSDOF 7
ENDMDL
MODEL 3
REMARK VINA RESULT:      -5.5     24.052     27.707
REMARK  Name = 7049517
REMARK  9 active torsions:
REMARK  status: ('A' for Active; 'I' for Inactive)
REMARK    1  A    between atoms: S_1  and  C_20
REMARK    2  A    between atoms: S_1  and  C_25
REMARK    3  A    between atoms: N_9  and  C_13
REMARK    4  A    between atoms: N_10  and  C_21
REMARK    5  A    between atoms: N_10  and  C_22
REMARK    6  A    between atoms: N_11  and  C_24
REMARK    7  A    between atoms: C_14  and  C_17
REMARK    8  A    between atoms: C_18  and  C_20
REMARK    9  A    between atoms: C_21  and  C_23
REMARK                            x       y       z     vdW  Elec       q    Type
REMARK                         _______ _______ _______ _____ _____    ______ ____
ROOT
ATOM      5  O   UNL     1      -4.176 -13.695  11.071  0.00  0.00    -0.275 OA
ATOM      8  N   UNL     1      -2.641 -13.158  12.719  0.00  0.00    -0.287 N 
ATOM     13  C   UNL     1      -2.635 -11.590  14.498  0.00  0.00    +0.105 C 
ATOM     14  C   UNL     1      -3.294 -11.931  13.161  0.00  0.00    +0.182 C 
ATOM     15  C   UNL     1      -1.241 -12.211  14.376  0.00  0.00    +0.043 C 
ATOM     16  C   UNL     1      -1.472 -13.463  13.538  0.00  0.00    +0.110 C 
ATOM     18  C   UNL     1      -3.186 -13.983  11.747  0.00  0.00    +0.226 C 
ENDROOT
BRANCH  13   9
ATOM      6  O   UNL     1      -5.064 -10.590  15.638  0.00  0.00    -0.252 OA
ATOM      9  N   UNL     1      -3.372 -12.166  15.597  0.00  0.00    -0.294 N 
ATOM     11  N   UNL     1      -5.043 -12.380  17.157  0.00  0.00    -0.267 N 
ATOM     19  C   UNL     1      -4.557 -11.611  16.097  0.00  0.00    +0.304 C 
ATOM     31  H   UNL     1      -2.978 -12.969  16.077  0.00  0.00    +0.151 HD
ATOM     32  H   UNL     1      -4.501 -13.202  17.414  0.00  0.00    +0.156 HD
BRANCH  11  24
ATOM      2  F   UNL     1      -5.174 -10.314  19.007  0.00  0.00    -0.203 F 
ATOM      3  F   UNL     1      -9.600 -11.524  20.161  0.00  0.00    -0.205 F 
ATOM     24  C   UNL     1      -6.209 -12.159  17.927  0.00  0.00    +0.070 A 
ATOM     26  C   UNL     1      -6.234 -11.118  18.840  0.00  0.00    +0.147 A 
ATOM     27  C   UNL     1      -7.302 -12.991  17.752  0.00  0.00    +0.029 A 
ATOM     28  C   UNL     1      -7.386 -10.902  19.599  0.00  0.00    +0.078 A 
ATOM     29  C   UNL     1      -8.454 -12.776  18.510  0.00  0.00    +0.040 A 
ATOM     30  C   UNL     1      -8.495 -11.731  19.434  0.00  0.00    +0.126 A 
ENDBRANCH  11  24
ENDBRANCH  13   9
BRANCH  14  17
ATOM      4  O   UNL     1      -1.824 -10.691  11.789  0.00  0.00    -0.273 OA
ATOM     10  N   UNL     1      -4.088 -10.205  11.591  0.00  0.00    -0.294 N 
ATOM     17  C   UNL     1      -2.996 -10.891  12.122  0.00  0.00    +0.238 C 
ATOM     22  C   UNL     1      -5.457 -10.473  12.013  0.00  0.00    +0.132 C 
BRANCH  10  21
ATOM     21  C   UNL     1      -3.941  -9.168  10.573  0.00  0.00    +0.202 C 
BRANCH  21  23
ATOM      7  O   UNL     1      -4.138 -10.847   8.838  0.00  0.00    -0.274 OA
ATOM     12  N   UNL     1      -5.025  -8.758   8.470  0.00  0.00    -0.328 N 
ATOM     23  C   UNL     1      -4.376  -9.707   9.230  0.00  0.00    +0.228 C 
ATOM     33  H   UNL     1      -5.194  -7.814   8.803  0.00  0.00    +0.145 HD
ATOM     34  H   UNL     1      -5.362  -8.978   7.538  0.00  0.00    +0.145 HD
ENDBRANCH  21  23
ENDBRANCH  10  21
ENDBRANCH  14  17
BRANCH  18  20
ATOM     20  C   UNL     1      -2.479 -15.298  11.537  0.00  0.00    +0.164 C 
BRANCH  20   1
ATOM      1  S   UNL     1      -3.623 -16.611  11.987  0.00  0.00    -0.155 S 
ATOM     25  C   UNL     1      -3.112 -16.851  13.706  0.00  0.00    +0.085 C 
ENDBRANCH  20   1
ENDBRANCH  18  20
TORSDOF 7
ENDMDL
MODEL 4
REMARK VINA RESULT:      -5.5      2.422      4.423
REMARK  Name = 7049517
REMARK  9 active torsions:
REMARK  status: ('A' for Active; 'I' for Inactive)
REMARK    1  A    between atoms: S_1  and  C_20
REMARK    2  A    between atoms: S_1  and  C_25
REMARK    3  A    between atoms: N_9  and  C_13
REMARK    4  A    between atoms: N_10  and  C_21
REMARK    5  A    between atoms: N_10  and  C_22
REMARK    6  A    between atoms: N_11  and  C_24
REMARK    7  A    between atoms: C_14  and  C_17
REMARK    8  A    between atoms: C_18  and  C_20
REMARK    9  A    between atoms: C_21  and  C_23
REMARK                            x       y       z     vdW  Elec       q    Type
REMARK                         _______ _______ _______ _____ _____    ______ ____
ROOT
ATOM      5  O   UNL     1      10.034  10.074   4.911  0.00  0.00    -0.275 OA
ATOM      8  N   UNL     1      12.075   8.985   4.980  0.00  0.00    -0.287 N 
ATOM     13  C   UNL     1      12.748   6.748   4.569  0.00  0.00    +0.105 C 
ATOM     14  C   UNL     1      11.543   7.628   4.900  0.00  0.00    +0.182 C 
ATOM     15  C   UNL     1      13.928   7.522   5.161  0.00  0.00    +0.043 C 
ATOM     16  C   UNL     1      13.535   8.983   4.976  0.00  0.00    +0.110 C 
ATOM     18  C   UNL     1      11.266  10.108   4.905  0.00  0.00    +0.226 C 
ENDROOT
BRANCH  13   9
ATOM      6  O   UNL     1      11.631   4.653   2.968  0.00  0.00    -0.252 OA
ATOM      9  N   UNL     1      12.891   6.584   3.142  0.00  0.00    -0.294 N 
ATOM     11  N   UNL     1      12.619   5.626   1.074  0.00  0.00    -0.267 N 
ATOM     19  C   UNL     1      12.310   5.526   2.433  0.00  0.00    +0.304 C 
ATOM     31  H   UNL     1      13.498   7.224   2.639  0.00  0.00    +0.151 HD
ATOM     32  H   UNL     1      13.195   6.416   0.791  0.00  0.00    +0.156 HD
BRANCH  11  24
ATOM      2  F   UNL     1      14.009   3.281   0.548  0.00  0.00    -0.203 F 
ATOM      3  F   UNL     1      11.074   2.247  -3.015  0.00  0.00    -0.205 F 
ATOM     24  C   UNL     1      12.224   4.759   0.028  0.00  0.00    +0.070 A 
ATOM     26  C   UNL     1      12.946   3.599  -0.203  0.00  0.00    +0.147 A 
ATOM     27  C   UNL     1      11.125   5.091  -0.747  0.00  0.00    +0.029 A 
ATOM     28  C   UNL     1      12.555   2.746  -1.236  0.00  0.00    +0.078 A 
ATOM     29  C   UNL     1      10.734   4.238  -1.780  0.00  0.00    +0.040 A 
ATOM     30  C   UNL     1      11.450   3.066  -2.024  0.00  0.00    +0.126 A 
ENDBRANCH  11  24
ENDBRANCH  13   9
BRANCH  14  17
ATOM      4  O   UNL     1      11.536   7.772   7.257  0.00  0.00    -0.273 OA
ATOM     10  N   UNL     1       9.856   6.489   6.290  0.00  0.00    -0.294 N 
ATOM     17  C   UNL     1      10.985   7.308   6.255  0.00  0.00    +0.238 C 
ATOM     22  C   UNL     1       9.238   5.962   5.080  0.00  0.00    +0.132 C 
BRANCH  10  21
ATOM     21  C   UNL     1       9.211   6.099   7.541  0.00  0.00    +0.202 C 
BRANCH  21  23
ATOM      7  O   UNL     1      10.690   5.307   9.288  0.00  0.00    -0.274 OA
ATOM     12  N   UNL     1      10.102   3.869   7.593  0.00  0.00    -0.328 N 
ATOM     23  C   UNL     1      10.064   5.076   8.257  0.00  0.00    +0.228 C 
ATOM     33  H   UNL     1       9.593   3.704   6.730  0.00  0.00    +0.145 HD
ATOM     34  H   UNL     1      10.648   3.093   7.954  0.00  0.00    +0.145 HD
ENDBRANCH  21  23
ENDBRANCH  10  21
ENDBRANCH  14  17
BRANCH  18  20
ATOM     20  C   UNL     1      11.990  11.427   4.822  0.00  0.00    +0.164 C 
BRANCH  20   1
ATOM      1  S   UNL     1      11.476  12.423   6.229  0.00  0.00    -0.155 S 
ATOM     25  C   UNL     1      12.301  11.496   7.545  0.00  0.00    +0.085 C 
ENDBRANCH  20   1
ENDBRANCH  18  20
TORSDOF 7
ENDMDL
MODEL 5
REMARK VINA RESULT:      -5.5     17.624     21.262
REMARK  Name = 7049517
REMARK  9 active torsions:
REMARK  status: ('A' for Active; 'I' for Inactive)
REMARK    1  A    between atoms: S_1  and  C_20
REMARK    2  A    between atoms: S_1  and  C_25
REMARK    3  A    between atoms: N_9  and  C_13
REMARK    4  A    between atoms: N_10  and  C_21
REMARK    5  A    between atoms: N_10  and  C_22
REMARK    6  A    between atoms: N_11  and  C_24
REMARK    7  A    between atoms: C_14  and  C_17
REMARK    8  A    between atoms: C_18  and  C_20
REMARK    9  A    between atoms: C_21  and  C_23
REMARK                            x       y       z     vdW  Elec       q    Type
REMARK                         _______ _______ _______ _____ _____    ______ ____
ROOT
ATOM      5  O   UNL     1      22.208   4.907  25.699  0.00  0.00    -0.275 OA
ATOM      8  N   UNL     1      21.476   6.659  24.375  0.00  0.00    -0.287 N 
ATOM     13  C   UNL     1      20.516   6.780  22.210  0.00  0.00    +0.105 C 
ATOM     14  C   UNL     1      21.337   5.889  23.143  0.00  0.00    +0.182 C 
ATOM     15  C   UNL     1      20.844   8.196  22.689  0.00  0.00    +0.043 C 
ATOM     16  C   UNL     1      21.030   8.038  24.194  0.00  0.00    +0.110 C 
ATOM     18  C   UNL     1      21.836   6.076  25.581  0.00  0.00    +0.226 C 
ENDROOT
BRANCH  13   9
ATOM      6  O   UNL     1      18.400   7.909  20.646  0.00  0.00    -0.252 OA
ATOM      9  N   UNL     1      19.106   6.496  22.334  0.00  0.00    -0.294 N 
ATOM     11  N   UNL     1      16.861   6.631  21.874  0.00  0.00    -0.267 N 
ATOM     19  C   UNL     1      18.132   7.095  21.526  0.00  0.00    +0.304 C 
ATOM     31  H   UNL     1      18.799   5.889  23.088  0.00  0.00    +0.151 HD
ATOM     32  H   UNL     1      16.812   5.952  22.630  0.00  0.00    +0.156 HD
BRANCH  11  24
ATOM      2  F   UNL     1      16.194   5.856  19.293  0.00  0.00    -0.203 F 
ATOM      3  F   UNL     1      12.011   8.039  19.636  0.00  0.00    -0.205 F 
ATOM     24  C   UNL     1      15.619   6.989  21.300  0.00  0.00    +0.070 A 
ATOM     26  C   UNL     1      15.325   6.584  20.008  0.00  0.00    +0.147 A 
ATOM     27  C   UNL     1      14.724   7.742  22.041  0.00  0.00    +0.029 A 
ATOM     28  C   UNL     1      14.099   6.941  19.443  0.00  0.00    +0.078 A 
ATOM     29  C   UNL     1      13.499   8.099  21.477  0.00  0.00    +0.040 A 
ATOM     30  C   UNL     1      13.187   7.697  20.177  0.00  0.00    +0.126 A 
ENDBRANCH  11  24
ENDBRANCH  13   9
BRANCH  14  17
ATOM      4  O   UNL     1      23.448   6.652  22.408  0.00  0.00    -0.273 OA
ATOM     10  N   UNL     1      23.111   4.353  22.391  0.00  0.00    -0.294 N 
ATOM     17  C   UNL     1      22.724   5.674  22.616  0.00  0.00    +0.238 C 
ATOM     22  C   UNL     1      22.223   3.226  22.651  0.00  0.00    +0.132 C 
BRANCH  10  21
ATOM     21  C   UNL     1      24.433   4.000  21.881  0.00  0.00    +0.202 C 
BRANCH  21  23
ATOM      7  O   UNL     1      24.511   4.862  19.618  0.00  0.00    -0.274 OA
ATOM     12  N   UNL     1      24.137   2.617  19.940  0.00  0.00    -0.328 N 
ATOM     23  C   UNL     1      24.387   3.901  20.373  0.00  0.00    +0.228 C 
ATOM     33  H   UNL     1      24.017   1.838  20.580  0.00  0.00    +0.145 HD
ATOM     34  H   UNL     1      24.066   2.406  18.950  0.00  0.00    +0.145 HD
ENDBRANCH  21  23
ENDBRANCH  10  21
ENDBRANCH  14  17
BRANCH  18  20
ATOM     20  C   UNL     1      21.757   6.975  26.788  0.00  0.00    +0.164 C 
BRANCH  20   1
ATOM      1  S   UNL     1      20.771   6.133  28.034  0.00  0.00    -0.155 S 
ATOM     25  C   UNL     1      20.134   7.581  28.913  0.00  0.00    +0.085 C 
ENDBRANCH  20   1
ENDBRANCH  18  20
TORSDOF 7
ENDMDL
MODEL 6
REMARK VINA RESULT:      -5.4      2.698      4.479
REMARK  Name = 7049517
REMARK  9 active torsions:
REMARK  status: ('A' for Active; 'I' for Inactive)
REMARK    1  A    between atoms: S_1  and  C_20
REMARK    2  A    between atoms: S_1  and  C_25
REMARK    3  A    between atoms: N_9  and  C_13
REMARK    4  A    between atoms: N_10  and  C_21
REMARK    5  A    between atoms: N_10  and  C_22
REMARK    6  A    between atoms: N_11  and  C_24
REMARK    7  A    between atoms: C_14  and  C_17
REMARK    8  A    between atoms: C_18  and  C_20
REMARK    9  A    between atoms: C_21  and  C_23
REMARK                            x       y       z     vdW  Elec       q    Type
REMARK                         _______ _______ _______ _____ _____    ______ ____
ROOT
ATOM      5  O   UNL     1       7.474   8.881   4.460  0.00  0.00    -0.275 OA
ATOM      8  N   UNL     1       9.732   9.369   4.305  0.00  0.00    -0.287 N 
ATOM     13  C   UNL     1      11.681   8.034   4.093  0.00  0.00    +0.105 C 
ATOM     14  C   UNL     1      10.211   8.006   4.513  0.00  0.00    +0.182 C 
ATOM     15  C   UNL     1      12.096   9.485   4.345  0.00  0.00    +0.043 C 
ATOM     16  C   UNL     1      10.837  10.284   4.033  0.00  0.00    +0.110 C 
ATOM     18  C   UNL     1       8.384   9.680   4.223  0.00  0.00    +0.226 C 
ENDROOT
BRANCH  13   9
ATOM      6  O   UNL     1      11.769   5.388   3.001  0.00  0.00    -0.252 OA
ATOM      9  N   UNL     1      11.826   7.680   2.701  0.00  0.00    -0.294 N 
ATOM     11  N   UNL     1      12.010   6.321   0.860  0.00  0.00    -0.267 N 
ATOM     19  C   UNL     1      11.861   6.355   2.249  0.00  0.00    +0.304 C 
ATOM     31  H   UNL     1      11.981   8.422   2.026  0.00  0.00    +0.151 HD
ATOM     32  H   UNL     1      12.069   7.217   0.383  0.00  0.00    +0.156 HD
BRANCH  11  24
ATOM      2  F   UNL     1       9.792   5.411  -0.540  0.00  0.00    -0.203 F 
ATOM      3  F   UNL     1      12.320   1.871  -2.399  0.00  0.00    -0.205 F 
ATOM     24  C   UNL     1      12.087   5.182   0.024  0.00  0.00    +0.070 A 
ATOM     26  C   UNL     1      10.957   4.759  -0.657  0.00  0.00    +0.147 A 
ATOM     27  C   UNL     1      13.294   4.511  -0.093  0.00  0.00    +0.029 A 
ATOM     28  C   UNL     1      11.037   3.635  -1.479  0.00  0.00    +0.078 A 
ATOM     29  C   UNL     1      13.373   3.387  -0.916  0.00  0.00    +0.040 A 
ATOM     30  C   UNL     1      12.244   2.949  -1.609  0.00  0.00    +0.126 A 
ENDBRANCH  11  24
ENDBRANCH  13   9
BRANCH  14  17
ATOM      4  O   UNL     1      10.451   8.563   6.796  0.00  0.00    -0.273 OA
ATOM     10  N   UNL     1       9.489   6.500   6.326  0.00  0.00    -0.294 N 
ATOM     17  C   UNL     1      10.065   7.723   5.979  0.00  0.00    +0.238 C 
ATOM     22  C   UNL     1       9.047   5.536   5.327  0.00  0.00    +0.132 C 
BRANCH  10  21
ATOM     21  C   UNL     1       9.287   6.097   7.715  0.00  0.00    +0.202 C 
BRANCH  21  23
ATOM      7  O   UNL     1      11.594   5.729   8.355  0.00  0.00    -0.274 OA
ATOM     12  N   UNL     1      10.145   3.944   8.346  0.00  0.00    -0.328 N 
ATOM     23  C   UNL     1      10.466   5.275   8.184  0.00  0.00    +0.228 C 
ATOM     33  H   UNL     1       9.211   3.584   8.179  0.00  0.00    +0.145 HD
ATOM     34  H   UNL     1      10.845   3.272   8.645  0.00  0.00    +0.145 HD
ENDBRANCH  21  23
ENDBRANCH  10  21
ENDBRANCH  14  17
BRANCH  18  20
ATOM     20  C   UNL     1       8.065  11.098   3.825  0.00  0.00    +0.164 C 
BRANCH  20   1
ATOM      1  S   UNL     1       6.375  11.128   3.211  0.00  0.00    -0.155 S 
ATOM     25  C   UNL     1       5.569  11.885   4.642  0.00  0.00    +0.085 C 
ENDBRANCH  20   1
ENDBRANCH  18  20
TORSDOF 7
ENDMDL
MODEL 7
REMARK VINA RESULT:      -5.4     27.552     29.407
REMARK  Name = 7049517
REMARK  9 active torsions:
REMARK  status: ('A' for Active; 'I' for Inactive)
REMARK    1  A    between atoms: S_1  and  C_20
REMARK    2  A    between atoms: S_1  and  C_25
REMARK    3  A    between atoms: N_9  and  C_13
REMARK    4  A    between atoms: N_10  and  C_21
REMARK    5  A    between atoms: N_10  and  C_22
REMARK    6  A    between atoms: N_11  and  C_24
REMARK    7  A    between atoms: C_14  and  C_17
REMARK    8  A    between atoms: C_18  and  C_20
REMARK    9  A    between atoms: C_21  and  C_23
REMARK                            x       y       z     vdW  Elec       q    Type
REMARK                         _______ _______ _______ _____ _____    ______ ____
ROOT
ATOM      5  O   UNL     1      -8.943 -12.389  15.956  0.00  0.00    -0.275 OA
ATOM      8  N   UNL     1      -9.797 -10.443  16.874  0.00  0.00    -0.287 N 
ATOM     13  C   UNL     1      -9.585  -8.147  16.322  0.00  0.00    +0.105 C 
ATOM     14  C   UNL     1      -8.943  -9.521  16.133  0.00  0.00    +0.182 C 
ATOM     15  C   UNL     1     -10.304  -8.271  17.667  0.00  0.00    +0.043 C 
ATOM     16  C   UNL     1     -10.760  -9.725  17.703  0.00  0.00    +0.110 C 
ATOM     18  C   UNL     1      -9.772 -11.813  16.664  0.00  0.00    +0.226 C 
ENDROOT
BRANCH  13   9
ATOM      6  O   UNL     1     -10.977  -5.683  15.882  0.00  0.00    -0.252 OA
ATOM      9  N   UNL     1     -10.513  -7.860  15.255  0.00  0.00    -0.294 N 
ATOM     11  N   UNL     1     -11.992  -6.639  13.993  0.00  0.00    -0.267 N 
ATOM     19  C   UNL     1     -11.155  -6.624  15.111  0.00  0.00    +0.304 C 
ATOM     31  H   UNL     1     -10.768  -8.610  14.620  0.00  0.00    +0.151 HD
ATOM     32  H   UNL     1     -12.025  -7.502  13.456  0.00  0.00    +0.156 HD
BRANCH  11  24
ATOM      2  F   UNL     1     -14.729  -6.613  14.465  0.00  0.00    -0.203 F 
ATOM      3  F   UNL     1     -15.180  -2.548  12.088  0.00  0.00    -0.205 F 
ATOM     24  C   UNL     1     -12.810  -5.592  13.507  0.00  0.00    +0.070 A 
ATOM     26  C   UNL     1     -14.172  -5.617  13.763  0.00  0.00    +0.147 A 
ATOM     27  C   UNL     1     -12.231  -4.564  12.782  0.00  0.00    +0.029 A 
ATOM     28  C   UNL     1     -14.976  -4.583  13.281  0.00  0.00    +0.078 A 
ATOM     29  C   UNL     1     -13.035  -3.530  12.300  0.00  0.00    +0.040 A 
ATOM     30  C   UNL     1     -14.408  -3.541  12.550  0.00  0.00    +0.126 A 
ENDBRANCH  11  24
ENDBRANCH  13   9
BRANCH  14  17
ATOM      4  O   UNL     1      -7.488  -9.398  17.989  0.00  0.00    -0.273 OA
ATOM     10  N   UNL     1      -6.510  -9.863  15.933  0.00  0.00    -0.294 N 
ATOM     17  C   UNL     1      -7.588  -9.587  16.774  0.00  0.00    +0.238 C 
ATOM     22  C   UNL     1      -6.674 -10.080  14.501  0.00  0.00    +0.132 C 
BRANCH  10  21
ATOM     21  C   UNL     1      -5.138  -9.956  16.425  0.00  0.00    +0.202 C 
BRANCH  21  23
ATOM      7  O   UNL     1      -5.534 -12.266  17.037  0.00  0.00    -0.274 OA
ATOM     12  N   UNL     1      -3.439 -11.649  16.317  0.00  0.00    -0.328 N 
ATOM     23  C   UNL     1      -4.762 -11.407  16.616  0.00  0.00    +0.228 C 
ATOM     33  H   UNL     1      -2.811 -10.922  15.990  0.00  0.00    +0.145 HD
ATOM     34  H   UNL     1      -3.045 -12.580  16.413  0.00  0.00    +0.145 HD
ENDBRANCH  21  23
ENDBRANCH  10  21
ENDBRANCH  14  17
BRANCH  18  20
ATOM     20  C   UNL     1     -10.841 -12.601  17.377  0.00  0.00    +0.164 C 
BRANCH  20   1
ATOM      1  S   UNL     1     -10.022 -13.752  18.490  0.00  0.00    -0.155 S 
ATOM     25  C   UNL     1     -10.548 -13.039  20.068  0.00  0.00    +0.085 C 
ENDBRANCH  20   1
ENDBRANCH  18  20
TORSDOF 7
ENDMDL
MODEL 8
REMARK VINA RESULT:      -5.3     27.637     29.977
REMARK  Name = 7049517
REMARK  9 active torsions:
REMARK  status: ('A' for Active; 'I' for Inactive)
REMARK    1  A    between atoms: S_1  and  C_20
REMARK    2  A    between atoms: S_1  and  C_25
REMARK    3  A    between atoms: N_9  and  C_13
REMARK    4  A    between atoms: N_10  and  C_21
REMARK    5  A    between atoms: N_10  and  C_22
REMARK    6  A    between atoms: N_11  and  C_24
REMARK    7  A    between atoms: C_14  and  C_17
REMARK    8  A    between atoms: C_18  and  C_20
REMARK    9  A    between atoms: C_21  and  C_23
REMARK                            x       y       z     vdW  Elec       q    Type
REMARK                         _______ _______ _______ _____ _____    ______ ____
ROOT
ATOM      5  O   UNL     1      -8.698 -13.969  17.898  0.00  0.00    -0.275 OA
ATOM      8  N   UNL     1      -7.499 -12.219  18.826  0.00  0.00    -0.287 N 
ATOM     13  C   UNL     1      -6.782 -10.114  18.003  0.00  0.00    +0.105 C 
ATOM     14  C   UNL     1      -7.260 -11.502  17.577  0.00  0.00    +0.182 C 
ATOM     15  C   UNL     1      -6.135 -10.362  19.368  0.00  0.00    +0.043 C 
ATOM     16  C   UNL     1      -6.975 -11.481  19.971  0.00  0.00    +0.110 C 
ATOM     18  C   UNL     1      -8.271 -13.370  18.887  0.00  0.00    +0.226 C 
ENDROOT
BRANCH  13   9
ATOM      6  O   UNL     1      -8.592  -9.373  15.911  0.00  0.00    -0.252 OA
ATOM      9  N   UNL     1      -7.892  -9.196  18.107  0.00  0.00    -0.294 N 
ATOM     11  N   UNL     1      -9.712  -7.975  17.427  0.00  0.00    -0.267 N 
ATOM     19  C   UNL     1      -8.731  -8.888  17.030  0.00  0.00    +0.304 C 
ATOM     31  H   UNL     1      -8.028  -8.698  18.981  0.00  0.00    +0.151 HD
ATOM     32  H   UNL     1      -9.690  -7.670  18.397  0.00  0.00    +0.156 HD
BRANCH  11  24
ATOM      2  F   UNL     1     -12.306  -8.959  17.548  0.00  0.00    -0.203 F 
ATOM      3  F   UNL     1     -13.742  -5.787  14.345  0.00  0.00    -0.205 F 
ATOM     24  C   UNL     1     -10.746  -7.415  16.639  0.00  0.00    +0.070 A 
ATOM     26  C   UNL     1     -12.027  -7.936  16.728  0.00  0.00    +0.147 A 
ATOM     27  C   UNL     1     -10.453  -6.358  15.793  0.00  0.00    +0.029 A 
ATOM     28  C   UNL     1     -13.044  -7.383  15.948  0.00  0.00    +0.078 A 
ATOM     29  C   UNL     1     -11.470  -5.806  15.014  0.00  0.00    +0.040 A 
ATOM     30  C   UNL     1     -12.765  -6.318  15.092  0.00  0.00    +0.126 A 
ENDBRANCH  11  24
ENDBRANCH  13   9
BRANCH  14  17
ATOM      4  O   UNL     1      -5.114 -12.479  17.429  0.00  0.00    -0.273 OA
ATOM     10  N   UNL     1      -6.468 -12.658  15.549  0.00  0.00    -0.294 N 
ATOM     17  C   UNL     1      -6.182 -12.255  16.854  0.00  0.00    +0.238 C 
ATOM     22  C   UNL     1      -7.745 -12.372  14.907  0.00  0.00    +0.132 C 
BRANCH  10  21
ATOM     21  C   UNL     1      -5.511 -13.398  14.732  0.00  0.00    +0.202 C 
BRANCH  21  23
ATOM      7  O   UNL     1      -4.385 -11.546  13.649  0.00  0.00    -0.274 OA
ATOM     12  N   UNL     1      -3.169 -12.946  15.008  0.00  0.00    -0.328 N 
ATOM     23  C   UNL     1      -4.330 -12.513  14.404  0.00  0.00    +0.228 C 
ATOM     33  H   UNL     1      -3.138 -13.760  15.613  0.00  0.00    +0.145 HD
ATOM     34  H   UNL     1      -2.293 -12.453  14.865  0.00  0.00    +0.145 HD
ENDBRANCH  21  23
ENDBRANCH  10  21
ENDBRANCH  14  17
BRANCH  18  20
ATOM     20  C   UNL     1      -8.568 -13.881  20.273  0.00  0.00    +0.164 C 
BRANCH  20   1
ATOM      1  S   UNL     1     -10.354 -14.014  20.436  0.00  0.00    -0.155 S 
ATOM     25  C   UNL     1     -10.769 -12.253  20.425  0.00  0.00    +0.085 C 
ENDBRANCH  20   1
ENDBRANCH  18  20
TORSDOF 7
ENDMDL
MODEL 9
REMARK VINA RESULT:      -5.2     28.617     30.372
REMARK  Name = 7049517
REMARK  9 active torsions:
REMARK  status: ('A' for Active; 'I' for Inactive)
REMARK    1  A    between atoms: S_1  and  C_20
REMARK    2  A    between atoms: S_1  and  C_25
REMARK    3  A    between atoms: N_9  and  C_13
REMARK    4  A    between atoms: N_10  and  C_21
REMARK    5  A    between atoms: N_10  and  C_22
REMARK    6  A    between atoms: N_11  and  C_24
REMARK    7  A    between atoms: C_14  and  C_17
REMARK    8  A    between atoms: C_18  and  C_20
REMARK    9  A    between atoms: C_21  and  C_23
REMARK                            x       y       z     vdW  Elec       q    Type
REMARK                         _______ _______ _______ _____ _____    ______ ____
ROOT
ATOM      5  O   UNL     1      -8.208 -13.831  17.431  0.00  0.00    -0.275 OA
ATOM      8  N   UNL     1      -9.364 -12.392  18.828  0.00  0.00    -0.287 N 
ATOM     13  C   UNL     1      -9.642 -10.037  18.879  0.00  0.00    +0.105 C 
ATOM     14  C   UNL     1      -8.757 -11.159  18.335  0.00  0.00    +0.182 C 
ATOM     15  C   UNL     1     -10.231 -10.636  20.159  0.00  0.00    +0.043 C 
ATOM     16  C   UNL     1     -10.391 -12.115  19.829  0.00  0.00    +0.110 C 
ATOM     18  C   UNL     1      -9.085 -13.632  18.275  0.00  0.00    +0.226 C 
ENDROOT
BRANCH  13   9
ATOM      6  O   UNL     1      -9.495  -8.040  16.832  0.00  0.00    -0.252 OA
ATOM      9  N   UNL     1     -10.678  -9.693  17.935  0.00  0.00    -0.294 N 
ATOM     11  N   UNL     1     -11.688  -8.588  16.195  0.00  0.00    -0.267 N 
ATOM     19  C   UNL     1     -10.525  -8.699  16.961  0.00  0.00    +0.304 C 
ATOM     31  H   UNL     1     -11.584 -10.142  18.025  0.00  0.00    +0.151 HD
ATOM     32  H   UNL     1     -12.455  -9.213  16.431  0.00  0.00    +0.156 HD
BRANCH  11  24
ATOM      2  F   UNL     1     -11.757  -5.838  16.572  0.00  0.00    -0.203 F 
ATOM      3  F   UNL     1     -12.660  -5.151  11.979  0.00  0.00    -0.205 F 
ATOM     24  C   UNL     1     -11.935  -7.706  15.116  0.00  0.00    +0.070 A 
ATOM     26  C   UNL     1     -11.963  -6.340  15.346  0.00  0.00    +0.147 A 
ATOM     27  C   UNL     1     -12.148  -8.229  13.851  0.00  0.00    +0.029 A 
ATOM     28  C   UNL     1     -12.209  -5.473  14.281  0.00  0.00    +0.078 A 
ATOM     29  C   UNL     1     -12.395  -7.362  12.786  0.00  0.00    +0.040 A 
ATOM     30  C   UNL     1     -12.425  -5.984  13.002  0.00  0.00    +0.126 A 
ENDBRANCH  11  24
ENDBRANCH  13   9
BRANCH  14  17
ATOM      4  O   UNL     1      -7.232 -11.230  20.137  0.00  0.00    -0.273 OA
ATOM     10  N   UNL     1      -6.327 -10.899  18.022  0.00  0.00    -0.294 N 
ATOM     17  C   UNL     1      -7.377 -11.101  18.918  0.00  0.00    +0.238 C 
ATOM     22  C   UNL     1      -6.543 -10.750  16.589  0.00  0.00    +0.132 C 
BRANCH  10  21
ATOM     21  C   UNL     1      -4.934 -10.821  18.454  0.00  0.00    +0.202 C 
BRANCH  21  23
ATOM      7  O   UNL     1      -4.887 -13.226  18.172  0.00  0.00    -0.274 OA
ATOM     12  N   UNL     1      -3.282 -12.229  19.482  0.00  0.00    -0.328 N 
ATOM     23  C   UNL     1      -4.384 -12.215  18.654  0.00  0.00    +0.228 C 
ATOM     33  H   UNL     1      -2.893 -11.384  19.888  0.00  0.00    +0.145 HD
ATOM     34  H   UNL     1      -2.817 -13.101  19.715  0.00  0.00    +0.145 HD
ENDBRANCH  21  23
ENDBRANCH  10  21
ENDBRANCH  14  17
BRANCH  18  20
ATOM     20  C   UNL     1      -9.929 -14.774  18.779  0.00  0.00    +0.164 C 
BRANCH  20   1
ATOM      1  S   UNL     1     -10.787 -15.485  17.367  0.00  0.00    -0.155 S 
ATOM     25  C   UNL     1     -11.626 -13.998  16.771  0.00  0.00    +0.085 C 
ENDBRANCH  20   1
ENDBRANCH  18  20
TORSDOF 7
ENDMDL
MODEL 10
REMARK VINA RESULT:      -5.2     14.201     15.966
REMARK  Name = 7049517
REMARK  9 active torsions:
REMARK  status: ('A' for Active; 'I' for Inactive)
REMARK    1  A    between atoms: S_1  and  C_20
REMARK    2  A    between atoms: S_1  and  C_25
REMARK    3  A    between atoms: N_9  and  C_13
REMARK    4  A    between atoms: N_10  and  C_21
REMARK    5  A    between atoms: N_10  and  C_22
REMARK    6  A    between atoms: N_11  and  C_24
REMARK    7  A    between atoms: C_14  and  C_17
REMARK    8  A    between atoms: C_18  and  C_20
REMARK    9  A    between atoms: C_21  and  C_23
REMARK                            x       y       z     vdW  Elec       q    Type
REMARK                         _______ _______ _______ _____ _____    ______ ____
ROOT
ATOM      5  O   UNL     1      -5.415   6.363   4.948  0.00  0.00    -0.275 OA
ATOM      8  N   UNL     1      -6.302   8.258   3.957  0.00  0.00    -0.287 N 
ATOM     13  C   UNL     1      -5.342  10.131   2.865  0.00  0.00    +0.105 C 
ATOM     14  C   UNL     1      -5.042   8.983   3.829  0.00  0.00    +0.182 C 
ATOM     15  C   UNL     1      -6.838  10.385   3.068  0.00  0.00    +0.043 C 
ATOM     16  C   UNL     1      -7.407   9.002   3.358  0.00  0.00    +0.110 C 
ATOM     18  C   UNL     1      -6.369   6.963   4.447  0.00  0.00    +0.226 C 
ENDROOT
BRANCH  13   9
ATOM      6  O   UNL     1      -3.251  11.167   1.204  0.00  0.00    -0.252 OA
ATOM      9  N   UNL     1      -5.054   9.750   1.503  0.00  0.00    -0.294 N 
ATOM     11  N   UNL     1      -3.973   9.748  -0.522  0.00  0.00    -0.267 N 
ATOM     19  C   UNL     1      -4.008  10.308   0.758  0.00  0.00    +0.304 C 
ATOM     31  H   UNL     1      -5.681   9.099   1.039  0.00  0.00    +0.151 HD
ATOM     32  H   UNL     1      -4.674   9.043  -0.735  0.00  0.00    +0.156 HD
BRANCH  11  24
ATOM      2  F   UNL     1      -1.368   8.786  -0.492  0.00  0.00    -0.203 F 
ATOM      3  F   UNL     1      -0.455  10.900  -4.624  0.00  0.00    -0.205 F 
ATOM     24  C   UNL     1      -3.070  10.041  -1.572  0.00  0.00    +0.070 A 
ATOM     26  C   UNL     1      -1.779   9.543  -1.519  0.00  0.00    +0.147 A 
ATOM     27  C   UNL     1      -3.498  10.824  -2.631  0.00  0.00    +0.029 A 
ATOM     28  C   UNL     1      -0.891   9.835  -2.555  0.00  0.00    +0.078 A 
ATOM     29  C   UNL     1      -2.611  11.116  -3.668  0.00  0.00    +0.040 A 
ATOM     30  C   UNL     1      -1.307  10.621  -3.629  0.00  0.00    +0.126 A 
ENDBRANCH  11  24
ENDBRANCH  13   9
BRANCH  14  17
ATOM      4  O   UNL     1      -5.525  10.178   5.807  0.00  0.00    -0.273 OA
ATOM     10  N   UNL     1      -3.447   9.145   5.700  0.00  0.00    -0.294 N 
ATOM     17  C   UNL     1      -4.701   9.491   5.198  0.00  0.00    +0.238 C 
ATOM     22  C   UNL     1      -2.503   8.330   4.945  0.00  0.00    +0.132 C 
BRANCH  10  21
ATOM     21  C   UNL     1      -2.987   9.571   7.019  0.00  0.00    +0.202 C 
BRANCH  21  23
ATOM      7  O   UNL     1      -1.887  11.551   6.158  0.00  0.00    -0.274 OA
ATOM     12  N   UNL     1      -0.727  10.162   7.577  0.00  0.00    -0.328 N 
ATOM     23  C   UNL     1      -1.844  10.549   6.868  0.00  0.00    +0.228 C 
ATOM     33  H   UNL     1      -0.704   9.320   8.142  0.00  0.00    +0.145 HD
ATOM     34  H   UNL     1       0.121  10.719   7.557  0.00  0.00    +0.145 HD
ENDBRANCH  21  23
ENDBRANCH  10  21
ENDBRANCH  14  17
BRANCH  18  20
ATOM     20  C   UNL     1      -7.717   6.296   4.344  0.00  0.00    +0.164 C 
BRANCH  20   1
ATOM      1  S   UNL     1      -8.366   6.114   6.012  0.00  0.00    -0.155 S 
ATOM     25  C   UNL     1      -9.814   7.190   5.868  0.00  0.00    +0.085 C 
ENDBRANCH  20   1
ENDBRANCH  18  20
TORSDOF 7
ENDMDL
