MODEL 1
REMARK VINA RESULT:      -6.4      0.000      0.000
REMARK  Name = 26743324
REMARK  10 active torsions:
REMARK  status: ('A' for Active; 'I' for Inactive)
REMARK    1  A    between atoms: C_8  and  C_12
REMARK    2  A    between atoms: C_9  and  C_14
REMARK    3  A    between atoms: C_12  and  C_15
REMARK    4  A    between atoms: C_14  and  C_21
REMARK    5  A    between atoms: C_16  and  C_22
REMARK    6  A    between atoms: C_24  and  C_25
REMARK    7  A    between atoms: C_26  and  C_27
REMARK    8  A    between atoms: C_26  and  C_32
REMARK    9  A    between atoms: C_26  and  C_33
REMARK   10  A    between atoms: C_26  and  C_34
REMARK                            x       y       z     vdW  Elec       q    Type
REMARK                         _______ _______ _______ _____ _____    ______ ____
ROOT
ATOM      4  N   UNL     1       9.400   8.671   7.533  0.00  0.00    -0.316 NA
ATOM      8  C   UNL     1      10.753   6.637   5.877  0.00  0.00    +0.004 C 
ATOM      9  C   UNL     1      11.321   8.062   6.082  0.00  0.00    +0.012 C 
ATOM     10  C   UNL     1       9.839   6.285   7.064  0.00  0.00    +0.019 C 
ATOM     11  C   UNL     1      10.208   9.079   6.383  0.00  0.00    +0.085 C 
ATOM     13  C   UNL     1       8.786   7.360   7.329  0.00  0.00    +0.081 C 
ATOM     35  H   UNL     1       8.671   9.364   7.696  0.00  0.00    +0.122 HD
ENDROOT
BRANCH   8  12
ATOM     12  C   UNL     1      10.015   6.444   4.546  0.00  0.00    +0.100 C 
BRANCH  12  15
ATOM      1  O   UNL     1       9.799   4.085   4.607  0.00  0.00    -0.276 OA
ATOM      5  N   UNL     1      11.046   4.968   2.855  0.00  0.00    -0.301 N 
ATOM     15  C   UNL     1      10.271   5.058   4.012  0.00  0.00    +0.216 C 
ATOM     16  C   UNL     1      13.447   4.577   1.291  0.00  0.00    +0.078 C 
ATOM     17  C   UNL     1      11.620   6.105   2.126  0.00  0.00    +0.108 C 
ATOM     18  C   UNL     1      11.304   3.660   2.251  0.00  0.00    +0.108 C 
ATOM     19  C   UNL     1      13.126   5.925   1.943  0.00  0.00    +0.032 C 
ATOM     20  C   UNL     1      12.802   3.428   2.071  0.00  0.00    +0.032 C 
BRANCH  16  22
ATOM      3  O   UNL     1      15.637   4.934   0.405  0.00  0.00    -0.276 OA
ATOM      7  N   UNL     1      15.403   3.494   2.185  0.00  0.00    -0.329 N 
ATOM     22  C   UNL     1      14.929   4.372   1.238  0.00  0.00    +0.214 C 
ATOM     36  H   UNL     1      14.793   3.033   2.853  0.00  0.00    +0.145 HD
ATOM     37  H   UNL     1      16.391   3.273   2.242  0.00  0.00    +0.145 HD
ENDBRANCH  16  22
ENDBRANCH  12  15
ENDBRANCH   8  12
BRANCH   9  14
ATOM     14  C   UNL     1      12.181   8.537   4.911  0.00  0.00    +0.064 C 
BRANCH  14  21
ATOM      2  O   UNL     1      15.403   8.613   6.516  0.00  0.00    -0.354 OA
ATOM      6  N   UNL     1      14.014   8.657   6.542  0.00  0.00    -0.083 NA
ATOM     21  C   UNL     1      13.639   8.532   5.266  0.00  0.00    +0.085 A 
ATOM     23  C   UNL     1      14.737   8.406   4.398  0.00  0.00    +0.076 A 
ATOM     24  C   UNL     1      15.822   8.464   5.234  0.00  0.00    +0.167 A 
BRANCH  24  25
ATOM     25  C   UNL     1      17.242   8.402   5.047  0.00  0.00    +0.020 A 
ATOM     27  C   UNL     1      20.005   8.276   4.683  0.00  0.00    -0.042 A 
ATOM     28  C   UNL     1      18.099   8.657   6.118  0.00  0.00    +0.012 A 
ATOM     29  C   UNL     1      17.767   8.083   3.794  0.00  0.00    +0.012 A 
ATOM     30  C   UNL     1      19.480   8.594   5.936  0.00  0.00    +0.005 A 
ATOM     31  C   UNL     1      19.148   8.021   3.612  0.00  0.00    +0.005 A 
BRANCH  27  26
ATOM     26  C   UNL     1      21.482   8.210   4.489  0.00  0.00    -0.013 C 
ATOM     32  C   UNL     1      21.925   9.018   3.231  0.00  0.00    +0.015 C 
ATOM     33  C   UNL     1      21.961   6.737   4.294  0.00  0.00    +0.015 C 
ATOM     34  C   UNL     1      22.340   8.773   5.670  0.00  0.00    +0.015 C 
ENDBRANCH  27  26
ENDBRANCH  24  25
ENDBRANCH  14  21
ENDBRANCH   9  14
TORSDOF 7
ENDMDL
MODEL 2
REMARK VINA RESULT:      -6.4      5.271      7.809
REMARK  Name = 26743324
REMARK  10 active torsions:
REMARK  status: ('A' for Active; 'I' for Inactive)
REMARK    1  A    between atoms: C_8  and  C_12
REMARK    2  A    between atoms: C_9  and  C_14
REMARK    3  A    between atoms: C_12  and  C_15
REMARK    4  A    between atoms: C_14  and  C_21
REMARK    5  A    between atoms: C_16  and  C_22
REMARK    6  A    between atoms: C_24  and  C_25
REMARK    7  A    between atoms: C_26  and  C_27
REMARK    8  A    between atoms: C_26  and  C_32
REMARK    9  A    between atoms: C_26  and  C_33
REMARK   10  A    between atoms: C_26  and  C_34
REMARK                            x       y       z     vdW  Elec       q    Type
REMARK                         _______ _______ _______ _____ _____    ______ ____
ROOT
ATOM      4  N   UNL     1       6.564  12.050   3.880  0.00  0.00    -0.316 NA
ATOM      8  C   UNL     1       9.090  10.576   4.281  0.00  0.00    +0.004 C 
ATOM      9  C   UNL     1       7.740   9.867   4.013  0.00  0.00    +0.012 C 
ATOM     10  C   UNL     1       9.028  12.004   3.709  0.00  0.00    +0.019 C 
ATOM     11  C   UNL     1       6.548  10.717   4.483  0.00  0.00    +0.085 C 
ATOM     13  C   UNL     1       7.797  12.772   4.188  0.00  0.00    +0.081 C 
ATOM     35  H   UNL     1       5.766  12.584   4.221  0.00  0.00    +0.122 HD
ENDROOT
BRANCH   8  12
ATOM     12  C   UNL     1       9.501  10.599   5.758  0.00  0.00    +0.100 C 
BRANCH  12  15
ATOM      1  O   UNL     1      11.734  10.007   5.234  0.00  0.00    -0.276 OA
ATOM      5  N   UNL     1      10.725   8.823   6.962  0.00  0.00    -0.301 N 
ATOM     15  C   UNL     1      10.756   9.788   5.956  0.00  0.00    +0.216 C 
ATOM     16  C   UNL     1      10.429   6.179   8.097  0.00  0.00    +0.078 C 
ATOM     17  C   UNL     1       9.579   8.541   7.834  0.00  0.00    +0.108 C 
ATOM     18  C   UNL     1      11.919   8.024   7.242  0.00  0.00    +0.108 C 
ATOM     19  C   UNL     1       9.214   7.059   7.786  0.00  0.00    +0.032 C 
ATOM     20  C   UNL     1      11.604   6.532   7.181  0.00  0.00    +0.032 C 
BRANCH  16  22
ATOM      3  O   UNL     1       9.774   4.016   8.869  0.00  0.00    -0.276 OA
ATOM      7  N   UNL     1      10.142   4.303   6.616  0.00  0.00    -0.329 N 
ATOM     22  C   UNL     1      10.076   4.735   7.921  0.00  0.00    +0.214 C 
ATOM     36  H   UNL     1      10.407   4.916   5.852  0.00  0.00    +0.145 HD
ATOM     37  H   UNL     1       9.929   3.341   6.375  0.00  0.00    +0.145 HD
ENDBRANCH  16  22
ENDBRANCH  12  15
ENDBRANCH   8  12
BRANCH   9  14
ATOM     14  C   UNL     1       7.672   8.464   4.617  0.00  0.00    +0.064 C 
BRANCH  14  21
ATOM      2  O   UNL     1       9.975   5.869   3.657  0.00  0.00    -0.354 OA
ATOM      6  N   UNL     1       9.203   6.543   4.595  0.00  0.00    -0.083 NA
ATOM     21  C   UNL     1       8.600   7.519   3.911  0.00  0.00    +0.085 A 
ATOM     23  C   UNL     1       8.949   7.511   2.550  0.00  0.00    +0.076 A 
ATOM     24  C   UNL     1       9.816   6.454   2.443  0.00  0.00    +0.167 A 
BRANCH  24  25
ATOM     25  C   UNL     1      10.556   5.864   1.366  0.00  0.00    +0.020 A 
ATOM     27  C   UNL     1      11.997   4.718  -0.730  0.00  0.00    -0.042 A 
ATOM     28  C   UNL     1       9.889   5.406   0.229  0.00  0.00    +0.012 A 
ATOM     29  C   UNL     1      11.944   5.748   1.454  0.00  0.00    +0.012 A 
ATOM     30  C   UNL     1      10.610   4.833  -0.818  0.00  0.00    +0.005 A 
ATOM     31  C   UNL     1      12.664   5.175   0.407  0.00  0.00    +0.005 A 
BRANCH  27  26
ATOM     26  C   UNL     1      12.767   4.104  -1.851  0.00  0.00    -0.013 C 
ATOM     32  C   UNL     1      14.293   4.064  -1.533  0.00  0.00    +0.015 C 
ATOM     33  C   UNL     1      12.582   4.913  -3.172  0.00  0.00    +0.015 C 
ATOM     34  C   UNL     1      12.376   2.631  -2.206  0.00  0.00    +0.015 C 
ENDBRANCH  27  26
ENDBRANCH  24  25
ENDBRANCH  14  21
ENDBRANCH   9  14
TORSDOF 7
ENDMDL
MODEL 3
REMARK VINA RESULT:      -6.4     27.061     31.615
REMARK  Name = 26743324
REMARK  10 active torsions:
REMARK  status: ('A' for Active; 'I' for Inactive)
REMARK    1  A    between atoms: C_8  and  C_12
REMARK    2  A    between atoms: C_9  and  C_14
REMARK    3  A    between atoms: C_12  and  C_15
REMARK    4  A    between atoms: C_14  and  C_21
REMARK    5  A    between atoms: C_16  and  C_22
REMARK    6  A    between atoms: C_24  and  C_25
REMARK    7  A    between atoms: C_26  and  C_27
REMARK    8  A    between atoms: C_26  and  C_32
REMARK    9  A    between atoms: C_26  and  C_33
REMARK   10  A    between atoms: C_26  and  C_34
REMARK                            x       y       z     vdW  Elec       q    Type
REMARK                         _______ _______ _______ _____ _____    ______ ____
ROOT
ATOM      4  N   UNL     1     -10.811 -11.183  15.833  0.00  0.00    -0.316 NA
ATOM      8  C   UNL     1      -9.257  -9.748  17.893  0.00  0.00    +0.004 C 
ATOM      9  C   UNL     1     -10.454  -9.107  17.150  0.00  0.00    +0.012 C 
ATOM     10  C   UNL     1      -9.414 -11.279  17.869  0.00  0.00    +0.019 C 
ATOM     11  C   UNL     1     -10.658  -9.729  15.758  0.00  0.00    +0.085 C 
ATOM     13  C   UNL     1      -9.653 -11.819  16.460  0.00  0.00    +0.081 C 
ATOM     35  H   UNL     1     -10.935 -11.558  14.894  0.00  0.00    +0.122 HD
ENDROOT
BRANCH   8  12
ATOM     12  C   UNL     1      -7.887  -9.332  17.346  0.00  0.00    +0.100 C 
BRANCH  12  15
ATOM      1  O   UNL     1      -6.735 -10.059  19.284  0.00  0.00    -0.276 OA
ATOM      5  N   UNL     1      -5.910 -10.809  17.245  0.00  0.00    -0.301 N 
ATOM     15  C   UNL     1      -6.796 -10.097  18.052  0.00  0.00    +0.216 C 
ATOM     16  C   UNL     1      -3.471 -11.301  15.770  0.00  0.00    +0.078 C 
ATOM     17  C   UNL     1      -5.958 -10.873  15.779  0.00  0.00    +0.108 C 
ATOM     18  C   UNL     1      -4.849 -11.610  17.858  0.00  0.00    +0.108 C 
ATOM     19  C   UNL     1      -4.613 -10.472  15.176  0.00  0.00    +0.032 C 
ATOM     20  C   UNL     1      -3.482 -11.225  17.299  0.00  0.00    +0.032 C 
BRANCH  16  22
ATOM      3  O   UNL     1      -2.043 -10.269  14.156  0.00  0.00    -0.276 OA
ATOM      7  N   UNL     1      -1.105 -11.024  16.117  0.00  0.00    -0.329 N 
ATOM     22  C   UNL     1      -2.155 -10.804  15.256  0.00  0.00    +0.214 C 
ATOM     36  H   UNL     1      -1.223 -11.482  17.015  0.00  0.00    +0.145 HD
ATOM     37  H   UNL     1      -0.163 -10.735  15.874  0.00  0.00    +0.145 HD
ENDBRANCH  16  22
ENDBRANCH  12  15
ENDBRANCH   8  12
BRANCH   9  14
ATOM     14  C   UNL     1     -10.350  -7.585  17.049  0.00  0.00    +0.064 C 
BRANCH  14  21
ATOM      2  O   UNL     1     -13.485  -6.558  15.608  0.00  0.00    -0.354 OA
ATOM      6  N   UNL     1     -12.732  -7.204  16.580  0.00  0.00    -0.083 NA
ATOM     21  C   UNL     1     -11.460  -7.015  16.215  0.00  0.00    +0.085 A 
ATOM     23  C   UNL     1     -11.351  -6.263  15.033  0.00  0.00    +0.076 A 
ATOM     24  C   UNL     1     -12.652  -6.002  14.692  0.00  0.00    +0.167 A 
BRANCH  24  25
ATOM     25  C   UNL     1     -13.290  -5.294  13.620  0.00  0.00    +0.020 A 
ATOM     27  C   UNL     1     -14.531  -3.922  11.532  0.00  0.00    -0.042 A 
ATOM     28  C   UNL     1     -12.611  -4.272  12.956  0.00  0.00    +0.012 A 
ATOM     29  C   UNL     1     -14.590  -5.630  13.239  0.00  0.00    +0.012 A 
ATOM     30  C   UNL     1     -13.231  -3.586  11.913  0.00  0.00    +0.005 A 
ATOM     31  C   UNL     1     -15.210  -4.944  12.196  0.00  0.00    +0.005 A 
BRANCH  27  26
ATOM     26  C   UNL     1     -15.194  -3.187  10.416  0.00  0.00    -0.013 C 
ATOM     32  C   UNL     1     -14.184  -2.865   9.272  0.00  0.00    +0.015 C 
ATOM     33  C   UNL     1     -15.794  -1.833  10.909  0.00  0.00    +0.015 C 
ATOM     34  C   UNL     1     -16.379  -3.941   9.727  0.00  0.00    +0.015 C 
ENDBRANCH  27  26
ENDBRANCH  24  25
ENDBRANCH  14  21
ENDBRANCH   9  14
TORSDOF 7
ENDMDL
MODEL 4
REMARK VINA RESULT:      -6.2     26.156     31.457
REMARK  Name = 26743324
REMARK  10 active torsions:
REMARK  status: ('A' for Active; 'I' for Inactive)
REMARK    1  A    between atoms: C_8  and  C_12
REMARK    2  A    between atoms: C_9  and  C_14
REMARK    3  A    between atoms: C_12  and  C_15
REMARK    4  A    between atoms: C_14  and  C_21
REMARK    5  A    between atoms: C_16  and  C_22
REMARK    6  A    between atoms: C_24  and  C_25
REMARK    7  A    between atoms: C_26  and  C_27
REMARK    8  A    between atoms: C_26  and  C_32
REMARK    9  A    between atoms: C_26  and  C_33
REMARK   10  A    between atoms: C_26  and  C_34
REMARK                            x       y       z     vdW  Elec       q    Type
REMARK                         _______ _______ _______ _____ _____    ______ ____
ROOT
ATOM      4  N   UNL     1      -5.563 -14.006  16.115  0.00  0.00    -0.316 NA
ATOM      8  C   UNL     1      -3.641 -11.773  15.939  0.00  0.00    +0.004 C 
ATOM      9  C   UNL     1      -4.562 -11.991  17.165  0.00  0.00    +0.012 C 
ATOM     10  C   UNL     1      -3.439 -13.117  15.218  0.00  0.00    +0.019 C 
ATOM     11  C   UNL     1      -5.851 -12.736  16.782  0.00  0.00    +0.085 C 
ATOM     13  C   UNL     1      -4.761 -13.817  14.907  0.00  0.00    +0.081 C 
ATOM     35  H   UNL     1      -6.439 -14.465  15.870  0.00  0.00    +0.122 HD
ENDROOT
BRANCH   8  12
ATOM     12  C   UNL     1      -4.144 -10.702  14.964  0.00  0.00    +0.100 C 
BRANCH  12  15
ATOM      1  O   UNL     1      -1.981 -10.121  14.190  0.00  0.00    -0.276 OA
ATOM      5  N   UNL     1      -3.548 -10.681  12.567  0.00  0.00    -0.301 N 
ATOM     15  C   UNL     1      -3.122 -10.474  13.879  0.00  0.00    +0.216 C 
ATOM     16  C   UNL     1      -4.539  -9.948   9.950  0.00  0.00    +0.078 C 
ATOM     17  C   UNL     1      -4.897 -11.100  12.167  0.00  0.00    +0.108 C 
ATOM     18  C   UNL     1      -2.603 -10.520  11.460  0.00  0.00    +0.108 C 
ATOM     19  C   UNL     1      -5.483 -10.131  11.142  0.00  0.00    +0.032 C 
ATOM     20  C   UNL     1      -3.141  -9.539  10.421  0.00  0.00    +0.032 C 
BRANCH  16  22
ATOM      3  O   UNL     1      -5.484  -7.816   9.431  0.00  0.00    -0.276 OA
ATOM      7  N   UNL     1      -5.089  -9.283   7.703  0.00  0.00    -0.329 N 
ATOM     22  C   UNL     1      -5.078  -8.902   9.025  0.00  0.00    +0.214 C 
ATOM     36  H   UNL     1      -4.760 -10.192   7.395  0.00  0.00    +0.145 HD
ATOM     37  H   UNL     1      -5.437  -8.658   6.983  0.00  0.00    +0.145 HD
ENDBRANCH  16  22
ENDBRANCH  12  15
ENDBRANCH   8  12
BRANCH   9  14
ATOM     14  C   UNL     1      -4.890 -10.694  17.905  0.00  0.00    +0.064 C 
BRANCH  14  21
ATOM      2  O   UNL     1      -7.760 -11.118  20.036  0.00  0.00    -0.354 OA
ATOM      6  N   UNL     1      -6.398 -11.199  19.778  0.00  0.00    -0.083 NA
ATOM     21  C   UNL     1      -6.254 -10.750  18.528  0.00  0.00    +0.085 A 
ATOM     23  C   UNL     1      -7.479 -10.373  17.953  0.00  0.00    +0.076 A 
ATOM     24  C   UNL     1      -8.394 -10.625  18.941  0.00  0.00    +0.167 A 
BRANCH  24  25
ATOM     25  C   UNL     1      -9.817 -10.483  19.058  0.00  0.00    +0.020 A 
ATOM     27  C   UNL     1     -12.583 -10.202  19.286  0.00  0.00    -0.042 A 
ATOM     28  C   UNL     1     -10.506 -11.163  20.062  0.00  0.00    +0.012 A 
ATOM     29  C   UNL     1     -10.510  -9.662  18.168  0.00  0.00    +0.012 A 
ATOM     30  C   UNL     1     -11.889 -11.023  20.176  0.00  0.00    +0.005 A 
ATOM     31  C   UNL     1     -11.893  -9.522  18.282  0.00  0.00    +0.005 A 
BRANCH  27  26
ATOM     26  C   UNL     1     -14.062 -10.053  19.409  0.00  0.00    -0.013 C 
ATOM     32  C   UNL     1     -14.646  -9.221  18.226  0.00  0.00    +0.015 C 
ATOM     33  C   UNL     1     -14.449  -9.325  20.733  0.00  0.00    +0.015 C 
ATOM     34  C   UNL     1     -14.873 -11.391  19.418  0.00  0.00    +0.015 C 
ENDBRANCH  27  26
ENDBRANCH  24  25
ENDBRANCH  14  21
ENDBRANCH   9  14
TORSDOF 7
ENDMDL
MODEL 5
REMARK VINA RESULT:      -6.1     25.826     30.148
REMARK  Name = 26743324
REMARK  10 active torsions:
REMARK  status: ('A' for Active; 'I' for Inactive)
REMARK    1  A    between atoms: C_8  and  C_12
REMARK    2  A    between atoms: C_9  and  C_14
REMARK    3  A    between atoms: C_12  and  C_15
REMARK    4  A    between atoms: C_14  and  C_21
REMARK    5  A    between atoms: C_16  and  C_22
REMARK    6  A    between atoms: C_24  and  C_25
REMARK    7  A    between atoms: C_26  and  C_27
REMARK    8  A    between atoms: C_26  and  C_32
REMARK    9  A    between atoms: C_26  and  C_33
REMARK   10  A    between atoms: C_26  and  C_34
REMARK                            x       y       z     vdW  Elec       q    Type
REMARK                         _______ _______ _______ _____ _____    ______ ____
ROOT
ATOM      4  N   UNL     1      -5.780 -13.936  16.033  0.00  0.00    -0.316 NA
ATOM      8  C   UNL     1      -3.762 -11.791  15.837  0.00  0.00    +0.004 C 
ATOM      9  C   UNL     1      -4.662 -11.983  17.082  0.00  0.00    +0.012 C 
ATOM     10  C   UNL     1      -3.639 -13.134  15.095  0.00  0.00    +0.019 C 
ATOM     11  C   UNL     1      -5.993 -12.662  16.722  0.00  0.00    +0.085 C 
ATOM     13  C   UNL     1      -5.000 -13.768  14.808  0.00  0.00    +0.081 C 
ATOM     35  H   UNL     1      -6.682 -14.351  15.803  0.00  0.00    +0.122 HD
ENDROOT
BRANCH   8  12
ATOM     12  C   UNL     1      -4.237 -10.686  14.887  0.00  0.00    +0.100 C 
BRANCH  12  15
ATOM      1  O   UNL     1      -2.103 -10.253  13.953  0.00  0.00    -0.276 OA
ATOM      5  N   UNL     1      -3.801 -10.783  12.458  0.00  0.00    -0.301 N 
ATOM     15  C   UNL     1      -3.279 -10.554  13.730  0.00  0.00    +0.216 C 
ATOM     16  C   UNL     1      -4.923 -10.090   9.883  0.00  0.00    +0.078 C 
ATOM     17  C   UNL     1      -5.194 -11.141  12.162  0.00  0.00    +0.108 C 
ATOM     18  C   UNL     1      -2.924 -10.715  11.287  0.00  0.00    +0.108 C 
ATOM     19  C   UNL     1      -5.794 -10.179  11.140  0.00  0.00    +0.032 C 
ATOM     20  C   UNL     1      -3.477  -9.743  10.247  0.00  0.00    +0.032 C 
BRANCH  16  22
ATOM      3  O   UNL     1      -6.145  -8.108   9.353  0.00  0.00    -0.276 OA
ATOM      7  N   UNL     1      -5.147  -9.265   7.633  0.00  0.00    -0.329 N 
ATOM     22  C   UNL     1      -5.466  -9.050   8.954  0.00  0.00    +0.214 C 
ATOM     36  H   UNL     1      -4.594 -10.060   7.328  0.00  0.00    +0.145 HD
ATOM     37  H   UNL     1      -5.464  -8.628   6.910  0.00  0.00    +0.145 HD
ENDBRANCH  16  22
ENDBRANCH  12  15
ENDBRANCH   8  12
BRANCH   9  14
ATOM     14  C   UNL     1      -4.912 -10.682  17.845  0.00  0.00    +0.064 C 
BRANCH  14  21
ATOM      2  O   UNL     1      -8.424  -9.979  18.201  0.00  0.00    -0.354 OA
ATOM      6  N   UNL     1      -7.233 -10.546  18.638  0.00  0.00    -0.083 NA
ATOM     21  C   UNL     1      -6.335 -10.228  17.701  0.00  0.00    +0.085 A 
ATOM     23  C   UNL     1      -6.896  -9.469  16.660  0.00  0.00    +0.076 A 
ATOM     24  C   UNL     1      -8.212  -9.342  17.023  0.00  0.00    +0.167 A 
BRANCH  24  25
ATOM     25  C   UNL     1      -9.358  -8.703  16.445  0.00  0.00    +0.020 A 
ATOM     27  C   UNL     1     -11.587  -7.460  15.319  0.00  0.00    -0.042 A 
ATOM     28  C   UNL     1     -10.049  -7.727  17.163  0.00  0.00    +0.012 A 
ATOM     29  C   UNL     1      -9.782  -9.058  15.164  0.00  0.00    +0.012 A 
ATOM     30  C   UNL     1     -11.163  -7.106  16.600  0.00  0.00    +0.005 A 
ATOM     31  C   UNL     1     -10.896  -8.437  14.601  0.00  0.00    +0.005 A 
BRANCH  27  26
ATOM     26  C   UNL     1     -12.779  -6.795  14.717  0.00  0.00    -0.013 C 
ATOM     32  C   UNL     1     -13.290  -7.574  13.466  0.00  0.00    +0.015 C 
ATOM     33  C   UNL     1     -12.446  -5.340  14.262  0.00  0.00    +0.015 C 
ATOM     34  C   UNL     1     -14.020  -6.662  15.661  0.00  0.00    +0.015 C 
ENDBRANCH  27  26
ENDBRANCH  24  25
ENDBRANCH  14  21
ENDBRANCH   9  14
TORSDOF 7
ENDMDL
MODEL 6
REMARK VINA RESULT:      -6.0      5.357      9.604
REMARK  Name = 26743324
REMARK  10 active torsions:
REMARK  status: ('A' for Active; 'I' for Inactive)
REMARK    1  A    between atoms: C_8  and  C_12
REMARK    2  A    between atoms: C_9  and  C_14
REMARK    3  A    between atoms: C_12  and  C_15
REMARK    4  A    between atoms: C_14  and  C_21
REMARK    5  A    between atoms: C_16  and  C_22
REMARK    6  A    between atoms: C_24  and  C_25
REMARK    7  A    between atoms: C_26  and  C_27
REMARK    8  A    between atoms: C_26  and  C_32
REMARK    9  A    between atoms: C_26  and  C_33
REMARK   10  A    between atoms: C_26  and  C_34
REMARK                            x       y       z     vdW  Elec       q    Type
REMARK                         _______ _______ _______ _____ _____    ______ ____
ROOT
ATOM      4  N   UNL     1      16.554   4.447  -0.390  0.00  0.00    -0.316 NA
ATOM      8  C   UNL     1      13.620   4.636  -0.658  0.00  0.00    +0.004 C 
ATOM      9  C   UNL     1      14.319   4.302   0.683  0.00  0.00    +0.012 C 
ATOM     10  C   UNL     1      14.601   5.414  -1.554  0.00  0.00    +0.019 C 
ATOM     11  C   UNL     1      15.684   3.632   0.461  0.00  0.00    +0.085 C 
ATOM     13  C   UNL     1      15.948   4.708  -1.694  0.00  0.00    +0.081 C 
ATOM     35  H   UNL     1      17.444   3.967  -0.520  0.00  0.00    +0.122 HD
ENDROOT
BRANCH   8  12
ATOM     12  C   UNL     1      13.064   3.412  -1.394  0.00  0.00    +0.100 C 
BRANCH  12  15
ATOM      1  O   UNL     1      10.766   3.465  -0.821  0.00  0.00    -0.276 OA
ATOM      5  N   UNL     1      11.297   3.984  -3.023  0.00  0.00    -0.301 N 
ATOM     15  C   UNL     1      11.605   3.622  -1.712  0.00  0.00    +0.216 C 
ATOM     16  C   UNL     1      10.469   3.580  -5.765  0.00  0.00    +0.078 C 
ATOM     17  C   UNL     1      12.273   4.177  -4.103  0.00  0.00    +0.108 C 
ATOM     18  C   UNL     1       9.907   4.246  -3.399  0.00  0.00    +0.108 C 
ATOM     19  C   UNL     1      11.911   3.324  -5.317  0.00  0.00    +0.032 C 
ATOM     20  C   UNL     1       9.496   3.393  -4.598  0.00  0.00    +0.032 C 
BRANCH  16  22
ATOM      3  O   UNL     1      10.917   1.876  -7.378  0.00  0.00    -0.276 OA
ATOM      7  N   UNL     1       8.789   2.744  -7.273  0.00  0.00    -0.329 N 
ATOM     22  C   UNL     1      10.102   2.643  -6.874  0.00  0.00    +0.214 C 
ATOM     36  H   UNL     1       8.139   3.397  -6.848  0.00  0.00    +0.145 HD
ATOM     37  H   UNL     1       8.426   2.163  -8.020  0.00  0.00    +0.145 HD
ENDBRANCH  16  22
ENDBRANCH  12  15
ENDBRANCH   8  12
BRANCH   9  14
ATOM     14  C   UNL     1      13.450   3.457   1.615  0.00  0.00    +0.064 C 
BRANCH  14  21
ATOM      2  O   UNL     1      10.294   4.539   2.967  0.00  0.00    -0.354 OA
ATOM      6  N   UNL     1      11.268   3.575   2.739  0.00  0.00    -0.083 NA
ATOM     21  C   UNL     1      12.221   4.203   2.043  0.00  0.00    +0.085 A 
ATOM     23  C   UNL     1      11.905   5.552   1.805  0.00  0.00    +0.076 A 
ATOM     24  C   UNL     1      10.683   5.711   2.406  0.00  0.00    +0.167 A 
BRANCH  24  25
ATOM     25  C   UNL     1       9.772   6.808   2.560  0.00  0.00    +0.020 A 
ATOM     27  C   UNL     1       7.997   8.939   2.861  0.00  0.00    -0.042 A 
ATOM     28  C   UNL     1       9.543   7.680   1.496  0.00  0.00    +0.012 A 
ATOM     29  C   UNL     1       9.114   7.001   3.775  0.00  0.00    +0.012 A 
ATOM     30  C   UNL     1       8.655   8.745   1.646  0.00  0.00    +0.005 A 
ATOM     31  C   UNL     1       8.227   8.066   3.926  0.00  0.00    +0.005 A 
BRANCH  27  26
ATOM     26  C   UNL     1       7.048  10.078   3.022  0.00  0.00    -0.013 C 
ATOM     32  C   UNL     1       7.687  11.418   2.542  0.00  0.00    +0.015 C 
ATOM     33  C   UNL     1       6.634  10.263   4.515  0.00  0.00    +0.015 C 
ATOM     34  C   UNL     1       5.705   9.950   2.230  0.00  0.00    +0.015 C 
ENDBRANCH  27  26
ENDBRANCH  24  25
ENDBRANCH  14  21
ENDBRANCH   9  14
TORSDOF 7
ENDMDL
MODEL 7
REMARK VINA RESULT:      -6.0     16.269     19.847
REMARK  Name = 26743324
REMARK  10 active torsions:
REMARK  status: ('A' for Active; 'I' for Inactive)
REMARK    1  A    between atoms: C_8  and  C_12
REMARK    2  A    between atoms: C_9  and  C_14
REMARK    3  A    between atoms: C_12  and  C_15
REMARK    4  A    between atoms: C_14  and  C_21
REMARK    5  A    between atoms: C_16  and  C_22
REMARK    6  A    between atoms: C_24  and  C_25
REMARK    7  A    between atoms: C_26  and  C_27
REMARK    8  A    between atoms: C_26  and  C_32
REMARK    9  A    between atoms: C_26  and  C_33
REMARK   10  A    between atoms: C_26  and  C_34
REMARK                            x       y       z     vdW  Elec       q    Type
REMARK                         _______ _______ _______ _____ _____    ______ ____
ROOT
ATOM      4  N   UNL     1      20.328   8.399  25.968  0.00  0.00    -0.316 NA
ATOM      8  C   UNL     1      22.315   8.485  23.786  0.00  0.00    +0.004 C 
ATOM      9  C   UNL     1      20.949   7.768  23.647  0.00  0.00    +0.012 C 
ATOM     10  C   UNL     1      22.201   9.575  24.866  0.00  0.00    +0.019 C 
ATOM     11  C   UNL     1      20.414   7.296  25.009  0.00  0.00    +0.085 C 
ATOM     13  C   UNL     1      21.625   9.040  26.177  0.00  0.00    +0.081 C 
ATOM     35  H   UNL     1      19.979   8.046  26.858  0.00  0.00    +0.122 HD
ENDROOT
BRANCH   8  12
ATOM     12  C   UNL     1      23.487   7.542  24.084  0.00  0.00    +0.100 C 
BRANCH  12  15
ATOM      1  O   UNL     1      24.623   8.453  22.215  0.00  0.00    -0.276 OA
ATOM      5  N   UNL     1      24.890   6.173  22.582  0.00  0.00    -0.301 N 
ATOM     15  C   UNL     1      24.384   7.439  22.877  0.00  0.00    +0.216 C 
ATOM     16  C   UNL     1      25.021   3.610  21.248  0.00  0.00    +0.078 C 
ATOM     17  C   UNL     1      24.623   4.950  23.349  0.00  0.00    +0.108 C 
ATOM     18  C   UNL     1      25.801   5.999  21.450  0.00  0.00    +0.108 C 
ATOM     19  C   UNL     1      24.088   3.847  22.439  0.00  0.00    +0.032 C 
ATOM     20  C   UNL     1      25.291   4.918  20.500  0.00  0.00    +0.032 C 
BRANCH  16  22
ATOM      3  O   UNL     1      23.887   1.578  20.706  0.00  0.00    -0.276 OA
ATOM      7  N   UNL     1      24.520   2.966  18.983  0.00  0.00    -0.329 N 
ATOM     22  C   UNL     1      24.413   2.615  20.309  0.00  0.00    +0.214 C 
ATOM     36  H   UNL     1      24.972   3.824  18.681  0.00  0.00    +0.145 HD
ATOM     37  H   UNL     1      24.149   2.367  18.254  0.00  0.00    +0.145 HD
ENDBRANCH  16  22
ENDBRANCH  12  15
ENDBRANCH   8  12
BRANCH   9  14
ATOM     14  C   UNL     1      20.981   6.609  22.650  0.00  0.00    +0.064 C 
BRANCH  14  21
ATOM      2  O   UNL     1      18.518   6.092  20.076  0.00  0.00    -0.354 OA
ATOM      6  N   UNL     1      19.717   5.789  20.710  0.00  0.00    -0.083 NA
ATOM     21  C   UNL     1      19.795   6.647  21.731  0.00  0.00    +0.085 A 
ATOM     23  C   UNL     1      18.685   7.506  21.791  0.00  0.00    +0.076 A 
ATOM     24  C   UNL     1      17.913   7.116  20.728  0.00  0.00    +0.167 A 
BRANCH  24  25
ATOM     25  C   UNL     1      16.655   7.542  20.186  0.00  0.00    +0.020 A 
ATOM     27  C   UNL     1      14.211   8.372  19.128  0.00  0.00    -0.042 A 
ATOM     28  C   UNL     1      16.171   8.820  20.468  0.00  0.00    +0.012 A 
ATOM     29  C   UNL     1      15.918   6.680  19.375  0.00  0.00    +0.012 A 
ATOM     30  C   UNL     1      14.949   9.234  19.939  0.00  0.00    +0.005 A 
ATOM     31  C   UNL     1      14.696   7.094  18.846  0.00  0.00    +0.005 A 
BRANCH  27  26
ATOM     26  C   UNL     1      12.904   8.815  18.563  0.00  0.00    -0.013 C 
ATOM     32  C   UNL     1      12.390   7.821  17.477  0.00  0.00    +0.015 C 
ATOM     33  C   UNL     1      13.025  10.221  17.896  0.00  0.00    +0.015 C 
ATOM     34  C   UNL     1      11.736   8.944  19.596  0.00  0.00    +0.015 C 
ENDBRANCH  27  26
ENDBRANCH  24  25
ENDBRANCH  14  21
ENDBRANCH   9  14
TORSDOF 7
ENDMDL
MODEL 8
REMARK VINA RESULT:      -6.0      4.955      8.899
REMARK  Name = 26743324
REMARK  10 active torsions:
REMARK  status: ('A' for Active; 'I' for Inactive)
REMARK    1  A    between atoms: C_8  and  C_12
REMARK    2  A    between atoms: C_9  and  C_14
REMARK    3  A    between atoms: C_12  and  C_15
REMARK    4  A    between atoms: C_14  and  C_21
REMARK    5  A    between atoms: C_16  and  C_22
REMARK    6  A    between atoms: C_24  and  C_25
REMARK    7  A    between atoms: C_26  and  C_27
REMARK    8  A    between atoms: C_26  and  C_32
REMARK    9  A    between atoms: C_26  and  C_33
REMARK   10  A    between atoms: C_26  and  C_34
REMARK                            x       y       z     vdW  Elec       q    Type
REMARK                         _______ _______ _______ _____ _____    ______ ____
ROOT
ATOM      4  N   UNL     1      18.037   5.389  -1.287  0.00  0.00    -0.316 NA
ATOM      8  C   UNL     1      15.267   6.396  -1.125  0.00  0.00    +0.004 C 
ATOM      9  C   UNL     1      15.656   4.949  -0.735  0.00  0.00    +0.012 C 
ATOM     10  C   UNL     1      16.503   7.302  -0.985  0.00  0.00    +0.019 C 
ATOM     11  C   UNL     1      16.910   4.476  -1.487  0.00  0.00    +0.085 C 
ATOM     13  C   UNL     1      17.720   6.747  -1.723  0.00  0.00    +0.081 C 
ATOM     35  H   UNL     1      18.845   5.047  -1.806  0.00  0.00    +0.122 HD
ENDROOT
BRANCH   8  12
ATOM     12  C   UNL     1      14.654   6.523  -2.524  0.00  0.00    +0.100 C 
BRANCH  12  15
ATOM      1  O   UNL     1      12.741   7.609  -1.645  0.00  0.00    -0.276 OA
ATOM      5  N   UNL     1      12.356   5.938  -3.214  0.00  0.00    -0.301 N 
ATOM     15  C   UNL     1      13.167   6.745  -2.417  0.00  0.00    +0.216 C 
ATOM     16  C   UNL     1      10.635   3.699  -3.842  0.00  0.00    +0.078 C 
ATOM     17  C   UNL     1      12.833   4.904  -4.140  0.00  0.00    +0.108 C 
ATOM     18  C   UNL     1      10.904   6.122  -3.197  0.00  0.00    +0.108 C 
ATOM     19  C   UNL     1      12.161   3.564  -3.847  0.00  0.00    +0.032 C 
ATOM     20  C   UNL     1      10.191   4.808  -2.884  0.00  0.00    +0.032 C 
BRANCH  16  22
ATOM      3  O   UNL     1      10.347   1.807  -2.413  0.00  0.00    -0.276 OA
ATOM      7  N   UNL     1       9.043   1.954  -4.303  0.00  0.00    -0.329 N 
ATOM     22  C   UNL     1      10.006   2.405  -3.431  0.00  0.00    +0.214 C 
ATOM     36  H   UNL     1       8.790   2.462  -5.145  0.00  0.00    +0.145 HD
ATOM     37  H   UNL     1       8.550   1.085  -4.131  0.00  0.00    +0.145 HD
ENDBRANCH  16  22
ENDBRANCH  12  15
ENDBRANCH   8  12
BRANCH   9  14
ATOM     14  C   UNL     1      14.511   3.953  -0.919  0.00  0.00    +0.064 C 
BRANCH  14  21
ATOM      2  O   UNL     1      11.431   4.164   0.934  0.00  0.00    -0.354 OA
ATOM      6  N   UNL     1      12.167   3.822  -0.194  0.00  0.00    -0.083 NA
ATOM     21  C   UNL     1      13.423   4.178   0.090  0.00  0.00    +0.085 A 
ATOM     23  C   UNL     1      13.539   4.745   1.371  0.00  0.00    +0.076 A 
ATOM     24  C   UNL     1      12.259   4.713   1.858  0.00  0.00    +0.167 A 
BRANCH  24  25
ATOM     25  C   UNL     1      11.638   5.119   3.086  0.00  0.00    +0.020 A 
ATOM     27  C   UNL     1      10.427   5.908   5.472  0.00  0.00    -0.042 A 
ATOM     28  C   UNL     1      12.032   6.303   3.710  0.00  0.00    +0.012 A 
ATOM     29  C   UNL     1      10.638   4.329   3.655  0.00  0.00    +0.012 A 
ATOM     30  C   UNL     1      11.427   6.697   4.902  0.00  0.00    +0.005 A 
ATOM     31  C   UNL     1      10.033   4.724   4.848  0.00  0.00    +0.005 A 
BRANCH  27  26
ATOM     26  C   UNL     1       9.780   6.330   6.748  0.00  0.00    -0.013 C 
ATOM     32  C   UNL     1       8.333   6.857   6.501  0.00  0.00    +0.015 C 
ATOM     33  C   UNL     1      10.586   7.474   7.439  0.00  0.00    +0.015 C 
ATOM     34  C   UNL     1       9.637   5.210   7.830  0.00  0.00    +0.015 C 
ENDBRANCH  27  26
ENDBRANCH  24  25
ENDBRANCH  14  21
ENDBRANCH   9  14
TORSDOF 7
ENDMDL
MODEL 9
REMARK VINA RESULT:      -5.9     15.969     20.200
REMARK  Name = 26743324
REMARK  10 active torsions:
REMARK  status: ('A' for Active; 'I' for Inactive)
REMARK    1  A    between atoms: C_8  and  C_12
REMARK    2  A    between atoms: C_9  and  C_14
REMARK    3  A    between atoms: C_12  and  C_15
REMARK    4  A    between atoms: C_14  and  C_21
REMARK    5  A    between atoms: C_16  and  C_22
REMARK    6  A    between atoms: C_24  and  C_25
REMARK    7  A    between atoms: C_26  and  C_27
REMARK    8  A    between atoms: C_26  and  C_32
REMARK    9  A    between atoms: C_26  and  C_33
REMARK   10  A    between atoms: C_26  and  C_34
REMARK                            x       y       z     vdW  Elec       q    Type
REMARK                         _______ _______ _______ _____ _____    ______ ____
ROOT
ATOM      4  N   UNL     1      18.253 -16.980  -2.105  0.00  0.00    -0.316 NA
ATOM      8  C   UNL     1      16.957 -14.673  -0.797  0.00  0.00    +0.004 C 
ATOM      9  C   UNL     1      18.294 -14.555  -1.567  0.00  0.00    +0.012 C 
ATOM     10  C   UNL     1      16.177 -15.888  -1.329  0.00  0.00    +0.019 C 
ATOM     11  C   UNL     1      19.066 -15.885  -1.571  0.00  0.00    +0.085 C 
ATOM     13  C   UNL     1      17.020 -17.162  -1.342  0.00  0.00    +0.081 C 
ATOM     35  H   UNL     1      18.794 -17.843  -2.083  0.00  0.00    +0.122 HD
ENDROOT
BRANCH   8  12
ATOM     12  C   UNL     1      17.117 -14.752   0.725  0.00  0.00    +0.100 C 
BRANCH  12  15
ATOM      1  O   UNL     1      15.256 -13.374   1.224  0.00  0.00    -0.276 OA
ATOM      5  N   UNL     1      17.300 -12.720   2.117  0.00  0.00    -0.301 N 
ATOM     15  C   UNL     1      16.467 -13.557   1.375  0.00  0.00    +0.216 C 
ATOM     16  C   UNL     1      18.976 -10.419   2.630  0.00  0.00    +0.078 C 
ATOM     17  C   UNL     1      18.742 -12.912   2.313  0.00  0.00    +0.108 C 
ATOM     18  C   UNL     1      16.736 -11.562   2.812  0.00  0.00    +0.108 C 
ATOM     19  C   UNL     1      19.514 -11.658   1.909  0.00  0.00    +0.032 C 
ATOM     20  C   UNL     1      17.466 -10.280   2.418  0.00  0.00    +0.032 C 
BRANCH  16  22
ATOM      3  O   UNL     1      20.484  -8.574   2.802  0.00  0.00    -0.276 OA
ATOM      7  N   UNL     1      19.279  -8.819   0.857  0.00  0.00    -0.329 N 
ATOM     22  C   UNL     1      19.665  -9.190   2.124  0.00  0.00    +0.214 C 
ATOM     36  H   UNL     1      18.589  -9.339   0.324  0.00  0.00    +0.145 HD
ATOM     37  H   UNL     1      19.674  -7.999   0.411  0.00  0.00    +0.145 HD
ENDBRANCH  16  22
ENDBRANCH  12  15
ENDBRANCH   8  12
BRANCH   9  14
ATOM     14  C   UNL     1      19.182 -13.420  -1.055  0.00  0.00    +0.064 C 
BRANCH  14  21
ATOM      2  O   UNL     1      19.163 -10.562  -3.244  0.00  0.00    -0.354 OA
ATOM      6  N   UNL     1      19.688 -11.771  -2.804  0.00  0.00    -0.083 NA
ATOM     21  C   UNL     1      18.906 -12.139  -1.786  0.00  0.00    +0.085 A 
ATOM     23  C   UNL     1      17.880 -11.211  -1.540  0.00  0.00    +0.076 A 
ATOM     24  C   UNL     1      18.087 -10.239  -2.483  0.00  0.00    +0.167 A 
BRANCH  24  25
ATOM     25  C   UNL     1      17.434  -9.008  -2.822  0.00  0.00    +0.020 A 
ATOM     27  C   UNL     1      16.164  -6.612  -3.477  0.00  0.00    -0.042 A 
ATOM     28  C   UNL     1      16.085  -9.008  -3.179  0.00  0.00    +0.012 A 
ATOM     29  C   UNL     1      18.147  -7.809  -2.791  0.00  0.00    +0.012 A 
ATOM     30  C   UNL     1      15.451  -7.810  -3.507  0.00  0.00    +0.005 A 
ATOM     31  C   UNL     1      17.512  -6.611  -3.119  0.00  0.00    +0.005 A 
BRANCH  27  26
ATOM     26  C   UNL     1      15.484  -5.331  -3.827  0.00  0.00    -0.013 C 
ATOM     32  C   UNL     1      16.146  -4.121  -3.098  0.00  0.00    +0.015 C 
ATOM     33  C   UNL     1      13.978  -5.360  -3.419  0.00  0.00    +0.015 C 
ATOM     34  C   UNL     1      15.496  -4.959  -5.347  0.00  0.00    +0.015 C 
ENDBRANCH  27  26
ENDBRANCH  24  25
ENDBRANCH  14  21
ENDBRANCH   9  14
TORSDOF 7
ENDMDL
MODEL 10
REMARK VINA RESULT:      -5.9     25.845     31.038
REMARK  Name = 26743324
REMARK  10 active torsions:
REMARK  status: ('A' for Active; 'I' for Inactive)
REMARK    1  A    between atoms: C_8  and  C_12
REMARK    2  A    between atoms: C_9  and  C_14
REMARK    3  A    between atoms: C_12  and  C_15
REMARK    4  A    between atoms: C_14  and  C_21
REMARK    5  A    between atoms: C_16  and  C_22
REMARK    6  A    between atoms: C_24  and  C_25
REMARK    7  A    between atoms: C_26  and  C_27
REMARK    8  A    between atoms: C_26  and  C_32
REMARK    9  A    between atoms: C_26  and  C_33
REMARK   10  A    between atoms: C_26  and  C_34
REMARK                            x       y       z     vdW  Elec       q    Type
REMARK                         _______ _______ _______ _____ _____    ______ ____
ROOT
ATOM      4  N   UNL     1      -6.947 -14.415  17.444  0.00  0.00    -0.316 NA
ATOM      8  C   UNL     1      -4.687 -12.529  17.662  0.00  0.00    +0.004 C 
ATOM      9  C   UNL     1      -5.862 -12.547  18.669  0.00  0.00    +0.012 C 
ATOM     10  C   UNL     1      -4.567 -13.916  17.007  0.00  0.00    +0.019 C 
ATOM     11  C   UNL     1      -7.151 -13.088  18.029  0.00  0.00    +0.085 C 
ATOM     13  C   UNL     1      -5.894 -14.406  16.430  0.00  0.00    +0.081 C 
ATOM     35  H   UNL     1      -7.818 -14.736  17.023  0.00  0.00    +0.122 HD
ENDROOT
BRANCH   8  12
ATOM     12  C   UNL     1      -4.793 -11.431  16.597  0.00  0.00    +0.100 C 
BRANCH  12  15
ATOM      1  O   UNL     1      -2.551 -10.672  16.714  0.00  0.00    -0.276 OA
ATOM      5  N   UNL     1      -3.268 -11.478  14.655  0.00  0.00    -0.301 N 
ATOM     15  C   UNL     1      -3.435 -11.158  16.002  0.00  0.00    +0.216 C 
ATOM     16  C   UNL     1      -3.146 -10.994  11.805  0.00  0.00    +0.078 C 
ATOM     17  C   UNL     1      -4.299 -12.056  13.784  0.00  0.00    +0.108 C 
ATOM     18  C   UNL     1      -1.966 -11.281  14.015  0.00  0.00    +0.108 C 
ATOM     19  C   UNL     1      -4.480 -11.209  12.526  0.00  0.00    +0.032 C 
ATOM     20  C   UNL     1      -2.099 -10.418  12.762  0.00  0.00    +0.032 C 
BRANCH  16  22
ATOM      3  O   UNL     1      -2.523  -9.172  10.392  0.00  0.00    -0.276 OA
ATOM      7  N   UNL     1      -4.484 -10.285   9.934  0.00  0.00    -0.329 N 
ATOM     22  C   UNL     1      -3.331 -10.061  10.650  0.00  0.00    +0.214 C 
ATOM     36  H   UNL     1      -5.142 -11.019  10.177  0.00  0.00    +0.145 HD
ATOM     37  H   UNL     1      -4.719  -9.712   9.131  0.00  0.00    +0.145 HD
ENDBRANCH  16  22
ENDBRANCH  12  15
ENDBRANCH   8  12
BRANCH   9  14
ATOM     14  C   UNL     1      -6.115 -11.185  19.317  0.00  0.00    +0.064 C 
BRANCH  14  21
ATOM      2  O   UNL     1      -9.590 -10.271  19.093  0.00  0.00    -0.354 OA
ATOM      6  N   UNL     1      -8.524 -10.911  19.714  0.00  0.00    -0.083 NA
ATOM     21  C   UNL     1      -7.464 -10.644  18.945  0.00  0.00    +0.085 A 
ATOM     23  C   UNL     1      -7.797  -9.848  17.836  0.00  0.00    +0.076 A 
ATOM     24  C   UNL     1      -9.145  -9.642  17.976  0.00  0.00    +0.167 A 
BRANCH  24  25
ATOM     25  C   UNL     1     -10.139  -8.932  17.225  0.00  0.00    +0.020 A 
ATOM     27  C   UNL     1     -12.072  -7.547  15.766  0.00  0.00    -0.042 A 
ATOM     28  C   UNL     1     -11.486  -9.272  17.353  0.00  0.00    +0.012 A 
ATOM     29  C   UNL     1      -9.759  -7.899  16.367  0.00  0.00    +0.012 A 
ATOM     30  C   UNL     1     -12.452  -8.580  16.624  0.00  0.00    +0.005 A 
ATOM     31  C   UNL     1     -10.725  -7.207  15.638  0.00  0.00    +0.005 A 
BRANCH  27  26
ATOM     26  C   UNL     1     -13.106  -6.808  14.985  0.00  0.00    -0.013 C 
ATOM     32  C   UNL     1     -12.570  -5.424  14.506  0.00  0.00    +0.015 C 
ATOM     33  C   UNL     1     -14.383  -6.547  15.844  0.00  0.00    +0.015 C 
ATOM     34  C   UNL     1     -13.614  -7.528  13.693  0.00  0.00    +0.015 C 
ENDBRANCH  27  26
ENDBRANCH  24  25
ENDBRANCH  14  21
ENDBRANCH   9  14
TORSDOF 7
ENDMDL
