REMARK  Name = 71694075
REMARK  8 active torsions:
REMARK  status: ('A' for Active; 'I' for Inactive)
REMARK    1  A    between atoms: N_4  and  C_6
REMARK    2  A    between atoms: N_4  and  C_10
REMARK    3  A    between atoms: C_6  and  C_9
REMARK    4  A    between atoms: C_9  and  C_12
REMARK    5  A    between atoms: C_10  and  C_11
REMARK    6  A    between atoms: C_11  and  C_13
REMARK    7  A    between atoms: C_11  and  C_14
REMARK    8  A    between atoms: C_16  and  C_17
REMARK                            x       y       z     vdW  Elec       q    Type
REMARK                         _______ _______ _______ _____ _____    ______ ____
ROOT
ATOM      3  O   UNL     1      -1.234   2.032  -0.060  0.00  0.00    -0.354 OA
ATOM      5  N   UNL     1       0.087   2.367  -0.329  0.00  0.00    -0.083 NA
ATOM     12  C   UNL     1       0.644   1.241  -0.783  0.00  0.00    +0.086 A 
ATOM     15  C   UNL     1      -0.269   0.173  -0.823  0.00  0.00    +0.076 A 
ATOM     16  C   UNL     1      -1.434   0.723  -0.358  0.00  0.00    +0.167 A 
ENDROOT
BRANCH  16  17
ATOM      1  F   UNL     1      -6.584  -1.191   0.514  0.00  0.00    -0.205 F 
ATOM     17  C   UNL     1      -2.761   0.229  -0.132  0.00  0.00    +0.020 A 
ATOM     18  C   UNL     1      -3.067  -1.103  -0.411  0.00  0.00    +0.014 A 
ATOM     19  C   UNL     1      -3.748   1.081   0.365  0.00  0.00    +0.014 A 
ATOM     20  C   UNL     1      -4.358  -1.583  -0.192  0.00  0.00    +0.039 A 
ATOM     21  C   UNL     1      -5.039   0.601   0.583  0.00  0.00    +0.039 A 
ATOM     22  C   UNL     1      -5.344  -0.731   0.305  0.00  0.00    +0.123 A 
ENDBRANCH  16  17
BRANCH  12   9
ATOM      9  C   UNL     1       2.101   1.227  -1.183  0.00  0.00    +0.085 C 
BRANCH   9   6
ATOM      2  O   UNL     1       4.265   2.246   0.988  0.00  0.00    -0.376 OA
ATOM      6  C   UNL     1       2.969   0.868  -0.005  0.00  0.00    +0.072 C 
ATOM      7  C   UNL     1       2.929   1.743   1.255  0.00  0.00    +0.184 C 
ATOM      8  C   UNL     1       4.459   1.234  -0.035  0.00  0.00    +0.184 C 
BRANCH   6   4
ATOM      4  N   UNL     1       2.846  -0.536   0.398  0.00  0.00    -0.306 NA
ATOM     23  H   UNL     1       1.940  -0.788   0.790  0.00  0.00    +0.123 HD
BRANCH   4  10
ATOM     10  C   UNL     1       3.149  -1.394  -0.743  0.00  0.00    +0.084 C 
BRANCH  10  11
ATOM     11  C   UNL     1       3.456  -2.842  -0.324  0.00  0.00    -0.003 C 
ATOM     13  C   UNL     1       4.667  -2.863   0.613  0.00  0.00    +0.008 C 
ATOM     14  C   UNL     1       2.266  -3.521   0.358  0.00  0.00    +0.008 C 
ENDBRANCH  10  11
ENDBRANCH   4  10
ENDBRANCH   6   4
ENDBRANCH   9   6
ENDBRANCH  12   9
TORSDOF 6
