REMARK  Name = 44716352
REMARK  7 active torsions:
REMARK  status: ('A' for Active; 'I' for Inactive)
REMARK    1  A    between atoms: N_2  and  C_11
REMARK    2  A    between atoms: N_2  and  C_13
REMARK    3  A    between atoms: C_4  and  C_10
REMARK    4  A    between atoms: C_5  and  C_11
REMARK    5  A    between atoms: C_10  and  C_12
REMARK    6  A    between atoms: C_13  and  C_14
REMARK    7  A    between atoms: C_19  and  C_20
REMARK                            x       y       z     vdW  Elec       q    Type
REMARK                         _______ _______ _______ _____ _____    ______ ____
ROOT
ATOM      2  N   UNL     1       1.137   0.297  -0.809  0.00  0.00    -0.311 NA
ATOM     26  H   UNL     1       0.865   1.279  -0.860  0.00  0.00    +0.122 HD
ENDROOT
BRANCH   2  11
ATOM     11  C   UNL     1       2.506   0.149  -1.273  0.00  0.00    +0.100 C 
BRANCH  11   5
ATOM      1  N   UNL     1       4.849   0.989  -0.958  0.00  0.00    -0.298 NA
ATOM      3  C   UNL     1       4.886   0.493   1.595  0.00  0.00    -0.004 C 
ATOM      4  C   UNL     1       5.681  -0.579   0.814  0.00  0.00    +0.006 C 
ATOM      5  C   UNL     1       3.462   0.986  -0.420  0.00  0.00    +0.071 C 
ATOM      6  C   UNL     1       3.443   0.547   1.062  0.00  0.00    +0.024 C 
ATOM      7  C   UNL     1       5.504  -0.317  -0.699  0.00  0.00    +0.088 C 
ATOM      8  C   UNL     1       5.540   1.852   1.282  0.00  0.00    +0.019 C 
ATOM      9  C   UNL     1       5.614   2.039  -0.244  0.00  0.00    +0.085 C 
BRANCH   4  10
ATOM     10  C   UNL     1       5.293  -2.007   1.187  0.00  0.00    +0.002 C 
ATOM     12  C   UNL     1       6.119  -3.023   0.420  0.00  0.00    +0.004 C 
ENDBRANCH   4  10
ENDBRANCH  11   5
ENDBRANCH   2  11
BRANCH   2  13
ATOM     13  C   UNL     1       0.222  -0.506  -1.611  0.00  0.00    +0.116 C 
BRANCH  13  14
ATOM     14  C   UNL     1      -1.201  -0.377  -1.137  0.00  0.00    -0.034 A 
ATOM     15  C   UNL     1      -1.615  -1.047   0.015  0.00  0.00    +0.005 A 
ATOM     16  C   UNL     1      -2.105   0.412  -1.848  0.00  0.00    +0.005 A 
ATOM     17  C   UNL     1      -2.934  -0.927   0.455  0.00  0.00    +0.009 A 
ATOM     18  C   UNL     1      -3.423   0.531  -1.409  0.00  0.00    +0.009 A 
ATOM     19  C   UNL     1      -3.837  -0.138  -0.257  0.00  0.00    -0.018 A 
BRANCH  19  20
ATOM     20  C   UNL     1      -5.205  -0.014   0.199  0.00  0.00    -0.018 A 
ATOM     21  C   UNL     1      -6.174  -0.913  -0.249  0.00  0.00    +0.008 A 
ATOM     22  C   UNL     1      -5.555   1.003   1.087  0.00  0.00    +0.008 A 
ATOM     23  C   UNL     1      -7.492  -0.794   0.191  0.00  0.00    +0.001 A 
ATOM     24  C   UNL     1      -6.873   1.121   1.528  0.00  0.00    +0.001 A 
ATOM     25  C   UNL     1      -7.842   0.223   1.080  0.00  0.00    +0.000 A 
ENDBRANCH  19  20
ENDBRANCH  13  14
ENDBRANCH   2  13
TORSDOF 6
