MODEL 1
REMARK VINA RESULT:      -6.5      0.000      0.000
REMARK  Name = 11883119
REMARK  11 active torsions:
REMARK  status: ('A' for Active; 'I' for Inactive)
REMARK    1  A    between atoms: O_3  and  C_15
REMARK    2  A    between atoms: O_4  and  C_20
REMARK    3  A    between atoms: N_8  and  C_26
REMARK    4  A    between atoms: N_8  and  C_27
REMARK    5  A    between atoms: C_10  and  C_18
REMARK    6  A    between atoms: C_12  and  C_20
REMARK    7  A    between atoms: C_12  and  C_21
REMARK    8  A    between atoms: C_13  and  C_23
REMARK    9  A    between atoms: C_23  and  C_24
REMARK   10  A    between atoms: C_26  and  C_29
REMARK   11  A    between atoms: C_28  and  C_30
REMARK                            x       y       z     vdW  Elec       q    Type
REMARK                         _______ _______ _______ _____ _____    ______ ____
ROOT
ATOM      1  S   UNL     1      -6.246  -8.206  39.221  0.00  0.00    -0.057 S 
ATOM      6  O   UNL     1     -10.406  -6.124  39.402  0.00  0.00    -0.270 OA
ATOM      7  N   UNL     1      -8.779  -8.517  38.792  0.00  0.00    -0.229 NA
ATOM      9  N   UNL     1      -8.071  -6.364  39.615  0.00  0.00    -0.261 N 
ATOM     10  C   UNL     1      -7.967 -11.974  37.288  0.00  0.00    -0.019 C 
ATOM     11  C   UNL     1      -6.706 -12.179  38.238  0.00  0.00    +0.011 C 
ATOM     12  C   UNL     1      -5.827 -13.465  37.994  0.00  0.00    +0.021 C 
ATOM     13  C   UNL     1      -8.931 -10.898  37.973  0.00  0.00    +0.054 C 
ATOM     14  C   UNL     1      -8.741 -13.312  37.163  0.00  0.00    +0.010 C 
ATOM     15  C   UNL     1      -6.758 -14.701  37.845  0.00  0.00    +0.123 C 
ATOM     16  C   UNL     1      -5.877 -10.868  38.373  0.00  0.00    +0.049 C 
ATOM     17  C   UNL     1      -7.860 -14.502  36.811  0.00  0.00    +0.032 C 
ATOM     18  C   UNL     1      -7.579 -11.488  35.870  0.00  0.00    +0.012 C 
ATOM     19  C   UNL     1      -8.152  -9.702  38.456  0.00  0.00    +0.058 A 
ATOM     21  C   UNL     1      -4.928 -13.709  39.239  0.00  0.00    +0.016 C 
ATOM     22  C   UNL     1      -6.784  -9.716  38.647  0.00  0.00    +0.015 A 
ATOM     25  C   UNL     1      -7.873  -7.655  39.200  0.00  0.00    +0.165 A 
ATOM     28  C   UNL     1      -9.298  -5.686  39.691  0.00  0.00    +0.250 C 
ATOM     39  H   UNL     1      -7.221  -5.908  39.929  0.00  0.00    +0.157 HD
ENDROOT
BRANCH  28  30
ATOM      2  F   UNL     1      -9.708  -0.914  39.027  0.00  0.00    -0.205 F 
ATOM     30  C   UNL     1      -9.224  -4.294  40.209  0.00  0.00    +0.040 A 
ATOM     31  C   UNL     1      -9.507  -3.250  39.352  0.00  0.00    +0.051 A 
ATOM     32  C   UNL     1      -8.877  -4.092  41.528  0.00  0.00    +0.013 A 
ATOM     34  C   UNL     1      -9.439  -1.944  39.839  0.00  0.00    +0.124 A 
ATOM     35  C   UNL     1      -8.809  -2.786  42.013  0.00  0.00    +0.004 A 
ATOM     36  C   UNL     1      -9.090  -1.713  41.169  0.00  0.00    +0.038 A 
ENDBRANCH  28  30
BRANCH  15   3
ATOM      3  O   UNL     1      -6.002 -15.860  37.494  0.00  0.00    -0.391 OA
ATOM     37  H   UNL     1      -5.697 -15.753  36.578  0.00  0.00    +0.210 HD
ENDBRANCH  15   3
BRANCH  12  20
ATOM     20  C   UNL     1      -4.856 -13.359  36.796  0.00  0.00    +0.165 C 
BRANCH  20   4
ATOM      4  O   UNL     1      -3.689 -14.079  37.123  0.00  0.00    -0.394 OA
ATOM     38  H   UNL     1      -3.626 -14.840  36.523  0.00  0.00    +0.209 HD
ENDBRANCH  20   4
ENDBRANCH  12  20
BRANCH  13  23
ATOM     23  C   UNL     1     -10.129 -10.476  37.112  0.00  0.00    +0.106 C 
BRANCH  23  24
ATOM      5  O   UNL     1     -11.751 -10.293  38.868  0.00  0.00    -0.276 OA
ATOM      8  N   UNL     1     -12.289 -11.672  37.081  0.00  0.00    -0.293 N 
ATOM     24  C   UNL     1     -11.454 -10.793  37.779  0.00  0.00    +0.217 C 
ATOM     27  C   UNL     1     -13.595 -12.076  37.587  0.00  0.00    +0.133 C 
BRANCH   8  26
ATOM     26  C   UNL     1     -11.915 -12.252  35.793  0.00  0.00    +0.196 C 
BRANCH  26  29
ATOM     29  C   UNL     1     -12.992 -12.101  34.816  0.00  0.00    -0.086 C 
ATOM     33  C   UNL     1     -13.874 -11.980  34.010  0.00  0.00    +0.005 C 
ENDBRANCH  26  29
ENDBRANCH   8  26
ENDBRANCH  23  24
ENDBRANCH  13  23
TORSDOF 8
ENDMDL
MODEL 2
REMARK VINA RESULT:      -6.4     24.611     27.487
REMARK  Name = 11883119
REMARK  11 active torsions:
REMARK  status: ('A' for Active; 'I' for Inactive)
REMARK    1  A    between atoms: O_3  and  C_15
REMARK    2  A    between atoms: O_4  and  C_20
REMARK    3  A    between atoms: N_8  and  C_26
REMARK    4  A    between atoms: N_8  and  C_27
REMARK    5  A    between atoms: C_10  and  C_18
REMARK    6  A    between atoms: C_12  and  C_20
REMARK    7  A    between atoms: C_12  and  C_21
REMARK    8  A    between atoms: C_13  and  C_23
REMARK    9  A    between atoms: C_23  and  C_24
REMARK   10  A    between atoms: C_26  and  C_29
REMARK   11  A    between atoms: C_28  and  C_30
REMARK                            x       y       z     vdW  Elec       q    Type
REMARK                         _______ _______ _______ _____ _____    ______ ____
ROOT
ATOM      1  S   UNL     1      -8.532  -9.690  13.100  0.00  0.00    -0.057 S 
ATOM      6  O   UNL     1      -4.349 -10.633  14.911  0.00  0.00    -0.270 OA
ATOM      7  N   UNL     1      -6.021  -9.996  12.556  0.00  0.00    -0.229 NA
ATOM      9  N   UNL     1      -6.676 -10.264  14.861  0.00  0.00    -0.261 N 
ATOM     10  C   UNL     1      -6.924  -9.669   8.821  0.00  0.00    -0.019 C 
ATOM     11  C   UNL     1      -8.149  -8.697   9.121  0.00  0.00    +0.011 C 
ATOM     12  C   UNL     1      -9.050  -8.281   7.895  0.00  0.00    +0.021 C 
ATOM     13  C   UNL     1      -5.924  -9.600  10.067  0.00  0.00    +0.054 C 
ATOM     14  C   UNL     1      -6.168  -9.172   7.562  0.00  0.00    +0.010 C 
ATOM     15  C   UNL     1      -8.136  -7.857   6.710  0.00  0.00    +0.123 C 
ATOM     16  C   UNL     1      -8.960  -9.172  10.362  0.00  0.00    +0.049 C 
ATOM     17  C   UNL     1      -7.074  -8.895   6.370  0.00  0.00    +0.032 C 
ATOM     18  C   UNL     1      -7.361 -11.136   8.593  0.00  0.00    +0.012 C 
ATOM     19  C   UNL     1      -6.673  -9.715  11.370  0.00  0.00    +0.058 A 
ATOM     21  C   UNL     1      -9.902  -7.042   8.290  0.00  0.00    +0.016 C 
ATOM     22  C   UNL     1      -8.032  -9.500  11.483  0.00  0.00    +0.015 A 
ATOM     25  C   UNL     1      -6.903 -10.016  13.533  0.00  0.00    +0.165 A 
ATOM     28  C   UNL     1      -5.441 -10.552  15.463  0.00  0.00    +0.250 C 
ATOM     39  H   UNL     1      -7.510 -10.176  15.434  0.00  0.00    +0.157 HD
ENDROOT
BRANCH  28  30
ATOM      2  F   UNL     1      -3.439 -12.172  19.556  0.00  0.00    -0.205 F 
ATOM     30  C   UNL     1      -5.481 -10.750  16.936  0.00  0.00    +0.040 A 
ATOM     31  C   UNL     1      -4.419 -11.379  17.552  0.00  0.00    +0.051 A 
ATOM     32  C   UNL     1      -6.578 -10.297  17.638  0.00  0.00    +0.013 A 
ATOM     34  C   UNL     1      -4.457 -11.562  18.934  0.00  0.00    +0.124 A 
ATOM     35  C   UNL     1      -6.615 -10.481  19.020  0.00  0.00    +0.004 A 
ATOM     36  C   UNL     1      -5.555 -11.114  19.668  0.00  0.00    +0.038 A 
ENDBRANCH  28  30
BRANCH  15   3
ATOM      3  O   UNL     1      -8.916  -7.598   5.543  0.00  0.00    -0.391 OA
ATOM     37  H   UNL     1      -9.007  -8.432   5.052  0.00  0.00    +0.210 HD
ENDBRANCH  15   3
BRANCH  12  20
ATOM     20  C   UNL     1     -10.065  -9.358   7.451  0.00  0.00    +0.165 C 
BRANCH  20   4
ATOM      4  O   UNL     1     -11.231  -8.697   7.016  0.00  0.00    -0.394 OA
ATOM     38  H   UNL     1     -11.838  -9.363   6.653  0.00  0.00    +0.209 HD
ENDBRANCH  20   4
ENDBRANCH  12  20
BRANCH  13  23
ATOM     23  C   UNL     1      -4.756 -10.594  10.001  0.00  0.00    +0.106 C 
BRANCH  23  24
ATOM      5  O   UNL     1      -3.098  -8.862  10.004  0.00  0.00    -0.276 OA
ATOM      8  N   UNL     1      -2.684 -10.713  11.340  0.00  0.00    -0.293 N 
ATOM     24  C   UNL     1      -3.445  -9.965  10.435  0.00  0.00    +0.217 C 
ATOM     27  C   UNL     1      -1.401 -10.248  11.854  0.00  0.00    +0.133 C 
BRANCH   8  26
ATOM     26  C   UNL     1      -3.117 -12.018  11.836  0.00  0.00    +0.196 C 
BRANCH  26  29
ATOM     29  C   UNL     1      -2.207 -12.515  12.869  0.00  0.00    -0.086 C 
ATOM     33  C   UNL     1      -1.457 -12.919  13.714  0.00  0.00    +0.005 C 
ENDBRANCH  26  29
ENDBRANCH   8  26
ENDBRANCH  23  24
ENDBRANCH  13  23
TORSDOF 8
ENDMDL
MODEL 3
REMARK VINA RESULT:      -6.2     19.798     22.814
REMARK  Name = 11883119
REMARK  11 active torsions:
REMARK  status: ('A' for Active; 'I' for Inactive)
REMARK    1  A    between atoms: O_3  and  C_15
REMARK    2  A    between atoms: O_4  and  C_20
REMARK    3  A    between atoms: N_8  and  C_26
REMARK    4  A    between atoms: N_8  and  C_27
REMARK    5  A    between atoms: C_10  and  C_18
REMARK    6  A    between atoms: C_12  and  C_20
REMARK    7  A    between atoms: C_12  and  C_21
REMARK    8  A    between atoms: C_13  and  C_23
REMARK    9  A    between atoms: C_23  and  C_24
REMARK   10  A    between atoms: C_26  and  C_29
REMARK   11  A    between atoms: C_28  and  C_30
REMARK                            x       y       z     vdW  Elec       q    Type
REMARK                         _______ _______ _______ _____ _____    ______ ____
ROOT
ATOM      1  S   UNL     1     -11.008 -10.904  19.188  0.00  0.00    -0.057 S 
ATOM      6  O   UNL     1      -7.479  -9.142  16.715  0.00  0.00    -0.270 OA
ATOM      7  N   UNL     1     -10.367  -9.199  17.350  0.00  0.00    -0.229 NA
ATOM      9  N   UNL     1      -8.574 -10.503  18.297  0.00  0.00    -0.261 N 
ATOM     10  C   UNL     1     -14.131  -8.522  16.850  0.00  0.00    -0.019 C 
ATOM     11  C   UNL     1     -14.468  -8.824  18.376  0.00  0.00    +0.011 C 
ATOM     12  C   UNL     1     -15.991  -8.819  18.787  0.00  0.00    +0.021 C 
ATOM     13  C   UNL     1     -12.580  -8.145  16.753  0.00  0.00    +0.054 C 
ATOM     14  C   UNL     1     -14.959  -7.303  16.370  0.00  0.00    +0.010 C 
ATOM     15  C   UNL     1     -16.678  -7.560  18.188  0.00  0.00    +0.123 C 
ATOM     16  C   UNL     1     -13.682 -10.062  18.898  0.00  0.00    +0.049 C 
ATOM     17  C   UNL     1     -16.444  -7.403  16.690  0.00  0.00    +0.032 C 
ATOM     18  C   UNL     1     -14.427  -9.723  15.919  0.00  0.00    +0.012 C 
ATOM     19  C   UNL     1     -11.736  -9.121  17.531  0.00  0.00    +0.058 A 
ATOM     21  C   UNL     1     -16.098  -8.714  20.335  0.00  0.00    +0.016 C 
ATOM     22  C   UNL     1     -12.247  -9.959  18.502  0.00  0.00    +0.015 A 
ATOM     25  C   UNL     1      -9.880 -10.111  18.164  0.00  0.00    +0.165 A 
ATOM     28  C   UNL     1      -7.472 -10.009  17.582  0.00  0.00    +0.250 C 
ATOM     39  H   UNL     1      -8.434 -11.193  19.028  0.00  0.00    +0.157 HD
ENDROOT
BRANCH  28  30
ATOM      2  F   UNL     1      -2.838 -10.949  16.569  0.00  0.00    -0.205 F 
ATOM     30  C   UNL     1      -6.157 -10.597  17.952  0.00  0.00    +0.040 A 
ATOM     31  C   UNL     1      -5.107 -10.489  17.065  0.00  0.00    +0.051 A 
ATOM     32  C   UNL     1      -6.032 -11.230  19.171  0.00  0.00    +0.013 A 
ATOM     34  C   UNL     1      -3.873 -11.040  17.414  0.00  0.00    +0.124 A 
ATOM     35  C   UNL     1      -4.798 -11.780  19.519  0.00  0.00    +0.004 A 
ATOM     36  C   UNL     1      -3.719 -11.685  18.640  0.00  0.00    +0.038 A 
ENDBRANCH  28  30
BRANCH  15   3
ATOM      3  O   UNL     1     -18.085  -7.592  18.432  0.00  0.00    -0.391 OA
ATOM     37  H   UNL     1     -18.380  -6.683  18.605  0.00  0.00    +0.210 HD
ENDBRANCH  15   3
BRANCH  12  20
ATOM     20  C   UNL     1     -16.762 -10.103  18.405  0.00  0.00    +0.165 C 
BRANCH  20   4
ATOM      4  O   UNL     1     -17.712 -10.351  19.415  0.00  0.00    -0.394 OA
ATOM     38  H   UNL     1     -18.545 -10.612  18.989  0.00  0.00    +0.209 HD
ENDBRANCH  20   4
ENDBRANCH  12  20
BRANCH  13  23
ATOM     23  C   UNL     1     -12.056  -7.966  15.322  0.00  0.00    +0.106 C 
BRANCH  23  24
ATOM      5  O   UNL     1     -11.133  -5.785  15.700  0.00  0.00    -0.276 OA
ATOM      8  N   UNL     1     -12.439  -6.058  13.802  0.00  0.00    -0.293 N 
ATOM     24  C   UNL     1     -11.825  -6.507  14.976  0.00  0.00    +0.217 C 
ATOM     27  C   UNL     1     -12.313  -4.684  13.330  0.00  0.00    +0.133 C 
BRANCH   8  26
ATOM     26  C   UNL     1     -13.254  -6.932  12.960  0.00  0.00    +0.196 C 
BRANCH  26  29
ATOM     29  C   UNL     1     -14.639  -6.466  12.906  0.00  0.00    -0.086 C 
ATOM     33  C   UNL     1     -15.776  -6.083  12.867  0.00  0.00    +0.005 C 
ENDBRANCH  26  29
ENDBRANCH   8  26
ENDBRANCH  23  24
ENDBRANCH  13  23
TORSDOF 8
ENDMDL
MODEL 4
REMARK VINA RESULT:      -6.2     22.940     25.862
REMARK  Name = 11883119
REMARK  11 active torsions:
REMARK  status: ('A' for Active; 'I' for Inactive)
REMARK    1  A    between atoms: O_3  and  C_15
REMARK    2  A    between atoms: O_4  and  C_20
REMARK    3  A    between atoms: N_8  and  C_26
REMARK    4  A    between atoms: N_8  and  C_27
REMARK    5  A    between atoms: C_10  and  C_18
REMARK    6  A    between atoms: C_12  and  C_20
REMARK    7  A    between atoms: C_12  and  C_21
REMARK    8  A    between atoms: C_13  and  C_23
REMARK    9  A    between atoms: C_23  and  C_24
REMARK   10  A    between atoms: C_26  and  C_29
REMARK   11  A    between atoms: C_28  and  C_30
REMARK                            x       y       z     vdW  Elec       q    Type
REMARK                         _______ _______ _______ _____ _____    ______ ____
ROOT
ATOM      1  S   UNL     1      -8.986  -9.513  13.342  0.00  0.00    -0.057 S 
ATOM      6  O   UNL     1      -5.694  -9.888  10.071  0.00  0.00    -0.270 OA
ATOM      7  N   UNL     1      -6.599 -10.380  12.843  0.00  0.00    -0.229 NA
ATOM      9  N   UNL     1      -7.765  -9.301  11.031  0.00  0.00    -0.261 N 
ATOM     10  C   UNL     1      -6.276 -11.254  16.586  0.00  0.00    -0.019 C 
ATOM     11  C   UNL     1      -7.834 -11.547  16.733  0.00  0.00    +0.011 C 
ATOM     12  C   UNL     1      -8.369 -11.866  18.182  0.00  0.00    +0.021 C 
ATOM     13  C   UNL     1      -5.891 -11.397  15.041  0.00  0.00    +0.054 C 
ATOM     14  C   UNL     1      -5.474 -12.312  17.388  0.00  0.00    +0.010 C 
ATOM     15  C   UNL     1      -7.428 -12.903  18.858  0.00  0.00    +0.123 C 
ATOM     16  C   UNL     1      -8.685 -10.492  15.968  0.00  0.00    +0.049 C 
ATOM     17  C   UNL     1      -5.959 -12.497  18.819  0.00  0.00    +0.032 C 
ATOM     18  C   UNL     1      -5.879  -9.844  17.086  0.00  0.00    +0.012 C 
ATOM     19  C   UNL     1      -6.879 -10.669  14.166  0.00  0.00    +0.058 A 
ATOM     21  C   UNL     1      -9.775 -12.520  18.071  0.00  0.00    +0.016 C 
ATOM     22  C   UNL     1      -8.134 -10.289  14.597  0.00  0.00    +0.015 A 
ATOM     25  C   UNL     1      -7.634  -9.765  12.313  0.00  0.00    +0.165 A 
ATOM     28  C   UNL     1      -6.811  -9.386  10.005  0.00  0.00    +0.250 C 
ATOM     39  H   UNL     1      -8.679  -8.901  10.840  0.00  0.00    +0.157 HD
ENDROOT
BRANCH  28  30
ATOM      2  F   UNL     1      -9.083  -5.999   7.406  0.00  0.00    -0.205 F 
ATOM     30  C   UNL     1      -7.233  -8.823   8.695  0.00  0.00    +0.040 A 
ATOM     31  C   UNL     1      -7.970  -7.657   8.678  0.00  0.00    +0.051 A 
ATOM     32  C   UNL     1      -6.872  -9.484   7.540  0.00  0.00    +0.013 A 
ATOM     34  C   UNL     1      -8.365  -7.129   7.449  0.00  0.00    +0.124 A 
ATOM     35  C   UNL     1      -7.267  -8.955   6.311  0.00  0.00    +0.004 A 
ATOM     36  C   UNL     1      -8.013  -7.778   6.265  0.00  0.00    +0.038 A 
ENDBRANCH  28  30
BRANCH  15   3
ATOM      3  O   UNL     1      -7.809 -13.116  20.217  0.00  0.00    -0.391 OA
ATOM     37  H   UNL     1      -7.842 -12.251  20.659  0.00  0.00    +0.210 HD
ENDBRANCH  15   3
BRANCH  12  20
ATOM     20  C   UNL     1      -8.558 -10.624  19.082  0.00  0.00    +0.165 C 
BRANCH  20   4
ATOM      4  O   UNL     1      -9.514 -10.948  20.066  0.00  0.00    -0.394 OA
ATOM     38  H   UNL     1      -9.961 -10.129  20.334  0.00  0.00    +0.209 HD
ENDBRANCH  20   4
ENDBRANCH  12  20
BRANCH  13  23
ATOM     23  C   UNL     1      -4.446 -11.003  14.704  0.00  0.00    +0.106 C 
BRANCH  23  24
ATOM      5  O   UNL     1      -4.012 -13.351  14.492  0.00  0.00    -0.276 OA
ATOM      8  N   UNL     1      -2.361 -11.906  13.738  0.00  0.00    -0.293 N 
ATOM     24  C   UNL     1      -3.603 -12.201  14.310  0.00  0.00    +0.217 C 
ATOM     27  C   UNL     1      -1.433 -12.944  13.306  0.00  0.00    +0.133 C 
BRANCH   8  26
ATOM     26  C   UNL     1      -1.898 -10.534  13.534  0.00  0.00    +0.196 C 
BRANCH  26  29
ATOM     29  C   UNL     1      -2.082 -10.120  12.143  0.00  0.00    -0.086 C 
ATOM     33  C   UNL     1      -2.238  -9.779  11.003  0.00  0.00    +0.005 C 
ENDBRANCH  26  29
ENDBRANCH   8  26
ENDBRANCH  23  24
ENDBRANCH  13  23
TORSDOF 8
ENDMDL
MODEL 5
REMARK VINA RESULT:      -6.2     43.230     44.783
REMARK  Name = 11883119
REMARK  11 active torsions:
REMARK  status: ('A' for Active; 'I' for Inactive)
REMARK    1  A    between atoms: O_3  and  C_15
REMARK    2  A    between atoms: O_4  and  C_20
REMARK    3  A    between atoms: N_8  and  C_26
REMARK    4  A    between atoms: N_8  and  C_27
REMARK    5  A    between atoms: C_10  and  C_18
REMARK    6  A    between atoms: C_12  and  C_20
REMARK    7  A    between atoms: C_12  and  C_21
REMARK    8  A    between atoms: C_13  and  C_23
REMARK    9  A    between atoms: C_23  and  C_24
REMARK   10  A    between atoms: C_26  and  C_29
REMARK   11  A    between atoms: C_28  and  C_30
REMARK                            x       y       z     vdW  Elec       q    Type
REMARK                         _______ _______ _______ _____ _____    ______ ____
ROOT
ATOM      1  S   UNL     1      11.222   3.987   2.123  0.00  0.00    -0.057 S 
ATOM      6  O   UNL     1       8.830   7.368   4.250  0.00  0.00    -0.270 OA
ATOM      7  N   UNL     1       9.845   6.146   1.755  0.00  0.00    -0.229 NA
ATOM      9  N   UNL     1      10.128   5.413   4.034  0.00  0.00    -0.261 N 
ATOM     10  C   UNL     1      10.779   5.949  -1.982  0.00  0.00    -0.019 C 
ATOM     11  C   UNL     1      10.848   4.358  -1.961  0.00  0.00    +0.011 C 
ATOM     12  C   UNL     1      11.335   3.646  -3.281  0.00  0.00    +0.021 C 
ATOM     13  C   UNL     1       9.870   6.418  -0.753  0.00  0.00    +0.054 C 
ATOM     14  C   UNL     1      10.102   6.418  -3.295  0.00  0.00    +0.010 C 
ATOM     15  C   UNL     1      10.595   4.266  -4.500  0.00  0.00    +0.123 C 
ATOM     16  C   UNL     1      11.548   3.836  -0.672  0.00  0.00    +0.049 C 
ATOM     17  C   UNL     1      10.689   5.786  -4.550  0.00  0.00    +0.032 C 
ATOM     18  C   UNL     1      12.173   6.613  -1.874  0.00  0.00    +0.012 C 
ATOM     19  C   UNL     1      10.257   5.699   0.514  0.00  0.00    +0.058 A 
ATOM     21  C   UNL     1      10.946   2.142  -3.219  0.00  0.00    +0.016 C 
ATOM     22  C   UNL     1      10.994   4.532   0.526  0.00  0.00    +0.015 A 
ATOM     25  C   UNL     1      10.302   5.327   2.677  0.00  0.00    +0.165 A 
ATOM     28  C   UNL     1       9.419   6.405   4.729  0.00  0.00    +0.250 C 
ATOM     39  H   UNL     1      10.536   4.633   4.541  0.00  0.00    +0.157 HD
ENDROOT
BRANCH  28  30
ATOM      2  F   UNL     1       9.994   3.676   8.680  0.00  0.00    -0.205 F 
ATOM     30  C   UNL     1       9.366   6.233   6.205  0.00  0.00    +0.040 A 
ATOM     31  C   UNL     1       9.712   5.012   6.745  0.00  0.00    +0.051 A 
ATOM     32  C   UNL     1       8.974   7.300   6.985  0.00  0.00    +0.013 A 
ATOM     34  C   UNL     1       9.663   4.852   8.131  0.00  0.00    +0.124 A 
ATOM     35  C   UNL     1       8.925   7.139   8.369  0.00  0.00    +0.004 A 
ATOM     36  C   UNL     1       9.270   5.916   8.942  0.00  0.00    +0.038 A 
ENDBRANCH  28  30
BRANCH  15   3
ATOM      3  O   UNL     1      11.107   3.734  -5.722  0.00  0.00    -0.391 OA
ATOM     37  H   UNL     1      10.357   3.582  -6.321  0.00  0.00    +0.210 HD
ENDBRANCH  15   3
BRANCH  12  20
ATOM     20  C   UNL     1      12.866   3.669  -3.495  0.00  0.00    +0.165 C 
BRANCH  20   4
ATOM      4  O   UNL     1      13.217   2.513  -4.221  0.00  0.00    -0.394 OA
ATOM     38  H   UNL     1      13.360   1.791  -3.588  0.00  0.00    +0.209 HD
ENDBRANCH  20   4
ENDBRANCH  12  20
BRANCH  13  23
ATOM     23  C   UNL     1       9.819   7.938  -0.542  0.00  0.00    +0.106 C 
BRANCH  23  24
ATOM      5  O   UNL     1       8.006   8.350  -2.056  0.00  0.00    -0.276 OA
ATOM      8  N   UNL     1       7.823   9.255   0.072  0.00  0.00    -0.293 N 
ATOM     24  C   UNL     1       8.474   8.524  -0.927  0.00  0.00    +0.217 C 
ATOM     27  C   UNL     1       6.524   9.881  -0.138  0.00  0.00    +0.133 C 
BRANCH   8  26
ATOM     26  C   UNL     1       8.398   9.448   1.402  0.00  0.00    +0.196 C 
BRANCH  26  29
ATOM     29  C   UNL     1       7.350   9.651   2.403  0.00  0.00    -0.086 C 
ATOM     33  C   UNL     1       6.493   9.814   3.227  0.00  0.00    +0.005 C 
ENDBRANCH  26  29
ENDBRANCH   8  26
ENDBRANCH  23  24
ENDBRANCH  13  23
TORSDOF 8
ENDMDL
MODEL 6
REMARK VINA RESULT:      -6.2     22.280     25.131
REMARK  Name = 11883119
REMARK  11 active torsions:
REMARK  status: ('A' for Active; 'I' for Inactive)
REMARK    1  A    between atoms: O_3  and  C_15
REMARK    2  A    between atoms: O_4  and  C_20
REMARK    3  A    between atoms: N_8  and  C_26
REMARK    4  A    between atoms: N_8  and  C_27
REMARK    5  A    between atoms: C_10  and  C_18
REMARK    6  A    between atoms: C_12  and  C_20
REMARK    7  A    between atoms: C_12  and  C_21
REMARK    8  A    between atoms: C_13  and  C_23
REMARK    9  A    between atoms: C_23  and  C_24
REMARK   10  A    between atoms: C_26  and  C_29
REMARK   11  A    between atoms: C_28  and  C_30
REMARK                            x       y       z     vdW  Elec       q    Type
REMARK                         _______ _______ _______ _____ _____    ______ ____
ROOT
ATOM      1  S   UNL     1      -5.656 -10.965  12.632  0.00  0.00    -0.057 S 
ATOM      6  O   UNL     1      -8.946  -8.586  10.353  0.00  0.00    -0.270 OA
ATOM      7  N   UNL     1      -7.897  -9.696  12.886  0.00  0.00    -0.229 NA
ATOM      9  N   UNL     1      -6.961  -9.817  10.668  0.00  0.00    -0.261 N 
ATOM     10  C   UNL     1      -7.977 -10.839  16.568  0.00  0.00    -0.019 C 
ATOM     11  C   UNL     1      -6.389 -10.845  16.683  0.00  0.00    +0.011 C 
ATOM     12  C   UNL     1      -5.770 -11.380  18.031  0.00  0.00    +0.021 C 
ATOM     13  C   UNL     1      -8.380  -9.879  15.355  0.00  0.00    +0.054 C 
ATOM     14  C   UNL     1      -8.585 -10.260  17.871  0.00  0.00    +0.010 C 
ATOM     15  C   UNL     1      -6.523 -10.737  19.230  0.00  0.00    +0.123 C 
ATOM     16  C   UNL     1      -5.729 -11.447  15.408  0.00  0.00    +0.049 C 
ATOM     17  C   UNL     1      -8.037 -10.894  19.142  0.00  0.00    +0.032 C 
ATOM     18  C   UNL     1      -8.568 -12.249  16.327  0.00  0.00    +0.012 C 
ATOM     19  C   UNL     1      -7.539 -10.163  14.137  0.00  0.00    +0.058 A 
ATOM     21  C   UNL     1      -4.285 -10.929  18.122  0.00  0.00    +0.016 C 
ATOM     22  C   UNL     1      -6.344 -10.852  14.186  0.00  0.00    +0.015 A 
ATOM     25  C   UNL     1      -6.984 -10.066  12.014  0.00  0.00    +0.165 A 
ATOM     28  C   UNL     1      -7.921  -9.108   9.928  0.00  0.00    +0.250 C 
ATOM     39  H   UNL     1      -6.125 -10.164  10.209  0.00  0.00    +0.157 HD
ENDROOT
BRANCH  28  30
ATOM      2  F   UNL     1      -8.652  -6.922   5.678  0.00  0.00    -0.205 F 
ATOM     30  C   UNL     1      -7.627  -8.962   8.478  0.00  0.00    +0.040 A 
ATOM     31  C   UNL     1      -8.294  -7.992   7.759  0.00  0.00    +0.051 A 
ATOM     32  C   UNL     1      -6.697  -9.800   7.900  0.00  0.00    +0.013 A 
ATOM     34  C   UNL     1      -8.017  -7.855   6.398  0.00  0.00    +0.124 A 
ATOM     35  C   UNL     1      -6.421  -9.662   6.540  0.00  0.00    +0.004 A 
ATOM     36  C   UNL     1      -7.081  -8.690   5.789  0.00  0.00    +0.038 A 
ENDBRANCH  28  30
BRANCH  15   3
ATOM      3  O   UNL     1      -6.075 -11.299  20.464  0.00  0.00    -0.391 OA
ATOM     37  H   UNL     1      -6.257 -12.252  20.443  0.00  0.00    +0.210 HD
ENDBRANCH  15   3
BRANCH  12  20
ATOM     20  C   UNL     1      -5.745 -12.920  18.158  0.00  0.00    +0.165 C 
BRANCH  20   4
ATOM      4  O   UNL     1      -4.456 -13.295  18.589  0.00  0.00    -0.394 OA
ATOM     38  H   UNL     1      -4.262 -12.818  19.412  0.00  0.00    +0.209 HD
ENDBRANCH  20   4
ENDBRANCH  12  20
BRANCH  13  23
ATOM     23  C   UNL     1      -9.877  -9.875  15.016  0.00  0.00    +0.106 C 
BRANCH  23  24
ATOM      5  O   UNL     1     -10.005  -7.488  14.839  0.00  0.00    -0.276 OA
ATOM      8  N   UNL     1     -11.705  -8.546  16.009  0.00  0.00    -0.293 N 
ATOM     24  C   UNL     1     -10.518  -8.524  15.270  0.00  0.00    +0.217 C 
ATOM     27  C   UNL     1     -12.444  -7.333  16.338  0.00  0.00    +0.133 C 
BRANCH   8  26
ATOM     26  C   UNL     1     -12.293  -9.787  16.510  0.00  0.00    +0.196 C 
BRANCH  26  29
ATOM     29  C   UNL     1     -12.203  -9.861  17.968  0.00  0.00    -0.086 C 
ATOM     33  C   UNL     1     -12.134  -9.924  19.164  0.00  0.00    +0.005 C 
ENDBRANCH  26  29
ENDBRANCH   8  26
ENDBRANCH  23  24
ENDBRANCH  13  23
TORSDOF 8
ENDMDL
MODEL 7
REMARK VINA RESULT:      -6.1     44.446     46.140
REMARK  Name = 11883119
REMARK  11 active torsions:
REMARK  status: ('A' for Active; 'I' for Inactive)
REMARK    1  A    between atoms: O_3  and  C_15
REMARK    2  A    between atoms: O_4  and  C_20
REMARK    3  A    between atoms: N_8  and  C_26
REMARK    4  A    between atoms: N_8  and  C_27
REMARK    5  A    between atoms: C_10  and  C_18
REMARK    6  A    between atoms: C_12  and  C_20
REMARK    7  A    between atoms: C_12  and  C_21
REMARK    8  A    between atoms: C_13  and  C_23
REMARK    9  A    between atoms: C_23  and  C_24
REMARK   10  A    between atoms: C_26  and  C_29
REMARK   11  A    between atoms: C_28  and  C_30
REMARK                            x       y       z     vdW  Elec       q    Type
REMARK                         _______ _______ _______ _____ _____    ______ ____
ROOT
ATOM      1  S   UNL     1      15.334   8.139   6.238  0.00  0.00    -0.057 S 
ATOM      6  O   UNL     1      12.406   6.652   2.938  0.00  0.00    -0.270 OA
ATOM      7  N   UNL     1      15.124   7.500   3.740  0.00  0.00    -0.229 NA
ATOM      9  N   UNL     1      13.125   7.332   5.077  0.00  0.00    -0.261 N 
ATOM     10  C   UNL     1      18.760   8.693   3.264  0.00  0.00    -0.019 C 
ATOM     11  C   UNL     1      19.170   8.290   4.748  0.00  0.00    +0.011 C 
ATOM     12  C   UNL     1      20.627   8.671   5.218  0.00  0.00    +0.021 C 
ATOM     13  C   UNL     1      17.464   7.848   2.863  0.00  0.00    +0.054 C 
ATOM     14  C   UNL     1      19.908   8.316   2.292  0.00  0.00    +0.010 C 
ATOM     15  C   UNL     1      21.643   8.268   4.112  0.00  0.00    +0.123 C 
ATOM     16  C   UNL     1      18.061   8.676   5.769  0.00  0.00    +0.049 C 
ATOM     17  C   UNL     1      21.278   8.810   2.735  0.00  0.00    +0.032 C 
ATOM     18  C   UNL     1      18.456  10.204   3.113  0.00  0.00    +0.012 C 
ATOM     19  C   UNL     1      16.434   7.881   3.963  0.00  0.00    +0.058 A 
ATOM     21  C   UNL     1      20.980   7.853   6.492  0.00  0.00    +0.016 C 
ATOM     22  C   UNL     1      16.727   8.238   5.264  0.00  0.00    +0.015 A 
ATOM     25  C   UNL     1      14.451   7.604   4.865  0.00  0.00    +0.165 A 
ATOM     28  C   UNL     1      12.198   6.882   4.124  0.00  0.00    +0.250 C 
ATOM     39  H   UNL     1      12.842   7.442   6.046  0.00  0.00    +0.157 HD
ENDROOT
BRANCH  28  30
ATOM      2  F   UNL     1       9.204   5.004   7.425  0.00  0.00    -0.205 F 
ATOM     30  C   UNL     1      10.824   6.638   4.639  0.00  0.00    +0.040 A 
ATOM     31  C   UNL     1      10.670   5.923   5.809  0.00  0.00    +0.051 A 
ATOM     32  C   UNL     1       9.751   7.134   3.930  0.00  0.00    +0.013 A 
ATOM     34  C   UNL     1       9.381   5.696   6.291  0.00  0.00    +0.124 A 
ATOM     35  C   UNL     1       8.463   6.906   4.414  0.00  0.00    +0.004 A 
ATOM     36  C   UNL     1       8.278   6.186   5.594  0.00  0.00    +0.038 A 
ENDBRANCH  28  30
BRANCH  15   3
ATOM      3  O   UNL     1      22.955   8.718   4.449  0.00  0.00    -0.391 OA
ATOM     37  H   UNL     1      23.276   9.278   3.723  0.00  0.00    +0.210 HD
ENDBRANCH  15   3
BRANCH  12  20
ATOM     20  C   UNL     1      20.803  10.154   5.616  0.00  0.00    +0.165 C 
BRANCH  20   4
ATOM      4  O   UNL     1      21.680  10.203   6.718  0.00  0.00    -0.394 OA
ATOM     38  H   UNL     1      21.226   9.812   7.482  0.00  0.00    +0.209 HD
ENDBRANCH  20   4
ENDBRANCH  12  20
BRANCH  13  23
ATOM     23  C   UNL     1      16.850   8.226   1.508  0.00  0.00    +0.106 C 
BRANCH  23  24
ATOM      5  O   UNL     1      18.392   7.454  -0.158  0.00  0.00    -0.276 OA
ATOM      8  N   UNL     1      16.407   6.274   0.062  0.00  0.00    -0.293 N 
ATOM     24  C   UNL     1      17.301   7.297   0.397  0.00  0.00    +0.217 C 
ATOM     27  C   UNL     1      16.692   5.298  -0.983  0.00  0.00    +0.133 C 
BRANCH   8  26
ATOM     26  C   UNL     1      15.120   6.108   0.733  0.00  0.00    +0.196 C 
BRANCH  26  29
ATOM     29  C   UNL     1      14.967   4.746   1.247  0.00  0.00    -0.086 C 
ATOM     33  C   UNL     1      14.838   3.631   1.672  0.00  0.00    +0.005 C 
ENDBRANCH  26  29
ENDBRANCH   8  26
ENDBRANCH  23  24
ENDBRANCH  13  23
TORSDOF 8
ENDMDL
MODEL 8
REMARK VINA RESULT:      -6.1     43.595     45.141
REMARK  Name = 11883119
REMARK  11 active torsions:
REMARK  status: ('A' for Active; 'I' for Inactive)
REMARK    1  A    between atoms: O_3  and  C_15
REMARK    2  A    between atoms: O_4  and  C_20
REMARK    3  A    between atoms: N_8  and  C_26
REMARK    4  A    between atoms: N_8  and  C_27
REMARK    5  A    between atoms: C_10  and  C_18
REMARK    6  A    between atoms: C_12  and  C_20
REMARK    7  A    between atoms: C_12  and  C_21
REMARK    8  A    between atoms: C_13  and  C_23
REMARK    9  A    between atoms: C_23  and  C_24
REMARK   10  A    between atoms: C_26  and  C_29
REMARK   11  A    between atoms: C_28  and  C_30
REMARK                            x       y       z     vdW  Elec       q    Type
REMARK                         _______ _______ _______ _____ _____    ______ ____
ROOT
ATOM      1  S   UNL     1      16.115   7.563   1.807  0.00  0.00    -0.057 S 
ATOM      6  O   UNL     1      15.631   8.437   6.354  0.00  0.00    -0.270 OA
ATOM      7  N   UNL     1      14.512   7.376   3.830  0.00  0.00    -0.229 NA
ATOM      9  N   UNL     1      16.670   8.370   4.240  0.00  0.00    -0.261 N 
ATOM     10  C   UNL     1      11.798   6.119   1.396  0.00  0.00    -0.019 C 
ATOM     11  C   UNL     1      12.866   5.439   0.432  0.00  0.00    +0.011 C 
ATOM     12  C   UNL     1      12.322   4.811  -0.909  0.00  0.00    +0.021 C 
ATOM     13  C   UNL     1      12.468   6.280   2.839  0.00  0.00    +0.054 C 
ATOM     14  C   UNL     1      10.563   5.192   1.533  0.00  0.00    +0.010 C 
ATOM     15  C   UNL     1      11.063   3.953  -0.598  0.00  0.00    +0.123 C 
ATOM     16  C   UNL     1      14.115   6.347   0.237  0.00  0.00    +0.049 C 
ATOM     17  C   UNL     1      10.006   4.707   0.202  0.00  0.00    +0.032 C 
ATOM     18  C   UNL     1      11.326   7.504   0.891  0.00  0.00    +0.012 C 
ATOM     19  C   UNL     1      13.857   6.855   2.730  0.00  0.00    +0.058 A 
ATOM     21  C   UNL     1      13.400   3.855  -1.494  0.00  0.00    +0.016 C 
ATOM     22  C   UNL     1      14.585   6.858   1.557  0.00  0.00    +0.015 A 
ATOM     25  C   UNL     1      15.707   7.786   3.460  0.00  0.00    +0.165 A 
ATOM     28  C   UNL     1      16.581   8.657   5.611  0.00  0.00    +0.250 C 
ATOM     39  H   UNL     1      17.533   8.558   3.739  0.00  0.00    +0.157 HD
ENDROOT
BRANCH  28  30
ATOM      2  F   UNL     1      21.043   8.258   7.433  0.00  0.00    -0.205 F 
ATOM     30  C   UNL     1      17.795   9.269   6.214  0.00  0.00    +0.040 A 
ATOM     31  C   UNL     1      18.858   8.453   6.541  0.00  0.00    +0.051 A 
ATOM     32  C   UNL     1      17.818  10.631   6.424  0.00  0.00    +0.013 A 
ATOM     34  C   UNL     1      19.997   9.028   7.105  0.00  0.00    +0.124 A 
ATOM     35  C   UNL     1      18.958  11.205   6.988  0.00  0.00    +0.004 A 
ATOM     36  C   UNL     1      20.047  10.404   7.329  0.00  0.00    +0.038 A 
ENDBRANCH  28  30
BRANCH  15   3
ATOM      3  O   UNL     1      10.470   3.476  -1.806  0.00  0.00    -0.391 OA
ATOM     37  H   UNL     1      10.594   2.513  -1.841  0.00  0.00    +0.210 HD
ENDBRANCH  15   3
BRANCH  12  20
ATOM     20  C   UNL     1      12.028   5.838  -2.025  0.00  0.00    +0.165 C 
BRANCH  20   4
ATOM      4  O   UNL     1      12.279   5.212  -3.263  0.00  0.00    -0.394 OA
ATOM     38  H   UNL     1      11.702   5.619  -3.929  0.00  0.00    +0.209 HD
ENDBRANCH  20   4
ENDBRANCH  12  20
BRANCH  13  23
ATOM     23  C   UNL     1      11.617   7.055   3.854  0.00  0.00    +0.106 C 
BRANCH  23  24
ATOM      5  O   UNL     1      10.746   5.081   4.899  0.00  0.00    -0.276 OA
ATOM      8  N   UNL     1      11.480   6.775   6.304  0.00  0.00    -0.293 N 
ATOM     24  C   UNL     1      11.236   6.203   5.050  0.00  0.00    +0.217 C 
ATOM     27  C   UNL     1      11.171   6.086   7.550  0.00  0.00    +0.133 C 
BRANCH   8  26
ATOM     26  C   UNL     1      12.061   8.107   6.457  0.00  0.00    +0.196 C 
BRANCH  26  29
ATOM     29  C   UNL     1      11.118   9.020   7.104  0.00  0.00    -0.086 C 
ATOM     33  C   UNL     1      10.345   9.766   7.640  0.00  0.00    +0.005 C 
ENDBRANCH  26  29
ENDBRANCH   8  26
ENDBRANCH  23  24
ENDBRANCH  13  23
TORSDOF 8
ENDMDL
MODEL 9
REMARK VINA RESULT:      -6.1     17.887     22.291
REMARK  Name = 11883119
REMARK  11 active torsions:
REMARK  status: ('A' for Active; 'I' for Inactive)
REMARK    1  A    between atoms: O_3  and  C_15
REMARK    2  A    between atoms: O_4  and  C_20
REMARK    3  A    between atoms: N_8  and  C_26
REMARK    4  A    between atoms: N_8  and  C_27
REMARK    5  A    between atoms: C_10  and  C_18
REMARK    6  A    between atoms: C_12  and  C_20
REMARK    7  A    between atoms: C_12  and  C_21
REMARK    8  A    between atoms: C_13  and  C_23
REMARK    9  A    between atoms: C_23  and  C_24
REMARK   10  A    between atoms: C_26  and  C_29
REMARK   11  A    between atoms: C_28  and  C_30
REMARK                            x       y       z     vdW  Elec       q    Type
REMARK                         _______ _______ _______ _____ _____    ______ ____
ROOT
ATOM      1  S   UNL     1      -4.963  11.868  34.575  0.00  0.00    -0.057 S 
ATOM      6  O   UNL     1      -6.654   9.042  37.865  0.00  0.00    -0.270 OA
ATOM      7  N   UNL     1      -4.409  10.631  36.778  0.00  0.00    -0.229 NA
ATOM      9  N   UNL     1      -6.635  10.343  35.899  0.00  0.00    -0.261 N 
ATOM     10  C   UNL     1      -0.760  11.812  36.370  0.00  0.00    -0.019 C 
ATOM     11  C   UNL     1      -1.194  13.151  35.626  0.00  0.00    +0.011 C 
ATOM     12  C   UNL     1      -0.038  14.066  35.068  0.00  0.00    +0.021 C 
ATOM     13  C   UNL     1      -2.013  11.289  37.215  0.00  0.00    +0.054 C 
ATOM     14  C   UNL     1       0.397  12.121  37.355  0.00  0.00    +0.010 C 
ATOM     15  C   UNL     1       1.055  14.234  36.161  0.00  0.00    +0.123 C 
ATOM     16  C   UNL     1      -2.336  12.888  34.602  0.00  0.00    +0.049 C 
ATOM     17  C   UNL     1       1.542  12.908  36.733  0.00  0.00    +0.032 C 
ATOM     18  C   UNL     1      -0.300  10.703  35.394  0.00  0.00    +0.012 C 
ATOM     19  C   UNL     1      -3.273  11.316  36.389  0.00  0.00    +0.058 A 
ATOM     21  C   UNL     1      -0.611  15.479  34.765  0.00  0.00    +0.016 C 
ATOM     22  C   UNL     1      -3.403  12.055  35.229  0.00  0.00    +0.015 A 
ATOM     25  C   UNL     1      -5.359  10.842  35.894  0.00  0.00    +0.165 A 
ATOM     28  C   UNL     1      -7.199   9.490  36.862  0.00  0.00    +0.250 C 
ATOM     39  H   UNL     1      -7.205  10.686  35.133  0.00  0.00    +0.157 HD
ENDROOT
BRANCH  28  30
ATOM      2  F   UNL     1     -11.040   6.705  37.796  0.00  0.00    -0.205 F 
ATOM     30  C   UNL     1      -8.622   9.126  36.634  0.00  0.00    +0.040 A 
ATOM     31  C   UNL     1      -9.159   8.069  37.339  0.00  0.00    +0.051 A 
ATOM     32  C   UNL     1      -9.359   9.858  35.727  0.00  0.00    +0.013 A 
ATOM     34  C   UNL     1     -10.495   7.729  37.125  0.00  0.00    +0.124 A 
ATOM     35  C   UNL     1     -10.694   9.517  35.514  0.00  0.00    +0.004 A 
ATOM     36  C   UNL     1     -11.263   8.452  36.213  0.00  0.00    +0.038 A 
ENDBRANCH  28  30
BRANCH  15   3
ATOM      3  O   UNL     1       2.177  14.950  35.643  0.00  0.00    -0.391 OA
ATOM     37  H   UNL     1       2.984  14.492  35.932  0.00  0.00    +0.210 HD
ENDBRANCH  15   3
BRANCH  12  20
ATOM     20  C   UNL     1       0.582  13.577  33.739  0.00  0.00    +0.165 C 
BRANCH  20   4
ATOM      4  O   UNL     1       1.020  14.710  33.025  0.00  0.00    -0.394 OA
ATOM     38  H   UNL     1       0.486  15.470  33.307  0.00  0.00    +0.209 HD
ENDBRANCH  20   4
ENDBRANCH  12  20
BRANCH  13  23
ATOM     23  C   UNL     1      -1.807   9.922  37.881  0.00  0.00    +0.106 C 
BRANCH  23  24
ATOM      5  O   UNL     1      -1.618  10.986  40.020  0.00  0.00    -0.276 OA
ATOM      8  N   UNL     1      -2.543   8.859  39.985  0.00  0.00    -0.293 N 
ATOM     24  C   UNL     1      -1.971   9.988  39.387  0.00  0.00    +0.217 C 
ATOM     27  C   UNL     1      -2.769   8.766  41.422  0.00  0.00    +0.133 C 
BRANCH   8  26
ATOM     26  C   UNL     1      -2.954   7.688  39.213  0.00  0.00    +0.196 C 
BRANCH  26  29
ATOM     29  C   UNL     1      -2.207   6.499  39.624  0.00  0.00    -0.086 C 
ATOM     33  C   UNL     1      -1.593   5.523  39.957  0.00  0.00    +0.005 C 
ENDBRANCH  26  29
ENDBRANCH   8  26
ENDBRANCH  23  24
ENDBRANCH  13  23
TORSDOF 8
ENDMDL
MODEL 10
REMARK VINA RESULT:      -6.0     23.900     26.552
REMARK  Name = 11883119
REMARK  11 active torsions:
REMARK  status: ('A' for Active; 'I' for Inactive)
REMARK    1  A    between atoms: O_3  and  C_15
REMARK    2  A    between atoms: O_4  and  C_20
REMARK    3  A    between atoms: N_8  and  C_26
REMARK    4  A    between atoms: N_8  and  C_27
REMARK    5  A    between atoms: C_10  and  C_18
REMARK    6  A    between atoms: C_12  and  C_20
REMARK    7  A    between atoms: C_12  and  C_21
REMARK    8  A    between atoms: C_13  and  C_23
REMARK    9  A    between atoms: C_23  and  C_24
REMARK   10  A    between atoms: C_26  and  C_29
REMARK   11  A    between atoms: C_28  and  C_30
REMARK                            x       y       z     vdW  Elec       q    Type
REMARK                         _______ _______ _______ _____ _____    ______ ____
ROOT
ATOM      1  S   UNL     1      -5.096  -9.625  10.146  0.00  0.00    -0.057 S 
ATOM      6  O   UNL     1      -9.568  -8.341   9.985  0.00  0.00    -0.270 OA
ATOM      7  N   UNL     1      -7.260  -9.348  11.536  0.00  0.00    -0.229 NA
ATOM      9  N   UNL     1      -7.387  -8.767   9.200  0.00  0.00    -0.261 N 
ATOM     10  C   UNL     1      -5.411 -10.986  14.498  0.00  0.00    -0.019 C 
ATOM     11  C   UNL     1      -4.000 -10.411  14.037  0.00  0.00    +0.011 C 
ATOM     12  C   UNL     1      -2.735 -10.873  14.858  0.00  0.00    +0.021 C 
ATOM     13  C   UNL     1      -6.551 -10.075  13.846  0.00  0.00    +0.054 C 
ATOM     14  C   UNL     1      -5.529 -10.885  16.041  0.00  0.00    +0.010 C 
ATOM     15  C   UNL     1      -3.040 -10.753  16.378  0.00  0.00    +0.123 C 
ATOM     16  C   UNL     1      -3.819 -10.518  12.495  0.00  0.00    +0.049 C 
ATOM     17  C   UNL     1      -4.331 -11.452  16.789  0.00  0.00    +0.032 C 
ATOM     18  C   UNL     1      -5.627 -12.460  14.078  0.00  0.00    +0.012 C 
ATOM     19  C   UNL     1      -6.280  -9.831  12.384  0.00  0.00    +0.058 A 
ATOM     21  C   UNL     1      -1.550  -9.916  14.546  0.00  0.00    +0.016 C 
ATOM     22  C   UNL     1      -5.042 -10.018  11.802  0.00  0.00    +0.015 A 
ATOM     25  C   UNL     1      -6.752  -9.209  10.331  0.00  0.00    +0.165 A 
ATOM     28  C   UNL     1      -8.728  -8.367   9.092  0.00  0.00    +0.250 C 
ATOM     39  H   UNL     1      -6.772  -8.699   8.395  0.00  0.00    +0.157 HD
ENDROOT
BRANCH  28  30
ATOM      2  F   UNL     1      -7.828  -7.735   4.383  0.00  0.00    -0.205 F 
ATOM     30  C   UNL     1      -9.146  -7.901   7.743  0.00  0.00    +0.040 A 
ATOM     31  C   UNL     1      -8.269  -8.044   6.688  0.00  0.00    +0.051 A 
ATOM     32  C   UNL     1     -10.397  -7.343   7.591  0.00  0.00    +0.013 A 
ATOM     34  C   UNL     1      -8.663  -7.608   5.423  0.00  0.00    +0.124 A 
ATOM     35  C   UNL     1     -10.790  -6.907   6.326  0.00  0.00    +0.004 A 
ATOM     36  C   UNL     1      -9.923  -7.039   5.242  0.00  0.00    +0.038 A 
ENDBRANCH  28  30
BRANCH  15   3
ATOM      3  O   UNL     1      -1.964 -11.286  17.150  0.00  0.00    -0.391 OA
ATOM     37  H   UNL     1      -1.478 -10.542  17.542  0.00  0.00    +0.210 HD
ENDBRANCH  15   3
BRANCH  12  20
ATOM     20  C   UNL     1      -2.227 -12.290  14.508  0.00  0.00    +0.165 C 
BRANCH  20   4
ATOM      4  O   UNL     1      -0.832 -12.308  14.705  0.00  0.00    -0.394 OA
ATOM     38  H   UNL     1      -0.478 -13.110  14.287  0.00  0.00    +0.209 HD
ENDBRANCH  20   4
ENDBRANCH  12  20
BRANCH  13  23
ATOM     23  C   UNL     1      -7.982 -10.582  14.075  0.00  0.00    +0.106 C 
BRANCH  23  24
ATOM      5  O   UNL     1      -8.839  -8.577  15.069  0.00  0.00    -0.276 OA
ATOM      8  N   UNL     1      -9.182 -10.555  16.232  0.00  0.00    -0.293 N 
ATOM     24  C   UNL     1      -8.700  -9.800  15.157  0.00  0.00    +0.217 C 
ATOM     27  C   UNL     1      -9.896  -9.953  17.352  0.00  0.00    +0.133 C 
BRANCH   8  26
ATOM     26  C   UNL     1      -9.005 -12.003  16.314  0.00  0.00    +0.196 C 
BRANCH  26  29
ATOM     29  C   UNL     1      -8.293 -12.377  17.536  0.00  0.00    -0.086 C 
ATOM     33  C   UNL     1      -7.711 -12.679  18.541  0.00  0.00    +0.005 C 
ENDBRANCH  26  29
ENDBRANCH   8  26
ENDBRANCH  23  24
ENDBRANCH  13  23
TORSDOF 8
ENDMDL
