MODEL 1
REMARK VINA RESULT:      -6.7      0.000      0.000
REMARK  Name = 11941672
REMARK  7 active torsions:
REMARK  status: ('A' for Active; 'I' for Inactive)
REMARK    1  A    between atoms: O_4  and  C_18
REMARK    2  A    between atoms: O_4  and  C_23
REMARK    3  A    between atoms: N_5  and  C_13
REMARK    4  A    between atoms: N_6  and  C_12
REMARK    5  A    between atoms: C_16  and  C_18
REMARK    6  A    between atoms: C_19  and  C_22
REMARK    7  A    between atoms: C_26  and  C_29
REMARK                            x       y       z     vdW  Elec       q    Type
REMARK                         _______ _______ _______ _____ _____    ______ ____
ROOT
ATOM      6  N   UNL     1      -3.142 -10.648  12.338  0.00  0.00    -0.306 N 
ATOM      7  N   UNL     1      -3.898 -10.574  14.559  0.00  0.00    -0.214 NA
ATOM      8  N   UNL     1      -1.542 -10.657  14.055  0.00  0.00    -0.223 NA
ATOM     17  C   UNL     1      -2.852 -10.626  13.691  0.00  0.00    +0.216 A 
ATOM     19  C   UNL     1      -3.579 -10.553  15.870  0.00  0.00    +0.076 A 
ATOM     20  C   UNL     1      -1.296 -10.633  15.381  0.00  0.00    +0.116 A 
ATOM     21  C   UNL     1      -2.283 -10.581  16.344  0.00  0.00    +0.048 A 
ATOM     30  H   UNL     1      -2.358 -10.740  11.702  0.00  0.00    +0.149 HD
ENDROOT
BRANCH   6  12
ATOM      1  O   UNL     1      -4.455  -9.011  10.063  0.00  0.00    -0.370 OA
ATOM      2  O   UNL     1      -5.879 -11.784  10.206  0.00  0.00    -0.370 OA
ATOM     10  C   UNL     1      -4.538 -11.351  10.487  0.00  0.00    +0.171 C 
ATOM     11  C   UNL     1      -4.184 -10.289   9.464  0.00  0.00    +0.171 C 
ATOM     12  C   UNL     1      -4.488 -10.623  11.809  0.00  0.00    +0.130 C 
ATOM     13  C   UNL     1      -5.140 -10.547   8.321  0.00  0.00    +0.130 C 
ATOM     14  C   UNL     1      -4.873  -9.206  11.422  0.00  0.00    +0.185 C 
ATOM     15  C   UNL     1      -6.358 -11.105   9.035  0.00  0.00    +0.185 C 
BRANCH  13   5
ATOM      3  O   UNL     1      -5.620 -10.692   5.467  0.00  0.00    -0.273 OA
ATOM      5  N   UNL     1      -4.594 -11.505   7.390  0.00  0.00    -0.306 N 
ATOM     16  C   UNL     1      -4.883 -11.494   6.032  0.00  0.00    +0.239 C 
ATOM     31  H   UNL     1      -3.926 -12.185   7.742  0.00  0.00    +0.149 HD
BRANCH  16  18
ATOM     18  C   UNL     1      -4.172 -12.611   5.299  0.00  0.00    +0.255 C 
BRANCH  18   4
ATOM      4  O   UNL     1      -2.986 -12.137   4.698  0.00  0.00    -0.374 OA
ATOM     23  C   UNL     1      -2.899 -12.509   3.325  0.00  0.00    +0.194 C 
ENDBRANCH  18   4
ENDBRANCH  16  18
ENDBRANCH  13   5
ENDBRANCH   6  12
BRANCH  19  22
ATOM     22  C   UNL     1      -4.703 -10.499  16.773  0.00  0.00    +0.002 A 
ATOM     24  C   UNL     1      -5.865  -9.815  16.408  0.00  0.00    +0.029 A 
ATOM     25  C   UNL     1      -4.633 -11.132  18.016  0.00  0.00    +0.010 A 
ATOM     26  C   UNL     1      -6.951  -9.764  17.282  0.00  0.00    +0.052 A 
ATOM     27  C   UNL     1      -5.719 -11.081  18.890  0.00  0.00    +0.002 A 
ATOM     28  C   UNL     1      -6.878 -10.397  18.522  0.00  0.00    +0.019 A 
BRANCH  26  29
ATOM      9  N   UNL     1      -9.105  -8.496  16.601  0.00  0.00    -0.191 NA
ATOM     29  C   UNL     1      -8.140  -9.065  16.906  0.00  0.00    +0.099 C 
ENDBRANCH  26  29
ENDBRANCH  19  22
TORSDOF 6
ENDMDL
MODEL 2
REMARK VINA RESULT:      -6.7      1.339      1.774
REMARK  Name = 11941672
REMARK  7 active torsions:
REMARK  status: ('A' for Active; 'I' for Inactive)
REMARK    1  A    between atoms: O_4  and  C_18
REMARK    2  A    between atoms: O_4  and  C_23
REMARK    3  A    between atoms: N_5  and  C_13
REMARK    4  A    between atoms: N_6  and  C_12
REMARK    5  A    between atoms: C_16  and  C_18
REMARK    6  A    between atoms: C_19  and  C_22
REMARK    7  A    between atoms: C_26  and  C_29
REMARK                            x       y       z     vdW  Elec       q    Type
REMARK                         _______ _______ _______ _____ _____    ______ ____
ROOT
ATOM      6  N   UNL     1      -3.475 -10.551  11.869  0.00  0.00    -0.306 N 
ATOM      7  N   UNL     1      -4.242 -10.437  14.084  0.00  0.00    -0.214 NA
ATOM      8  N   UNL     1      -1.917 -10.848  13.599  0.00  0.00    -0.223 NA
ATOM     17  C   UNL     1      -3.203 -10.614  13.225  0.00  0.00    +0.216 A 
ATOM     19  C   UNL     1      -3.941 -10.504  15.397  0.00  0.00    +0.076 A 
ATOM     20  C   UNL     1      -1.688 -10.902  14.927  0.00  0.00    +0.116 A 
ATOM     21  C   UNL     1      -2.670 -10.737  15.882  0.00  0.00    +0.048 A 
ATOM     30  H   UNL     1      -2.704 -10.736  11.237  0.00  0.00    +0.149 HD
ENDROOT
BRANCH   6  12
ATOM      1  O   UNL     1      -4.511  -8.630   9.674  0.00  0.00    -0.370 OA
ATOM      2  O   UNL     1      -6.305 -11.183   9.651  0.00  0.00    -0.370 OA
ATOM     10  C   UNL     1      -4.922 -10.955   9.968  0.00  0.00    +0.171 C 
ATOM     11  C   UNL     1      -4.408  -9.899   9.009  0.00  0.00    +0.171 C 
ATOM     12  C   UNL     1      -4.795 -10.312  11.329  0.00  0.00    +0.130 C 
ATOM     13  C   UNL     1      -5.370  -9.962   7.844  0.00  0.00    +0.130 C 
ATOM     14  C   UNL     1      -4.975  -8.836  11.016  0.00  0.00    +0.185 C 
ATOM     15  C   UNL     1      -6.665 -10.383   8.514  0.00  0.00    +0.185 C 
BRANCH  13   5
ATOM      3  O   UNL     1      -6.320 -10.247   5.121  0.00  0.00    -0.273 OA
ATOM      5  N   UNL     1      -4.945 -10.935   6.867  0.00  0.00    -0.306 N 
ATOM     16  C   UNL     1      -5.461 -10.994   5.580  0.00  0.00    +0.239 C 
ATOM     31  H   UNL     1      -4.196 -11.572   7.124  0.00  0.00    +0.149 HD
BRANCH  16  18
ATOM     18  C   UNL     1      -4.832 -12.110   4.775  0.00  0.00    +0.255 C 
BRANCH  18   4
ATOM      4  O   UNL     1      -3.426 -11.991   4.769  0.00  0.00    -0.374 OA
ATOM     23  C   UNL     1      -2.825 -12.814   3.773  0.00  0.00    +0.194 C 
ENDBRANCH  18   4
ENDBRANCH  16  18
ENDBRANCH  13   5
ENDBRANCH   6  12
BRANCH  19  22
ATOM     22  C   UNL     1      -5.058 -10.315  16.292  0.00  0.00    +0.002 A 
ATOM     24  C   UNL     1      -4.989 -10.775  17.609  0.00  0.00    +0.029 A 
ATOM     25  C   UNL     1      -6.212  -9.668  15.844  0.00  0.00    +0.010 A 
ATOM     26  C   UNL     1      -6.069 -10.590  18.472  0.00  0.00    +0.052 A 
ATOM     27  C   UNL     1      -7.292  -9.484  16.706  0.00  0.00    +0.002 A 
ATOM     28  C   UNL     1      -7.220  -9.945  18.022  0.00  0.00    +0.019 A 
BRANCH  26  29
ATOM      9  N   UNL     1      -5.937 -11.444  20.915  0.00  0.00    -0.191 NA
ATOM     29  C   UNL     1      -5.996 -11.061  19.820  0.00  0.00    +0.099 C 
ENDBRANCH  26  29
ENDBRANCH  19  22
TORSDOF 6
ENDMDL
MODEL 3
REMARK VINA RESULT:      -6.5     28.280     31.573
REMARK  Name = 11941672
REMARK  7 active torsions:
REMARK  status: ('A' for Active; 'I' for Inactive)
REMARK    1  A    between atoms: O_4  and  C_18
REMARK    2  A    between atoms: O_4  and  C_23
REMARK    3  A    between atoms: N_5  and  C_13
REMARK    4  A    between atoms: N_6  and  C_12
REMARK    5  A    between atoms: C_16  and  C_18
REMARK    6  A    between atoms: C_19  and  C_22
REMARK    7  A    between atoms: C_26  and  C_29
REMARK                            x       y       z     vdW  Elec       q    Type
REMARK                         _______ _______ _______ _____ _____    ______ ____
ROOT
ATOM      6  N   UNL     1      18.695   6.783  22.160  0.00  0.00    -0.306 N 
ATOM      7  N   UNL     1      20.844   7.367  21.422  0.00  0.00    -0.214 NA
ATOM      8  N   UNL     1      20.534   6.077  23.434  0.00  0.00    -0.223 NA
ATOM     17  C   UNL     1      20.066   6.742  22.345  0.00  0.00    +0.216 A 
ATOM     19  C   UNL     1      22.176   7.306  21.633  0.00  0.00    +0.076 A 
ATOM     20  C   UNL     1      21.875   6.055  23.583  0.00  0.00    +0.116 A 
ATOM     21  C   UNL     1      22.753   6.658  22.706  0.00  0.00    +0.048 A 
ATOM     30  H   UNL     1      18.121   6.360  22.881  0.00  0.00    +0.149 HD
ENDROOT
BRANCH   6  12
ATOM      1  O   UNL     1      17.007   5.741  19.784  0.00  0.00    -0.370 OA
ATOM      2  O   UNL     1      16.001   8.607  20.502  0.00  0.00    -0.370 OA
ATOM     10  C   UNL     1      16.567   7.539  21.280  0.00  0.00    +0.171 C 
ATOM     11  C   UNL     1      16.032   6.237  20.716  0.00  0.00    +0.171 C 
ATOM     12  C   UNL     1      18.058   7.456  21.050  0.00  0.00    +0.130 C 
ATOM     13  C   UNL     1      14.770   6.644  19.989  0.00  0.00    +0.130 C 
ATOM     14  C   UNL     1      18.153   6.604  19.796  0.00  0.00    +0.185 C 
ATOM     15  C   UNL     1      15.097   8.054  19.533  0.00  0.00    +0.185 C 
BRANCH  13   5
ATOM      3  O   UNL     1      11.970   6.546  19.246  0.00  0.00    -0.273 OA
ATOM      5  N   UNL     1      13.630   6.631  20.874  0.00  0.00    -0.306 N 
ATOM     16  C   UNL     1      12.318   6.583  20.423  0.00  0.00    +0.239 C 
ATOM     31  H   UNL     1      13.804   6.604  21.875  0.00  0.00    +0.149 HD
BRANCH  16  18
ATOM     18  C   UNL     1      11.331   6.579  21.569  0.00  0.00    +0.255 C 
BRANCH  18   4
ATOM      4  O   UNL     1      10.430   7.660  21.455  0.00  0.00    -0.374 OA
ATOM     23  C   UNL     1      10.742   8.712  22.364  0.00  0.00    +0.194 C 
ENDBRANCH  18   4
ENDBRANCH  16  18
ENDBRANCH  13   5
ENDBRANCH   6  12
BRANCH  19  22
ATOM     22  C   UNL     1      22.984   7.977  20.644  0.00  0.00    +0.002 A 
ATOM     24  C   UNL     1      22.441   9.011  19.876  0.00  0.00    +0.029 A 
ATOM     25  C   UNL     1      24.314   7.596  20.450  0.00  0.00    +0.010 A 
ATOM     26  C   UNL     1      23.224   9.659  18.922  0.00  0.00    +0.052 A 
ATOM     27  C   UNL     1      25.096   8.244  19.494  0.00  0.00    +0.002 A 
ATOM     28  C   UNL     1      24.551   9.277  18.730  0.00  0.00    +0.019 A 
BRANCH  26  29
ATOM      9  N   UNL     1      22.213  11.577  17.502  0.00  0.00    -0.191 NA
ATOM     29  C   UNL     1      22.666  10.717  18.138  0.00  0.00    +0.099 C 
ENDBRANCH  26  29
ENDBRANCH  19  22
TORSDOF 6
ENDMDL
MODEL 4
REMARK VINA RESULT:      -6.3      4.198      8.467
REMARK  Name = 11941672
REMARK  7 active torsions:
REMARK  status: ('A' for Active; 'I' for Inactive)
REMARK    1  A    between atoms: O_4  and  C_18
REMARK    2  A    between atoms: O_4  and  C_23
REMARK    3  A    between atoms: N_5  and  C_13
REMARK    4  A    between atoms: N_6  and  C_12
REMARK    5  A    between atoms: C_16  and  C_18
REMARK    6  A    between atoms: C_19  and  C_22
REMARK    7  A    between atoms: C_26  and  C_29
REMARK                            x       y       z     vdW  Elec       q    Type
REMARK                         _______ _______ _______ _____ _____    ______ ____
ROOT
ATOM      6  N   UNL     1      -3.529 -11.528  17.227  0.00  0.00    -0.306 N 
ATOM      7  N   UNL     1      -3.471 -11.233  14.900  0.00  0.00    -0.214 NA
ATOM      8  N   UNL     1      -1.690 -10.407  16.297  0.00  0.00    -0.223 NA
ATOM     17  C   UNL     1      -2.878 -11.040  16.108  0.00  0.00    +0.216 A 
ATOM     19  C   UNL     1      -2.808 -10.746  13.830  0.00  0.00    +0.076 A 
ATOM     20  C   UNL     1      -1.081  -9.945  15.185  0.00  0.00    +0.116 A 
ATOM     21  C   UNL     1      -1.598 -10.087  13.913  0.00  0.00    +0.048 A 
ATOM     30  H   UNL     1      -3.105 -11.334  18.126  0.00  0.00    +0.149 HD
ENDROOT
BRANCH   6  12
ATOM      1  O   UNL     1      -5.986 -11.518  19.110  0.00  0.00    -0.370 OA
ATOM      2  O   UNL     1      -7.001 -11.996  16.198  0.00  0.00    -0.370 OA
ATOM     10  C   UNL     1      -5.890 -11.267  16.746  0.00  0.00    +0.171 C 
ATOM     11  C   UNL     1      -6.361 -10.634  18.040  0.00  0.00    +0.171 C 
ATOM     12  C   UNL     1      -4.799 -12.219  17.175  0.00  0.00    +0.130 C 
ATOM     13  C   UNL     1      -7.865 -10.587  17.900  0.00  0.00    +0.130 C 
ATOM     14  C   UNL     1      -5.237 -12.618  18.573  0.00  0.00    +0.185 C 
ATOM     15  C   UNL     1      -8.150 -11.803  17.037  0.00  0.00    +0.185 C 
BRANCH  13   5
ATOM      3  O   UNL     1     -10.502  -9.385  17.976  0.00  0.00    -0.273 OA
ATOM      5  N   UNL     1      -8.292  -9.371  17.249  0.00  0.00    -0.306 N 
ATOM     16  C   UNL     1      -9.583  -8.871  17.344  0.00  0.00    +0.239 C 
ATOM     31  H   UNL     1      -7.595  -8.833  16.741  0.00  0.00    +0.149 HD
BRANCH  16  18
ATOM     18  C   UNL     1      -9.745  -7.585  16.564  0.00  0.00    +0.255 C 
BRANCH  18   4
ATOM      4  O   UNL     1     -10.847  -6.846  17.045  0.00  0.00    -0.374 OA
ATOM     23  C   UNL     1     -11.576  -6.228  15.988  0.00  0.00    +0.194 C 
ENDBRANCH  18   4
ENDBRANCH  16  18
ENDBRANCH  13   5
ENDBRANCH   6  12
BRANCH  19  22
ATOM     22  C   UNL     1      -3.456 -10.958  12.559  0.00  0.00    +0.002 A 
ATOM     24  C   UNL     1      -4.544 -10.166  12.182  0.00  0.00    +0.029 A 
ATOM     25  C   UNL     1      -2.997 -11.958  11.697  0.00  0.00    +0.010 A 
ATOM     26  C   UNL     1      -5.168 -10.373  10.953  0.00  0.00    +0.052 A 
ATOM     27  C   UNL     1      -3.622 -12.165  10.468  0.00  0.00    +0.002 A 
ATOM     28  C   UNL     1      -4.708 -11.371  10.095  0.00  0.00    +0.019 A 
BRANCH  26  29
ATOM      9  N   UNL     1      -7.183  -8.899  10.258  0.00  0.00    -0.191 NA
ATOM     29  C   UNL     1      -6.280  -9.560  10.570  0.00  0.00    +0.099 C 
ENDBRANCH  26  29
ENDBRANCH  19  22
TORSDOF 6
ENDMDL
MODEL 5
REMARK VINA RESULT:      -6.1      5.043      9.384
REMARK  Name = 11941672
REMARK  7 active torsions:
REMARK  status: ('A' for Active; 'I' for Inactive)
REMARK    1  A    between atoms: O_4  and  C_18
REMARK    2  A    between atoms: O_4  and  C_23
REMARK    3  A    between atoms: N_5  and  C_13
REMARK    4  A    between atoms: N_6  and  C_12
REMARK    5  A    between atoms: C_16  and  C_18
REMARK    6  A    between atoms: C_19  and  C_22
REMARK    7  A    between atoms: C_26  and  C_29
REMARK                            x       y       z     vdW  Elec       q    Type
REMARK                         _______ _______ _______ _____ _____    ______ ____
ROOT
ATOM      6  N   UNL     1      -8.151  -9.550  18.181  0.00  0.00    -0.306 N 
ATOM      7  N   UNL     1      -6.038 -10.181  17.379  0.00  0.00    -0.214 NA
ATOM      8  N   UNL     1      -6.777 -10.845  19.575  0.00  0.00    -0.223 NA
ATOM     17  C   UNL     1      -6.952 -10.211  18.385  0.00  0.00    +0.216 A 
ATOM     19  C   UNL     1      -4.882 -10.836  17.610  0.00  0.00    +0.076 A 
ATOM     20  C   UNL     1      -5.598 -11.480  19.739  0.00  0.00    +0.116 A 
ATOM     21  C   UNL     1      -4.604 -11.509  18.783  0.00  0.00    +0.048 A 
ATOM     30  H   UNL     1      -8.804  -9.535  18.956  0.00  0.00    +0.149 HD
ENDROOT
BRANCH   6  12
ATOM      1  O   UNL     1      -9.915 -10.271  15.742  0.00  0.00    -0.370 OA
ATOM      2  O   UNL     1     -10.032  -7.178  16.140  0.00  0.00    -0.370 OA
ATOM     10  C   UNL     1      -9.877  -8.282  17.047  0.00  0.00    +0.171 C 
ATOM     11  C   UNL     1     -10.749  -9.412  16.536  0.00  0.00    +0.171 C 
ATOM     12  C   UNL     1      -8.473  -8.834  16.967  0.00  0.00    +0.130 C 
ATOM     13  C   UNL     1     -11.772  -8.720  15.663  0.00  0.00    +0.130 C 
ATOM     14  C   UNL     1      -8.561  -9.797  15.797  0.00  0.00    +0.185 C 
ATOM     15  C   UNL     1     -10.995  -7.528  15.134  0.00  0.00    +0.185 C 
BRANCH  13   5
ATOM      3  O   UNL     1     -14.422  -8.093  14.672  0.00  0.00    -0.273 OA
ATOM      5  N   UNL     1     -12.917  -8.298  16.433  0.00  0.00    -0.306 N 
ATOM     16  C   UNL     1     -14.153  -8.019  15.867  0.00  0.00    +0.239 C 
ATOM     31  H   UNL     1     -12.821  -8.254  17.445  0.00  0.00    +0.149 HD
BRANCH  16  18
ATOM     18  C   UNL     1     -15.166  -7.601  16.911  0.00  0.00    +0.255 C 
BRANCH  18   4
ATOM      4  O   UNL     1     -16.318  -7.061  16.299  0.00  0.00    -0.374 OA
ATOM     23  C   UNL     1     -17.082  -6.271  17.206  0.00  0.00    +0.194 C 
ENDBRANCH  18   4
ENDBRANCH  16  18
ENDBRANCH  13   5
ENDBRANCH   6  12
BRANCH  19  22
ATOM     22  C   UNL     1      -3.925 -10.790  16.531  0.00  0.00    +0.002 A 
ATOM     24  C   UNL     1      -4.361 -10.664  15.210  0.00  0.00    +0.029 A 
ATOM     25  C   UNL     1      -2.557 -10.870  16.804  0.00  0.00    +0.010 A 
ATOM     26  C   UNL     1      -3.435 -10.619  14.169  0.00  0.00    +0.052 A 
ATOM     27  C   UNL     1      -1.631 -10.826  15.763  0.00  0.00    +0.002 A 
ATOM     28  C   UNL     1      -2.070 -10.700  14.444  0.00  0.00    +0.019 A 
BRANCH  26  29
ATOM      9  N   UNL     1      -4.248 -10.385  11.720  0.00  0.00    -0.191 NA
ATOM     29  C   UNL     1      -3.883 -10.490  12.818  0.00  0.00    +0.099 C 
ENDBRANCH  26  29
ENDBRANCH  19  22
TORSDOF 6
ENDMDL
MODEL 6
REMARK VINA RESULT:      -6.1     23.631     26.636
REMARK  Name = 11941672
REMARK  7 active torsions:
REMARK  status: ('A' for Active; 'I' for Inactive)
REMARK    1  A    between atoms: O_4  and  C_18
REMARK    2  A    between atoms: O_4  and  C_23
REMARK    3  A    between atoms: N_5  and  C_13
REMARK    4  A    between atoms: N_6  and  C_12
REMARK    5  A    between atoms: C_16  and  C_18
REMARK    6  A    between atoms: C_19  and  C_22
REMARK    7  A    between atoms: C_26  and  C_29
REMARK                            x       y       z     vdW  Elec       q    Type
REMARK                         _______ _______ _______ _____ _____    ______ ____
ROOT
ATOM      6  N   UNL     1      12.805   5.166   2.638  0.00  0.00    -0.306 N 
ATOM      7  N   UNL     1      12.791   4.608   0.359  0.00  0.00    -0.214 NA
ATOM      8  N   UNL     1      14.825   4.502   1.647  0.00  0.00    -0.223 NA
ATOM     17  C   UNL     1      13.495   4.747   1.514  0.00  0.00    +0.216 A 
ATOM     19  C   UNL     1      13.495   4.197  -0.717  0.00  0.00    +0.076 A 
ATOM     20  C   UNL     1      15.467   4.094   0.532  0.00  0.00    +0.116 A 
ATOM     21  C   UNL     1      14.847   3.922  -0.688  0.00  0.00    +0.048 A 
ATOM     30  H   UNL     1      13.348   5.316   3.481  0.00  0.00    +0.149 HD
ENDROOT
BRANCH   6  12
ATOM      1  O   UNL     1      10.540   4.495   4.638  0.00  0.00    -0.370 OA
ATOM      2  O   UNL     1       9.860   7.225   3.288  0.00  0.00    -0.370 OA
ATOM     10  C   UNL     1      11.097   6.574   3.624  0.00  0.00    +0.171 C 
ATOM     11  C   UNL     1      10.884   5.856   4.943  0.00  0.00    +0.171 C 
ATOM     12  C   UNL     1      11.390   5.464   2.642  0.00  0.00    +0.130 C 
ATOM     13  C   UNL     1       9.705   6.570   5.563  0.00  0.00    +0.130 C 
ATOM     14  C   UNL     1      10.609   4.296   3.219  0.00  0.00    +0.185 C 
ATOM     15  C   UNL     1       8.913   7.011   4.345  0.00  0.00    +0.185 C 
BRANCH  13   5
ATOM      3  O   UNL     1       8.457   7.624   7.958  0.00  0.00    -0.273 OA
ATOM      5  N   UNL     1      10.133   7.704   6.347  0.00  0.00    -0.306 N 
ATOM     16  C   UNL     1       9.468   8.136   7.485  0.00  0.00    +0.239 C 
ATOM     31  H   UNL     1      10.994   8.173   6.076  0.00  0.00    +0.149 HD
BRANCH  16  18
ATOM     18  C   UNL     1      10.140   9.343   8.103  0.00  0.00    +0.255 C 
BRANCH  18   4
ATOM      4  O   UNL     1       9.267  10.453   8.106  0.00  0.00    -0.374 OA
ATOM     23  C   UNL     1       9.301  11.153   9.347  0.00  0.00    +0.194 C 
ENDBRANCH  18   4
ENDBRANCH  16  18
ENDBRANCH  13   5
ENDBRANCH   6  12
BRANCH  19  22
ATOM     22  C   UNL     1      12.730   4.058  -1.932  0.00  0.00    +0.002 A 
ATOM     24  C   UNL     1      11.706   3.111  -2.014  0.00  0.00    +0.029 A 
ATOM     25  C   UNL     1      13.010   4.872  -3.033  0.00  0.00    +0.010 A 
ATOM     26  C   UNL     1      10.968   2.979  -3.190  0.00  0.00    +0.052 A 
ATOM     27  C   UNL     1      12.273   4.739  -4.208  0.00  0.00    +0.002 A 
ATOM     28  C   UNL     1      11.250   3.792  -4.287  0.00  0.00    +0.019 A 
BRANCH  26  29
ATOM      9  N   UNL     1       9.069   1.222  -3.337  0.00  0.00    -0.191 NA
ATOM     29  C   UNL     1       9.921   2.009  -3.271  0.00  0.00    +0.099 C 
ENDBRANCH  26  29
ENDBRANCH  19  22
TORSDOF 6
ENDMDL
MODEL 7
REMARK VINA RESULT:      -6.1      2.572      3.379
REMARK  Name = 11941672
REMARK  7 active torsions:
REMARK  status: ('A' for Active; 'I' for Inactive)
REMARK    1  A    between atoms: O_4  and  C_18
REMARK    2  A    between atoms: O_4  and  C_23
REMARK    3  A    between atoms: N_5  and  C_13
REMARK    4  A    between atoms: N_6  and  C_12
REMARK    5  A    between atoms: C_16  and  C_18
REMARK    6  A    between atoms: C_19  and  C_22
REMARK    7  A    between atoms: C_26  and  C_29
REMARK                            x       y       z     vdW  Elec       q    Type
REMARK                         _______ _______ _______ _____ _____    ______ ____
ROOT
ATOM      6  N   UNL     1      -4.256 -10.426  10.820  0.00  0.00    -0.306 N 
ATOM      7  N   UNL     1      -4.208 -10.556  13.163  0.00  0.00    -0.214 NA
ATOM      8  N   UNL     1      -2.193 -10.815  11.867  0.00  0.00    -0.223 NA
ATOM     17  C   UNL     1      -3.531 -10.605  11.985  0.00  0.00    +0.216 A 
ATOM     19  C   UNL     1      -3.470 -10.735  14.278  0.00  0.00    +0.076 A 
ATOM     20  C   UNL     1      -1.516 -10.986  13.022  0.00  0.00    +0.116 A 
ATOM     21  C   UNL     1      -2.108 -10.955  14.268  0.00  0.00    +0.048 A 
ATOM     30  H   UNL     1      -3.751 -10.516   9.946  0.00  0.00    +0.149 HD
ENDROOT
BRANCH   6  12
ATOM      1  O   UNL     1      -5.950  -7.895  10.262  0.00  0.00    -0.370 OA
ATOM      2  O   UNL     1      -7.573 -10.379   9.295  0.00  0.00    -0.370 OA
ATOM     10  C   UNL     1      -6.167 -10.090   9.369  0.00  0.00    +0.171 C 
ATOM     11  C   UNL     1      -5.990  -8.624   9.024  0.00  0.00    +0.171 C 
ATOM     12  C   UNL     1      -5.684 -10.196  10.796  0.00  0.00    +0.130 C 
ATOM     13  C   UNL     1      -7.240  -8.275   8.249  0.00  0.00    +0.130 C 
ATOM     14  C   UNL     1      -6.004  -8.821  11.357  0.00  0.00    +0.185 C 
ATOM     15  C   UNL     1      -8.273  -9.202   8.863  0.00  0.00    +0.185 C 
BRANCH  13   5
ATOM      3  O   UNL     1      -8.849  -7.252   6.065  0.00  0.00    -0.273 OA
ATOM      5  N   UNL     1      -7.072  -8.539   6.840  0.00  0.00    -0.306 N 
ATOM     16  C   UNL     1      -7.897  -8.001   5.862  0.00  0.00    +0.239 C 
ATOM     31  H   UNL     1      -6.279  -9.106   6.552  0.00  0.00    +0.149 HD
BRANCH  16  18
ATOM     18  C   UNL     1      -7.488  -8.446   4.475  0.00  0.00    +0.255 C 
BRANCH  18   4
ATOM      4  O   UNL     1      -7.131  -9.812   4.475  0.00  0.00    -0.374 OA
ATOM     23  C   UNL     1      -7.927 -10.570   3.567  0.00  0.00    +0.194 C 
ENDBRANCH  18   4
ENDBRANCH  16  18
ENDBRANCH  13   5
ENDBRANCH   6  12
BRANCH  19  22
ATOM     22  C   UNL     1      -4.208 -10.681  15.516  0.00  0.00    +0.002 A 
ATOM     24  C   UNL     1      -3.698 -11.290  16.666  0.00  0.00    +0.029 A 
ATOM     25  C   UNL     1      -5.437 -10.018  15.571  0.00  0.00    +0.010 A 
ATOM     26  C   UNL     1      -4.413 -11.236  17.862  0.00  0.00    +0.052 A 
ATOM     27  C   UNL     1      -6.152  -9.965  16.767  0.00  0.00    +0.002 A 
ATOM     28  C   UNL     1      -5.639 -10.574  17.914  0.00  0.00    +0.019 A 
BRANCH  26  29
ATOM      9  N   UNL     1      -3.462 -12.365  19.992  0.00  0.00    -0.191 NA
ATOM     29  C   UNL     1      -3.888 -11.859  19.037  0.00  0.00    +0.099 C 
ENDBRANCH  26  29
ENDBRANCH  19  22
TORSDOF 6
ENDMDL
MODEL 8
REMARK VINA RESULT:      -6.0      2.548      2.816
REMARK  Name = 11941672
REMARK  7 active torsions:
REMARK  status: ('A' for Active; 'I' for Inactive)
REMARK    1  A    between atoms: O_4  and  C_18
REMARK    2  A    between atoms: O_4  and  C_23
REMARK    3  A    between atoms: N_5  and  C_13
REMARK    4  A    between atoms: N_6  and  C_12
REMARK    5  A    between atoms: C_16  and  C_18
REMARK    6  A    between atoms: C_19  and  C_22
REMARK    7  A    between atoms: C_26  and  C_29
REMARK                            x       y       z     vdW  Elec       q    Type
REMARK                         _______ _______ _______ _____ _____    ______ ____
ROOT
ATOM      6  N   UNL     1      -4.331 -10.570  11.229  0.00  0.00    -0.306 N 
ATOM      7  N   UNL     1      -4.333 -10.751  13.569  0.00  0.00    -0.214 NA
ATOM      8  N   UNL     1      -2.402 -11.397  12.279  0.00  0.00    -0.223 NA
ATOM     17  C   UNL     1      -3.669 -10.917  12.394  0.00  0.00    +0.216 A 
ATOM     19  C   UNL     1      -3.658 -11.098  14.685  0.00  0.00    +0.076 A 
ATOM     20  C   UNL     1      -1.786 -11.725  13.434  0.00  0.00    +0.116 A 
ATOM     21  C   UNL     1      -2.370 -11.595  14.678  0.00  0.00    +0.048 A 
ATOM     30  H   UNL     1      -3.847 -10.747  10.356  0.00  0.00    +0.149 HD
ENDROOT
BRANCH   6  12
ATOM      1  O   UNL     1      -5.502  -7.868  10.276  0.00  0.00    -0.370 OA
ATOM      2  O   UNL     1      -7.657 -10.076   9.807  0.00  0.00    -0.370 OA
ATOM     10  C   UNL     1      -6.220 -10.084   9.791  0.00  0.00    +0.171 C 
ATOM     11  C   UNL     1      -5.768  -8.769   9.188  0.00  0.00    +0.171 C 
ATOM     12  C   UNL     1      -5.680 -10.049  11.202  0.00  0.00    +0.130 C 
ATOM     13  C   UNL     1      -6.966  -8.297   8.396  0.00  0.00    +0.130 C 
ATOM     14  C   UNL     1      -5.676  -8.564  11.519  0.00  0.00    +0.185 C 
ATOM     15  C   UNL     1      -8.127  -8.867   9.192  0.00  0.00    +0.185 C 
BRANCH  13   5
ATOM      3  O   UNL     1      -8.374  -7.265   6.082  0.00  0.00    -0.273 OA
ATOM      5  N   UNL     1      -6.945  -8.823   7.052  0.00  0.00    -0.306 N 
ATOM     16  C   UNL     1      -7.656  -8.257   6.003  0.00  0.00    +0.239 C 
ATOM     31  H   UNL     1      -6.338  -9.616   6.861  0.00  0.00    +0.149 HD
BRANCH  16  18
ATOM     18  C   UNL     1      -7.446  -9.015   4.710  0.00  0.00    +0.255 C 
BRANCH  18   4
ATOM      4  O   UNL     1      -8.382  -8.607   3.736  0.00  0.00    -0.374 OA
ATOM     23  C   UNL     1      -7.762  -7.900   2.665  0.00  0.00    +0.194 C 
ENDBRANCH  18   4
ENDBRANCH  16  18
ENDBRANCH  13   5
ENDBRANCH   6  12
BRANCH  19  22
ATOM     22  C   UNL     1      -4.381 -10.915  15.920  0.00  0.00    +0.002 A 
ATOM     24  C   UNL     1      -5.594 -10.222  15.929  0.00  0.00    +0.029 A 
ATOM     25  C   UNL     1      -3.871 -11.433  17.113  0.00  0.00    +0.010 A 
ATOM     26  C   UNL     1      -6.291 -10.048  17.124  0.00  0.00    +0.052 A 
ATOM     27  C   UNL     1      -4.568 -11.258  18.308  0.00  0.00    +0.002 A 
ATOM     28  C   UNL     1      -5.779 -10.565  18.313  0.00  0.00    +0.019 A 
BRANCH  26  29
ATOM      9  N   UNL     1      -8.541  -8.762  17.135  0.00  0.00    -0.191 NA
ATOM     29  C   UNL     1      -7.532  -9.338  17.130  0.00  0.00    +0.099 C 
ENDBRANCH  26  29
ENDBRANCH  19  22
TORSDOF 6
ENDMDL
MODEL 9
REMARK VINA RESULT:      -6.0     26.748     30.992
REMARK  Name = 11941672
REMARK  7 active torsions:
REMARK  status: ('A' for Active; 'I' for Inactive)
REMARK    1  A    between atoms: O_4  and  C_18
REMARK    2  A    between atoms: O_4  and  C_23
REMARK    3  A    between atoms: N_5  and  C_13
REMARK    4  A    between atoms: N_6  and  C_12
REMARK    5  A    between atoms: C_16  and  C_18
REMARK    6  A    between atoms: C_19  and  C_22
REMARK    7  A    between atoms: C_26  and  C_29
REMARK                            x       y       z     vdW  Elec       q    Type
REMARK                         _______ _______ _______ _____ _____    ______ ____
ROOT
ATOM      6  N   UNL     1      20.279  -1.614  29.270  0.00  0.00    -0.306 N 
ATOM      7  N   UNL     1      19.600  -1.708  27.026  0.00  0.00    -0.214 NA
ATOM      8  N   UNL     1      21.669  -0.641  27.650  0.00  0.00    -0.223 NA
ATOM     17  C   UNL     1      20.523  -1.311  27.942  0.00  0.00    +0.216 A 
ATOM     19  C   UNL     1      19.869  -1.397  25.741  0.00  0.00    +0.076 A 
ATOM     20  C   UNL     1      21.876  -0.363  26.345  0.00  0.00    +0.116 A 
ATOM     21  C   UNL     1      21.003  -0.720  25.338  0.00  0.00    +0.048 A 
ATOM     30  H   UNL     1      20.946  -1.269  29.950  0.00  0.00    +0.149 HD
ENDROOT
BRANCH   6  12
ATOM      1  O   UNL     1      19.205  -2.266  32.099  0.00  0.00    -0.370 OA
ATOM      2  O   UNL     1      16.759  -1.926  30.191  0.00  0.00    -0.370 OA
ATOM     10  C   UNL     1      18.070  -1.336  30.227  0.00  0.00    +0.171 C 
ATOM     11  C   UNL     1      18.431  -1.128  31.684  0.00  0.00    +0.171 C 
ATOM     12  C   UNL     1      19.101  -2.319  29.726  0.00  0.00    +0.130 C 
ATOM     13  C   UNL     1      17.097  -1.113  32.395  0.00  0.00    +0.130 C 
ATOM     14  C   UNL     1      19.422  -3.126  30.972  0.00  0.00    +0.185 C 
ATOM     15  C   UNL     1      16.258  -2.038  31.532  0.00  0.00    +0.185 C 
BRANCH  13   5
ATOM      3  O   UNL     1      17.545   0.925  34.407  0.00  0.00    -0.273 OA
ATOM      5  N   UNL     1      16.540   0.218  32.432  0.00  0.00    -0.306 N 
ATOM     16  C   UNL     1      16.814   1.129  33.442  0.00  0.00    +0.239 C 
ATOM     31  H   UNL     1      15.960   0.513  31.651  0.00  0.00    +0.149 HD
BRANCH  16  18
ATOM     18  C   UNL     1      16.096   2.442  33.223  0.00  0.00    +0.255 C 
BRANCH  18   4
ATOM      4  O   UNL     1      16.278   2.896  31.899  0.00  0.00    -0.374 OA
ATOM     23  C   UNL     1      16.897   4.179  31.857  0.00  0.00    +0.194 C 
ENDBRANCH  18   4
ENDBRANCH  16  18
ENDBRANCH  13   5
ENDBRANCH   6  12
BRANCH  19  22
ATOM     22  C   UNL     1      18.877  -1.825  24.786  0.00  0.00    +0.002 A 
ATOM     24  C   UNL     1      18.811  -3.164  24.392  0.00  0.00    +0.029 A 
ATOM     25  C   UNL     1      17.975  -0.902  24.251  0.00  0.00    +0.010 A 
ATOM     26  C   UNL     1      17.851  -3.576  23.469  0.00  0.00    +0.052 A 
ATOM     27  C   UNL     1      17.015  -1.314  23.328  0.00  0.00    +0.002 A 
ATOM     28  C   UNL     1      16.952  -2.652  22.937  0.00  0.00    +0.019 A 
BRANCH  26  29
ATOM      9  N   UNL     1      17.732  -6.061  22.743  0.00  0.00    -0.191 NA
ATOM     29  C   UNL     1      17.785  -4.947  23.069  0.00  0.00    +0.099 C 
ENDBRANCH  26  29
ENDBRANCH  19  22
TORSDOF 6
ENDMDL
MODEL 10
REMARK VINA RESULT:      -5.9     23.668     26.359
REMARK  Name = 11941672
REMARK  7 active torsions:
REMARK  status: ('A' for Active; 'I' for Inactive)
REMARK    1  A    between atoms: O_4  and  C_18
REMARK    2  A    between atoms: O_4  and  C_23
REMARK    3  A    between atoms: N_5  and  C_13
REMARK    4  A    between atoms: N_6  and  C_12
REMARK    5  A    between atoms: C_16  and  C_18
REMARK    6  A    between atoms: C_19  and  C_22
REMARK    7  A    between atoms: C_26  and  C_29
REMARK                            x       y       z     vdW  Elec       q    Type
REMARK                         _______ _______ _______ _____ _____    ______ ____
ROOT
ATOM      6  N   UNL     1      12.383   5.355   2.915  0.00  0.00    -0.306 N 
ATOM      7  N   UNL     1      12.138   4.525   0.734  0.00  0.00    -0.214 NA
ATOM      8  N   UNL     1      14.317   4.736   1.741  0.00  0.00    -0.223 NA
ATOM     17  C   UNL     1      12.964   4.858   1.761  0.00  0.00    +0.216 A 
ATOM     19  C   UNL     1      12.738   4.043  -0.375  0.00  0.00    +0.076 A 
ATOM     20  C   UNL     1      14.851   4.247   0.601  0.00  0.00    +0.116 A 
ATOM     21  C   UNL     1      14.103   3.881  -0.499  0.00  0.00    +0.048 A 
ATOM     30  H   UNL     1      13.010   5.648   3.655  0.00  0.00    +0.149 HD
ENDROOT
BRANCH   6  12
ATOM      1  O   UNL     1      10.465   4.802   5.281  0.00  0.00    -0.370 OA
ATOM      2  O   UNL     1       9.360   7.250   3.691  0.00  0.00    -0.370 OA
ATOM     10  C   UNL     1      10.686   6.752   3.935  0.00  0.00    +0.171 C 
ATOM     11  C   UNL     1      10.713   6.216   5.353  0.00  0.00    +0.171 C 
ATOM     12  C   UNL     1      10.957   5.540   3.076  0.00  0.00    +0.130 C 
ATOM     13  C   UNL     1       9.558   6.918   6.032  0.00  0.00    +0.130 C 
ATOM     14  C   UNL     1      10.372   4.409   3.904  0.00  0.00    +0.185 C 
ATOM     15  C   UNL     1       8.580   7.117   4.889  0.00  0.00    +0.185 C 
BRANCH  13   5
ATOM      3  O   UNL     1       8.606   8.152   8.476  0.00  0.00    -0.273 OA
ATOM      5  N   UNL     1       9.972   8.182   6.593  0.00  0.00    -0.306 N 
ATOM     16  C   UNL     1       9.456   8.694   7.775  0.00  0.00    +0.239 C 
ATOM     31  H   UNL     1      10.714   8.692   6.121  0.00  0.00    +0.149 HD
BRANCH  16  18
ATOM     18  C   UNL     1      10.072  10.032   8.123  0.00  0.00    +0.255 C 
BRANCH  18   4
ATOM      4  O   UNL     1       9.278  10.715   9.069  0.00  0.00    -0.374 OA
ATOM     23  C   UNL     1      10.072  11.382  10.047  0.00  0.00    +0.194 C 
ENDBRANCH  18   4
ENDBRANCH  16  18
ENDBRANCH  13   5
ENDBRANCH   6  12
BRANCH  19  22
ATOM     22  C   UNL     1      11.844   3.698  -1.454  0.00  0.00    +0.002 A 
ATOM     24  C   UNL     1      10.823   4.575  -1.828  0.00  0.00    +0.029 A 
ATOM     25  C   UNL     1      11.998   2.485  -2.130  0.00  0.00    +0.010 A 
ATOM     26  C   UNL     1       9.961   4.240  -2.872  0.00  0.00    +0.052 A 
ATOM     27  C   UNL     1      11.136   2.150  -3.173  0.00  0.00    +0.002 A 
ATOM     28  C   UNL     1      10.117   3.029  -3.545  0.00  0.00    +0.019 A 
BRANCH  26  29
ATOM      9  N   UNL     1       8.069   5.870  -3.565  0.00  0.00    -0.191 NA
ATOM     29  C   UNL     1       8.917   5.139  -3.254  0.00  0.00    +0.099 C 
ENDBRANCH  26  29
ENDBRANCH  19  22
TORSDOF 6
ENDMDL
