REMARK  Name = 28990957
REMARK  10 active torsions:
REMARK  status: ('A' for Active; 'I' for Inactive)
REMARK    1  A    between atoms: N_3  and  C_19
REMARK    2  A    between atoms: N_4  and  C_14
REMARK    3  A    between atoms: N_4  and  C_18
REMARK    4  A    between atoms: N_6  and  C_29
REMARK    5  A    between atoms: N_6  and  C_30
REMARK    6  A    between atoms: N_6  and  C_31
REMARK    7  A    between atoms: C_8  and  C_15
REMARK    8  A    between atoms: C_9  and  C_14
REMARK    9  A    between atoms: C_17  and  C_20
REMARK   10  A    between atoms: C_18  and  C_21
REMARK                            x       y       z     vdW  Elec       q    Type
REMARK                         _______ _______ _______ _____ _____    ______ ____
ROOT
ATOM      2  N   UNL     1       1.519   3.639  -0.526  0.00  0.00    -0.298 NA
ATOM      7  C   UNL     1       2.204   2.294   1.596  0.00  0.00    +0.002 C 
ATOM      8  C   UNL     1       3.176   1.990   0.422  0.00  0.00    +0.055 C 
ATOM      9  C   UNL     1       0.336   2.931   0.031  0.00  0.00    +0.071 C 
ATOM     10  C   UNL     1       0.760   1.968   1.161  0.00  0.00    +0.024 C 
ATOM     11  C   UNL     1       2.270   3.816   1.846  0.00  0.00    +0.019 C 
ATOM     12  C   UNL     1       2.589   2.664  -0.851  0.00  0.00    +0.094 C 
ATOM     13  C   UNL     1       2.032   4.558   0.519  0.00  0.00    +0.085 C 
ENDROOT
BRANCH   8  15
ATOM      3  N   UNL     1       4.784   0.182  -0.343  0.00  0.00    -0.270 N 
ATOM      5  N   UNL     1       4.942  -1.145  -0.483  0.00  0.00    -0.171 NA
ATOM     15  C   UNL     1       3.576   0.542   0.177  0.00  0.00    +0.044 A 
ATOM     16  C   UNL     1       2.896  -0.631   0.393  0.00  0.00    +0.053 A 
ATOM     17  C   UNL     1       3.785  -1.637  -0.031  0.00  0.00    +0.100 A 
ATOM     19  C   UNL     1       5.858   1.065  -0.737  0.00  0.00    +0.172 C 
BRANCH  17  20
ATOM      1  S   UNL     1       4.638  -4.267  -0.530  0.00  0.00    -0.095 S 
ATOM     20  C   UNL     1       3.517  -3.086  -0.000  0.00  0.00    +0.039 A 
ATOM     22  C   UNL     1       2.346  -3.651   0.454  0.00  0.00    +0.018 A 
ATOM     25  C   UNL     1       2.370  -5.073   0.366  0.00  0.00    +0.008 A 
ATOM     26  C   UNL     1       3.557  -5.540  -0.152  0.00  0.00    +0.046 A 
ENDBRANCH  17  20
ENDBRANCH   8  15
BRANCH   9  14
ATOM     14  C   UNL     1      -0.478   2.218  -1.051  0.00  0.00    +0.100 C 
BRANCH  14   4
ATOM      4  N   UNL     1      -1.701   1.663  -0.494  0.00  0.00    -0.311 NA
ATOM     32  H   UNL     1      -2.260   2.412  -0.086  0.00  0.00    +0.122 HD
BRANCH   4  18
ATOM     18  C   UNL     1      -2.476   0.973  -1.517  0.00  0.00    +0.116 C 
BRANCH  18  21
ATOM     21  C   UNL     1      -3.740   0.378  -0.957  0.00  0.00    -0.033 A 
ATOM     23  C   UNL     1      -3.684  -0.795  -0.203  0.00  0.00    +0.007 A 
ATOM     24  C   UNL     1      -4.968   0.998  -1.191  0.00  0.00    +0.007 A 
ATOM     27  C   UNL     1      -4.855  -1.347   0.317  0.00  0.00    +0.023 A 
ATOM     28  C   UNL     1      -6.139   0.446  -0.672  0.00  0.00    +0.023 A 
ATOM     29  C   UNL     1      -6.082  -0.726   0.082  0.00  0.00    +0.029 A 
BRANCH  29   6
ATOM      6  N   UNL     1      -7.266  -1.284   0.607  0.00  0.00    -0.336 N 
ATOM     30  C   UNL     1      -7.219  -2.502   1.392  0.00  0.00    +0.129 C 
ATOM     31  C   UNL     1      -8.546  -0.643   0.375  0.00  0.00    +0.129 C 
ENDBRANCH  29   6
ENDBRANCH  18  21
ENDBRANCH   4  18
ENDBRANCH  14   4
ENDBRANCH   9  14
TORSDOF 7
