MODEL 1
REMARK VINA RESULT:      -7.1      0.000      0.000
REMARK  Name = 45784152
REMARK  10 active torsions:
REMARK  status: ('A' for Active; 'I' for Inactive)
REMARK    1  A    between atoms: N_3  and  C_15
REMARK    2  A    between atoms: N_5  and  C_24
REMARK    3  A    between atoms: C_8  and  C_12
REMARK    4  A    between atoms: C_9  and  C_15
REMARK    5  A    between atoms: C_11  and  C_16
REMARK    6  A    between atoms: C_12  and  C_17
REMARK    7  A    between atoms: C_12  and  C_18
REMARK    8  A    between atoms: C_13  and  C_19
REMARK    9  A    between atoms: C_16  and  C_20
REMARK   10  A    between atoms: C_22  and  C_23
REMARK                            x       y       z     vdW  Elec       q    Type
REMARK                         _______ _______ _______ _____ _____    ______ ____
ROOT
ATOM      8  C   UNL     1      -6.453 -11.180  16.375  0.00  0.00    +0.000 C 
ATOM      9  C   UNL     1      -6.933 -11.279  17.844  0.00  0.00    +0.032 C 
ATOM     10  C   UNL     1      -5.385 -12.246  16.086  0.00  0.00    +0.012 C 
ATOM     11  C   UNL     1      -4.160 -12.108  17.010  0.00  0.00    +0.024 C 
ATOM     13  C   UNL     1      -4.565 -11.931  18.460  0.00  0.00    -0.073 C 
ATOM     14  C   UNL     1      -5.812 -11.573  18.813  0.00  0.00    -0.022 C 
ATOM     19  C   UNL     1      -3.514 -12.218  19.496  0.00  0.00    +0.039 C 
ENDROOT
BRANCH   8  12
ATOM     12  C   UNL     1      -7.613 -11.329  15.387  0.00  0.00    -0.013 C 
ATOM     17  C   UNL     1      -7.437 -12.587  14.543  0.00  0.00    +0.007 C 
ATOM     18  C   UNL     1      -7.719 -10.093  14.499  0.00  0.00    +0.007 C 
ENDBRANCH   8  12
BRANCH   9  15
ATOM     15  C   UNL     1      -7.660 -10.001  18.276  0.00  0.00    +0.113 C 
BRANCH  15   3
ATOM      2  O   UNL     1     -10.502 -10.187  17.973  0.00  0.00    -0.253 OA
ATOM      3  N   UNL     1      -8.612 -10.282  19.304  0.00  0.00    -0.299 N 
ATOM      5  N   UNL     1     -10.678 -10.649  20.268  0.00  0.00    -0.269 N 
ATOM     21  C   UNL     1      -9.999 -10.359  19.080  0.00  0.00    +0.304 C 
ATOM     34  H   UNL     1      -8.269 -10.505  20.233  0.00  0.00    +0.150 HD
ATOM     35  H   UNL     1     -10.109 -10.760  21.103  0.00  0.00    +0.156 HD
BRANCH   5  24
ATOM     24  C   UNL     1     -12.071 -10.806  20.454  0.00  0.00    +0.035 A 
ATOM     27  C   UNL     1     -12.891  -9.683  20.561  0.00  0.00    +0.023 A 
ATOM     28  C   UNL     1     -12.626 -12.084  20.531  0.00  0.00    +0.023 A 
ATOM     31  C   UNL     1     -14.266  -9.837  20.745  0.00  0.00    +0.002 A 
ATOM     32  C   UNL     1     -14.000 -12.238  20.714  0.00  0.00    +0.002 A 
ATOM     33  C   UNL     1     -14.819 -11.114  20.822  0.00  0.00    +0.000 A 
ENDBRANCH   5  24
ENDBRANCH  15   3
ENDBRANCH   9  15
BRANCH  11  16
ATOM     16  C   UNL     1      -3.248 -10.965  16.551  0.00  0.00    +0.105 C 
BRANCH  16  20
ATOM      1  O   UNL     1      -3.698 -10.362  14.229  0.00  0.00    -0.420 OA
ATOM      4  N   UNL     1      -1.983 -11.773  14.493  0.00  0.00    -0.112 NA
ATOM      6  N   UNL     1      -2.124 -11.520  13.141  0.00  0.00    -0.107 NA
ATOM     20  C   UNL     1      -2.922 -11.077  15.089  0.00  0.00    +0.218 A 
ATOM     22  C   UNL     1      -3.137 -10.692  13.035  0.00  0.00    +0.248 A 
BRANCH  22  23
ATOM      7  N   UNL     1      -4.889  -8.926   9.615  0.00  0.00    -0.263 NA
ATOM     23  C   UNL     1      -3.731 -10.092  11.876  0.00  0.00    +0.041 A 
ATOM     25  C   UNL     1      -2.949  -9.798  10.763  0.00  0.00    +0.033 A 
ATOM     26  C   UNL     1      -5.091  -9.804  11.858  0.00  0.00    +0.033 A 
ATOM     29  C   UNL     1      -3.571  -9.220   9.668  0.00  0.00    +0.111 A 
ATOM     30  C   UNL     1      -5.617  -9.226  10.714  0.00  0.00    +0.111 A 
ENDBRANCH  22  23
ENDBRANCH  16  20
ENDBRANCH  11  16
TORSDOF 7
ENDMDL
MODEL 2
REMARK VINA RESULT:      -7.1      4.514      8.537
REMARK  Name = 45784152
REMARK  10 active torsions:
REMARK  status: ('A' for Active; 'I' for Inactive)
REMARK    1  A    between atoms: N_3  and  C_15
REMARK    2  A    between atoms: N_5  and  C_24
REMARK    3  A    between atoms: C_8  and  C_12
REMARK    4  A    between atoms: C_9  and  C_15
REMARK    5  A    between atoms: C_11  and  C_16
REMARK    6  A    between atoms: C_12  and  C_17
REMARK    7  A    between atoms: C_12  and  C_18
REMARK    8  A    between atoms: C_13  and  C_19
REMARK    9  A    between atoms: C_16  and  C_20
REMARK   10  A    between atoms: C_22  and  C_23
REMARK                            x       y       z     vdW  Elec       q    Type
REMARK                         _______ _______ _______ _____ _____    ______ ____
ROOT
ATOM      8  C   UNL     1      -5.015 -10.030  10.336  0.00  0.00    +0.000 C 
ATOM      9  C   UNL     1      -6.087  -8.967  10.682  0.00  0.00    +0.032 C 
ATOM     10  C   UNL     1      -4.402  -9.745   8.956  0.00  0.00    +0.012 C 
ATOM     11  C   UNL     1      -5.463  -9.739   7.838  0.00  0.00    +0.024 C 
ATOM     13  C   UNL     1      -6.680  -8.921   8.221  0.00  0.00    -0.073 C 
ATOM     14  C   UNL     1      -6.935  -8.575   9.494  0.00  0.00    -0.022 C 
ATOM     19  C   UNL     1      -7.574  -8.473   7.098  0.00  0.00    +0.039 C 
ENDROOT
BRANCH   8  12
ATOM     12  C   UNL     1      -3.907 -10.085  11.392  0.00  0.00    -0.013 C 
ATOM     17  C   UNL     1      -2.588  -9.594  10.808  0.00  0.00    +0.007 C 
ATOM     18  C   UNL     1      -3.762 -11.503  11.938  0.00  0.00    +0.007 C 
ENDBRANCH   8  12
BRANCH   9  15
ATOM     15  C   UNL     1      -6.993  -9.447  11.821  0.00  0.00    +0.113 C 
BRANCH  15   3
ATOM      2  O   UNL     1      -6.781 -11.216  14.063  0.00  0.00    -0.253 OA
ATOM      3  N   UNL     1      -6.409  -9.150  13.092  0.00  0.00    -0.299 N 
ATOM      5  N   UNL     1      -5.716  -9.505  15.265  0.00  0.00    -0.269 N 
ATOM     21  C   UNL     1      -6.340 -10.074  14.151  0.00  0.00    +0.304 C 
ATOM     34  H   UNL     1      -5.960  -8.249  13.219  0.00  0.00    +0.150 HD
ATOM     35  H   UNL     1      -5.409  -8.540  15.173  0.00  0.00    +0.156 HD
BRANCH   5  24
ATOM     24  C   UNL     1      -5.459 -10.109  16.518  0.00  0.00    +0.035 A 
ATOM     27  C   UNL     1      -6.412 -10.038  17.535  0.00  0.00    +0.023 A 
ATOM     28  C   UNL     1      -4.253 -10.775  16.738  0.00  0.00    +0.023 A 
ATOM     31  C   UNL     1      -6.159 -10.634  18.771  0.00  0.00    +0.002 A 
ATOM     32  C   UNL     1      -4.001 -11.371  17.973  0.00  0.00    +0.002 A 
ATOM     33  C   UNL     1      -4.954 -11.300  18.990  0.00  0.00    +0.000 A 
ENDBRANCH   5  24
ENDBRANCH  15   3
ENDBRANCH   9  15
BRANCH  11  16
ATOM     16  C   UNL     1      -5.860 -11.167   7.448  0.00  0.00    +0.105 C 
BRANCH  16  20
ATOM      1  O   UNL     1      -4.137 -12.219   6.078  0.00  0.00    -0.420 OA
ATOM      4  N   UNL     1      -5.808 -11.307   4.905  0.00  0.00    -0.112 NA
ATOM      6  N   UNL     1      -4.912 -11.862   4.011  0.00  0.00    -0.107 NA
ATOM     20  C   UNL     1      -5.316 -11.540   6.099  0.00  0.00    +0.218 A 
ATOM     22  C   UNL     1      -3.953 -12.382   4.740  0.00  0.00    +0.248 A 
BRANCH  22  23
ATOM      7  N   UNL     1      -0.448 -14.454   3.595  0.00  0.00    -0.263 NA
ATOM     23  C   UNL     1      -2.764 -13.084   4.351  0.00  0.00    +0.041 A 
ATOM     25  C   UNL     1      -1.986 -13.723   5.311  0.00  0.00    +0.033 A 
ATOM     26  C   UNL     1      -2.385 -13.129   3.014  0.00  0.00    +0.033 A 
ATOM     29  C   UNL     1      -0.848 -14.389   4.885  0.00  0.00    +0.111 A 
ATOM     30  C   UNL     1      -1.229 -13.821   2.691  0.00  0.00    +0.111 A 
ENDBRANCH  22  23
ENDBRANCH  16  20
ENDBRANCH  11  16
TORSDOF 7
ENDMDL
MODEL 3
REMARK VINA RESULT:      -7.0      4.165      7.349
REMARK  Name = 45784152
REMARK  10 active torsions:
REMARK  status: ('A' for Active; 'I' for Inactive)
REMARK    1  A    between atoms: N_3  and  C_15
REMARK    2  A    between atoms: N_5  and  C_24
REMARK    3  A    between atoms: C_8  and  C_12
REMARK    4  A    between atoms: C_9  and  C_15
REMARK    5  A    between atoms: C_11  and  C_16
REMARK    6  A    between atoms: C_12  and  C_17
REMARK    7  A    between atoms: C_12  and  C_18
REMARK    8  A    between atoms: C_13  and  C_19
REMARK    9  A    between atoms: C_16  and  C_20
REMARK   10  A    between atoms: C_22  and  C_23
REMARK                            x       y       z     vdW  Elec       q    Type
REMARK                         _______ _______ _______ _____ _____    ______ ____
ROOT
ATOM      8  C   UNL     1      -3.150 -12.158  12.241  0.00  0.00    +0.000 C 
ATOM      9  C   UNL     1      -2.119 -11.005  12.151  0.00  0.00    +0.032 C 
ATOM     10  C   UNL     1      -3.736 -12.463  10.854  0.00  0.00    +0.012 C 
ATOM     11  C   UNL     1      -4.430 -11.235  10.233  0.00  0.00    +0.024 C 
ATOM     13  C   UNL     1      -3.576  -9.988  10.348  0.00  0.00    -0.073 C 
ATOM     14  C   UNL     1      -2.540  -9.909  11.201  0.00  0.00    -0.022 C 
ATOM     19  C   UNL     1      -3.914  -8.849   9.426  0.00  0.00    +0.039 C 
ENDROOT
BRANCH   8  12
ATOM     12  C   UNL     1      -2.532 -13.428  12.832  0.00  0.00    -0.013 C 
ATOM     17  C   UNL     1      -2.562 -14.561  11.812  0.00  0.00    +0.007 C 
ATOM     18  C   UNL     1      -3.263 -13.832  14.109  0.00  0.00    +0.007 C 
ENDBRANCH   8  12
BRANCH   9  15
ATOM     15  C   UNL     1      -1.839 -10.405  13.533  0.00  0.00    +0.113 C 
BRANCH  15   3
ATOM      2  O   UNL     1      -2.174 -11.130  16.283  0.00  0.00    -0.253 OA
ATOM      3  N   UNL     1      -3.042 -10.315  14.300  0.00  0.00    -0.299 N 
ATOM      5  N   UNL     1      -4.429 -10.494  16.137  0.00  0.00    -0.269 N 
ATOM     21  C   UNL     1      -3.132 -10.691  15.652  0.00  0.00    +0.304 C 
ATOM     34  H   UNL     1      -3.860  -9.897  13.869  0.00  0.00    +0.150 HD
ATOM     35  H   UNL     1      -5.110 -10.122  15.480  0.00  0.00    +0.156 HD
BRANCH   5  24
ATOM     24  C   UNL     1      -4.916 -10.750  17.440  0.00  0.00    +0.035 A 
ATOM     27  C   UNL     1      -4.199 -11.578  18.303  0.00  0.00    +0.023 A 
ATOM     28  C   UNL     1      -6.115 -10.174  17.862  0.00  0.00    +0.023 A 
ATOM     31  C   UNL     1      -4.680 -11.831  19.588  0.00  0.00    +0.002 A 
ATOM     32  C   UNL     1      -6.596 -10.426  19.147  0.00  0.00    +0.002 A 
ATOM     33  C   UNL     1      -5.878 -11.256  20.010  0.00  0.00    +0.000 A 
ENDBRANCH   5  24
ENDBRANCH  15   3
ENDBRANCH   9  15
BRANCH  11  16
ATOM     16  C   UNL     1      -5.814 -11.012  10.851  0.00  0.00    +0.105 C 
BRANCH  16  20
ATOM      1  O   UNL     1      -7.314  -9.262  10.048  0.00  0.00    -0.420 OA
ATOM      4  N   UNL     1      -7.241 -11.076   8.741  0.00  0.00    -0.112 NA
ATOM      6  N   UNL     1      -8.121 -10.174   8.172  0.00  0.00    -0.107 NA
ATOM     20  C   UNL     1      -6.794 -10.501   9.833  0.00  0.00    +0.218 A 
ATOM     22  C   UNL     1      -8.132  -9.132   8.969  0.00  0.00    +0.248 A 
BRANCH  22  23
ATOM      7  N   UNL     1     -10.277  -5.496   8.701  0.00  0.00    -0.263 NA
ATOM     23  C   UNL     1      -8.859  -7.899   8.879  0.00  0.00    +0.041 A 
ATOM     25  C   UNL     1      -8.248  -6.764   8.356  0.00  0.00    +0.033 A 
ATOM     26  C   UNL     1     -10.179  -7.832   9.314  0.00  0.00    +0.033 A 
ATOM     29  C   UNL     1      -8.993  -5.598   8.289  0.00  0.00    +0.111 A 
ATOM     30  C   UNL     1     -10.838  -6.619   9.204  0.00  0.00    +0.111 A 
ENDBRANCH  22  23
ENDBRANCH  16  20
ENDBRANCH  11  16
TORSDOF 7
ENDMDL
MODEL 4
REMARK VINA RESULT:      -6.9     27.474     30.775
REMARK  Name = 45784152
REMARK  10 active torsions:
REMARK  status: ('A' for Active; 'I' for Inactive)
REMARK    1  A    between atoms: N_3  and  C_15
REMARK    2  A    between atoms: N_5  and  C_24
REMARK    3  A    between atoms: C_8  and  C_12
REMARK    4  A    between atoms: C_9  and  C_15
REMARK    5  A    between atoms: C_11  and  C_16
REMARK    6  A    between atoms: C_12  and  C_17
REMARK    7  A    between atoms: C_12  and  C_18
REMARK    8  A    between atoms: C_13  and  C_19
REMARK    9  A    between atoms: C_16  and  C_20
REMARK   10  A    between atoms: C_22  and  C_23
REMARK                            x       y       z     vdW  Elec       q    Type
REMARK                         _______ _______ _______ _____ _____    ______ ____
ROOT
ATOM      8  C   UNL     1      13.661   9.517  21.167  0.00  0.00    +0.000 C 
ATOM      9  C   UNL     1      14.415   8.195  21.458  0.00  0.00    +0.032 C 
ATOM     10  C   UNL     1      12.299   9.524  21.877  0.00  0.00    +0.012 C 
ATOM     11  C   UNL     1      11.407   8.347  21.438  0.00  0.00    +0.024 C 
ATOM     13  C   UNL     1      12.165   7.034  21.442  0.00  0.00    -0.073 C 
ATOM     14  C   UNL     1      13.508   6.987  21.465  0.00  0.00    -0.022 C 
ATOM     19  C   UNL     1      11.341   5.777  21.465  0.00  0.00    +0.039 C 
ENDROOT
BRANCH   8  12
ATOM     12  C   UNL     1      14.475  10.741  21.596  0.00  0.00    -0.013 C 
ATOM     17  C   UNL     1      14.653  10.760  23.110  0.00  0.00    +0.007 C 
ATOM     18  C   UNL     1      13.801  12.023  21.115  0.00  0.00    +0.007 C 
ENDBRANCH   8  12
BRANCH   9  15
ATOM     15  C   UNL     1      15.553   7.975  20.455  0.00  0.00    +0.113 C 
BRANCH  15   3
ATOM      2  O   UNL     1      17.821   6.294  19.971  0.00  0.00    -0.253 OA
ATOM      3  N   UNL     1      16.823   8.046  21.106  0.00  0.00    -0.299 N 
ATOM      5  N   UNL     1      19.007   7.489  21.607  0.00  0.00    -0.269 N 
ATOM     21  C   UNL     1      17.896   7.184  20.815  0.00  0.00    +0.304 C 
ATOM     34  H   UNL     1      16.987   8.800  21.767  0.00  0.00    +0.150 HD
ATOM     35  H   UNL     1      18.902   8.259  22.262  0.00  0.00    +0.156 HD
BRANCH   5  24
ATOM     24  C   UNL     1      20.271   6.854  21.611  0.00  0.00    +0.035 A 
ATOM     27  C   UNL     1      20.663   6.089  22.709  0.00  0.00    +0.023 A 
ATOM     28  C   UNL     1      21.125   6.991  20.516  0.00  0.00    +0.023 A 
ATOM     31  C   UNL     1      21.909   5.462  22.713  0.00  0.00    +0.002 A 
ATOM     32  C   UNL     1      22.371   6.364  20.520  0.00  0.00    +0.002 A 
ATOM     33  C   UNL     1      22.762   5.599  21.619  0.00  0.00    +0.000 A 
ENDBRANCH   5  24
ENDBRANCH  15   3
ENDBRANCH   9  15
BRANCH  11  16
ATOM     16  C   UNL     1      10.777   8.613  20.067  0.00  0.00    +0.105 C 
BRANCH  16  20
ATOM      1  O   UNL     1      12.456   9.494  18.531  0.00  0.00    -0.420 OA
ATOM      4  N   UNL     1      12.080   7.300  18.316  0.00  0.00    -0.112 NA
ATOM      6  N   UNL     1      13.044   7.661  17.393  0.00  0.00    -0.107 NA
ATOM     20  C   UNL     1      11.767   8.401  18.958  0.00  0.00    +0.218 A 
ATOM     22  C   UNL     1      13.231   8.950  17.555  0.00  0.00    +0.248 A 
BRANCH  22  23
ATOM      7  N   UNL     1      15.828  11.620  15.551  0.00  0.00    -0.263 NA
ATOM     23  C   UNL     1      14.111   9.855  16.875  0.00  0.00    +0.041 A 
ATOM     25  C   UNL     1      14.691  10.915  17.564  0.00  0.00    +0.033 A 
ATOM     26  C   UNL     1      14.388   9.678  15.524  0.00  0.00    +0.033 A 
ATOM     29  C   UNL     1      15.535  11.761  16.863  0.00  0.00    +0.111 A 
ATOM     30  C   UNL     1      15.245  10.579  14.913  0.00  0.00    +0.111 A 
ENDBRANCH  22  23
ENDBRANCH  16  20
ENDBRANCH  11  16
TORSDOF 7
ENDMDL
MODEL 5
REMARK VINA RESULT:      -6.9      4.681     11.010
REMARK  Name = 45784152
REMARK  10 active torsions:
REMARK  status: ('A' for Active; 'I' for Inactive)
REMARK    1  A    between atoms: N_3  and  C_15
REMARK    2  A    between atoms: N_5  and  C_24
REMARK    3  A    between atoms: C_8  and  C_12
REMARK    4  A    between atoms: C_9  and  C_15
REMARK    5  A    between atoms: C_11  and  C_16
REMARK    6  A    between atoms: C_12  and  C_17
REMARK    7  A    between atoms: C_12  and  C_18
REMARK    8  A    between atoms: C_13  and  C_19
REMARK    9  A    between atoms: C_16  and  C_20
REMARK   10  A    between atoms: C_22  and  C_23
REMARK                            x       y       z     vdW  Elec       q    Type
REMARK                         _______ _______ _______ _____ _____    ______ ____
ROOT
ATOM      8  C   UNL     1      -6.614  -9.551   9.779  0.00  0.00    +0.000 C 
ATOM      9  C   UNL     1      -5.672  -9.100   8.636  0.00  0.00    +0.032 C 
ATOM     10  C   UNL     1      -6.160  -8.949  11.118  0.00  0.00    +0.012 C 
ATOM     11  C   UNL     1      -4.720  -9.360  11.482  0.00  0.00    +0.024 C 
ATOM     13  C   UNL     1      -3.774  -9.194  10.309  0.00  0.00    -0.073 C 
ATOM     14  C   UNL     1      -4.218  -9.066   9.047  0.00  0.00    -0.022 C 
ATOM     19  C   UNL     1      -2.306  -9.134  10.627  0.00  0.00    +0.039 C 
ENDROOT
BRANCH   8  12
ATOM     12  C   UNL     1      -8.069  -9.160   9.504  0.00  0.00    -0.013 C 
ATOM     17  C   UNL     1      -8.163  -7.687   9.122  0.00  0.00    +0.007 C 
ATOM     18  C   UNL     1      -8.940  -9.459  10.721  0.00  0.00    +0.007 C 
ENDBRANCH   8  12
BRANCH   9  15
ATOM     15  C   UNL     1      -5.834  -9.993   7.401  0.00  0.00    +0.113 C 
BRANCH  15   3
ATOM      2  O   UNL     1      -8.346  -9.603   6.082  0.00  0.00    -0.253 OA
ATOM      3  N   UNL     1      -6.072  -9.204   6.233  0.00  0.00    -0.299 N 
ATOM      5  N   UNL     1      -7.266  -8.230   4.514  0.00  0.00    -0.269 N 
ATOM     21  C   UNL     1      -7.338  -9.057   5.639  0.00  0.00    +0.304 C 
ATOM     34  H   UNL     1      -5.303  -8.665   5.848  0.00  0.00    +0.150 HD
ATOM     35  H   UNL     1      -6.349  -7.858   4.279  0.00  0.00    +0.156 HD
BRANCH   5  24
ATOM     24  C   UNL     1      -8.319  -7.842   3.652  0.00  0.00    +0.035 A 
ATOM     27  C   UNL     1      -9.428  -7.171   4.165  0.00  0.00    +0.023 A 
ATOM     28  C   UNL     1      -8.247  -8.131   2.289  0.00  0.00    +0.023 A 
ATOM     31  C   UNL     1     -10.467  -6.789   3.315  0.00  0.00    +0.002 A 
ATOM     32  C   UNL     1      -9.285  -7.748   1.439  0.00  0.00    +0.002 A 
ATOM     33  C   UNL     1     -10.395  -7.078   1.953  0.00  0.00    +0.000 A 
ENDBRANCH   5  24
ENDBRANCH  15   3
ENDBRANCH   9  15
BRANCH  11  16
ATOM     16  C   UNL     1      -4.675 -10.792  12.026  0.00  0.00    +0.105 C 
BRANCH  16  20
ATOM      1  O   UNL     1      -5.062 -10.788  14.435  0.00  0.00    -0.420 OA
ATOM      4  N   UNL     1      -2.905 -10.896  13.855  0.00  0.00    -0.112 NA
ATOM      6  N   UNL     1      -2.977 -10.902  15.235  0.00  0.00    -0.107 NA
ATOM     20  C   UNL     1      -4.145 -10.829  13.430  0.00  0.00    +0.218 A 
ATOM     22  C   UNL     1      -4.254 -10.837  15.529  0.00  0.00    +0.248 A 
BRANCH  22  23
ATOM      7  N   UNL     1      -6.213 -10.763  19.276  0.00  0.00    -0.263 NA
ATOM     23  C   UNL     1      -4.918 -10.812  16.800  0.00  0.00    +0.041 A 
ATOM     25  C   UNL     1      -6.135 -10.152  16.939  0.00  0.00    +0.033 A 
ATOM     26  C   UNL     1      -4.348 -11.446  17.898  0.00  0.00    +0.033 A 
ATOM     29  C   UNL     1      -6.737 -10.157  18.187  0.00  0.00    +0.111 A 
ATOM     30  C   UNL     1      -5.029 -11.394  19.103  0.00  0.00    +0.111 A 
ENDBRANCH  22  23
ENDBRANCH  16  20
ENDBRANCH  11  16
TORSDOF 7
ENDMDL
MODEL 6
REMARK VINA RESULT:      -6.8     21.587     26.010
REMARK  Name = 45784152
REMARK  10 active torsions:
REMARK  status: ('A' for Active; 'I' for Inactive)
REMARK    1  A    between atoms: N_3  and  C_15
REMARK    2  A    between atoms: N_5  and  C_24
REMARK    3  A    between atoms: C_8  and  C_12
REMARK    4  A    between atoms: C_9  and  C_15
REMARK    5  A    between atoms: C_11  and  C_16
REMARK    6  A    between atoms: C_12  and  C_17
REMARK    7  A    between atoms: C_12  and  C_18
REMARK    8  A    between atoms: C_13  and  C_19
REMARK    9  A    between atoms: C_16  and  C_20
REMARK   10  A    between atoms: C_22  and  C_23
REMARK                            x       y       z     vdW  Elec       q    Type
REMARK                         _______ _______ _______ _____ _____    ______ ____
ROOT
ATOM      8  C   UNL     1     -12.941   7.826  33.107  0.00  0.00    +0.000 C 
ATOM      9  C   UNL     1     -13.006   8.021  34.642  0.00  0.00    +0.032 C 
ATOM     10  C   UNL     1     -14.146   7.007  32.619  0.00  0.00    +0.012 C 
ATOM     11  C   UNL     1     -14.214   5.619  33.285  0.00  0.00    +0.024 C 
ATOM     13  C   UNL     1     -14.016   5.704  34.786  0.00  0.00    -0.073 C 
ATOM     14  C   UNL     1     -13.487   6.791  35.374  0.00  0.00    -0.022 C 
ATOM     19  C   UNL     1     -14.483   4.528  35.597  0.00  0.00    +0.039 C 
ENDROOT
BRANCH   8  12
ATOM     12  C   UNL     1     -12.891   9.165  32.365  0.00  0.00    -0.013 C 
ATOM     17  C   UNL     1     -14.194   9.405  31.609  0.00  0.00    +0.007 C 
ATOM     18  C   UNL     1     -11.699   9.203  31.413  0.00  0.00    +0.007 C 
ENDBRANCH   8  12
BRANCH   9  15
ATOM     15  C   UNL     1     -11.646   8.451  35.203  0.00  0.00    +0.113 C 
BRANCH  15   3
ATOM      2  O   UNL     1      -9.381   8.036  36.906  0.00  0.00    -0.253 OA
ATOM      3  N   UNL     1     -11.648   8.402  36.632  0.00  0.00    -0.299 N 
ATOM      5  N   UNL     1     -10.800   8.196  38.768  0.00  0.00    -0.269 N 
ATOM     21  C   UNL     1     -10.492   8.194  37.404  0.00  0.00    +0.304 C 
ATOM     34  H   UNL     1     -12.517   8.594  37.120  0.00  0.00    +0.150 HD
ATOM     35  H   UNL     1     -11.776   8.339  39.016  0.00  0.00    +0.156 HD
BRANCH   5  24
ATOM     24  C   UNL     1      -9.915   8.020  39.858  0.00  0.00    +0.035 A 
ATOM     27  C   UNL     1     -10.056   6.917  40.699  0.00  0.00    +0.023 A 
ATOM     28  C   UNL     1      -8.901   8.950  40.092  0.00  0.00    +0.023 A 
ATOM     31  C   UNL     1      -9.184   6.743  41.774  0.00  0.00    +0.002 A 
ATOM     32  C   UNL     1      -8.029   8.776  41.166  0.00  0.00    +0.002 A 
ATOM     33  C   UNL     1      -8.171   7.672  42.007  0.00  0.00    +0.000 A 
ENDBRANCH   5  24
ENDBRANCH  15   3
ENDBRANCH   9  15
BRANCH  11  16
ATOM     16  C   UNL     1     -13.207   4.653  32.653  0.00  0.00    +0.105 C 
BRANCH  16  20
ATOM      1  O   UNL     1     -14.385   3.674  30.752  0.00  0.00    -0.420 OA
ATOM      4  N   UNL     1     -14.111   2.277  32.478  0.00  0.00    -0.112 NA
ATOM      6  N   UNL     1     -14.787   1.598  31.481  0.00  0.00    -0.107 NA
ATOM     20  C   UNL     1     -13.897   3.484  32.009  0.00  0.00    +0.218 A 
ATOM     22  C   UNL     1     -14.924   2.452  30.494  0.00  0.00    +0.248 A 
BRANCH  22  23
ATOM      7  N   UNL     1     -16.747   2.000  26.705  0.00  0.00    -0.263 NA
ATOM     23  C   UNL     1     -15.543   2.298  29.210  0.00  0.00    +0.041 A 
ATOM     25  C   UNL     1     -15.658   3.390  28.355  0.00  0.00    +0.033 A 
ATOM     26  C   UNL     1     -16.029   1.058  28.812  0.00  0.00    +0.033 A 
ATOM     29  C   UNL     1     -16.262   3.190  27.125  0.00  0.00    +0.111 A 
ATOM     30  C   UNL     1     -16.617   0.962  27.561  0.00  0.00    +0.111 A 
ENDBRANCH  22  23
ENDBRANCH  16  20
ENDBRANCH  11  16
TORSDOF 7
ENDMDL
MODEL 7
REMARK VINA RESULT:      -6.8     19.862     21.668
REMARK  Name = 45784152
REMARK  10 active torsions:
REMARK  status: ('A' for Active; 'I' for Inactive)
REMARK    1  A    between atoms: N_3  and  C_15
REMARK    2  A    between atoms: N_5  and  C_24
REMARK    3  A    between atoms: C_8  and  C_12
REMARK    4  A    between atoms: C_9  and  C_15
REMARK    5  A    between atoms: C_11  and  C_16
REMARK    6  A    between atoms: C_12  and  C_17
REMARK    7  A    between atoms: C_12  and  C_18
REMARK    8  A    between atoms: C_13  and  C_19
REMARK    9  A    between atoms: C_16  and  C_20
REMARK   10  A    between atoms: C_22  and  C_23
REMARK                            x       y       z     vdW  Elec       q    Type
REMARK                         _______ _______ _______ _____ _____    ______ ____
ROOT
ATOM      8  C   UNL     1     -11.765   9.213  18.226  0.00  0.00    +0.000 C 
ATOM      9  C   UNL     1     -11.319  10.309  19.225  0.00  0.00    +0.032 C 
ATOM     10  C   UNL     1     -10.634   8.898  17.235  0.00  0.00    +0.012 C 
ATOM     11  C   UNL     1     -10.198  10.141  16.435  0.00  0.00    +0.024 C 
ATOM     13  C   UNL     1      -9.996  11.346  17.332  0.00  0.00    -0.073 C 
ATOM     14  C   UNL     1     -10.493  11.397  18.580  0.00  0.00    -0.022 C 
ATOM     19  C   UNL     1      -9.170  12.472  16.776  0.00  0.00    +0.039 C 
ENDROOT
BRANCH   8  12
ATOM     12  C   UNL     1     -12.197   7.931  18.943  0.00  0.00    -0.013 C 
ATOM     17  C   UNL     1     -13.663   8.018  19.354  0.00  0.00    +0.007 C 
ATOM     18  C   UNL     1     -11.310   7.676  20.157  0.00  0.00    +0.007 C 
ENDBRANCH   8  12
BRANCH   9  15
ATOM     15  C   UNL     1     -12.525  10.935  19.934  0.00  0.00    +0.113 C 
BRANCH  15   3
ATOM      2  O   UNL     1     -12.966   9.619  22.439  0.00  0.00    -0.253 OA
ATOM      3  N   UNL     1     -12.157  11.417  21.229  0.00  0.00    -0.299 N 
ATOM      5  N   UNL     1     -11.937  11.427  23.527  0.00  0.00    -0.269 N 
ATOM     21  C   UNL     1     -12.407  10.713  22.421  0.00  0.00    +0.304 C 
ATOM     34  H   UNL     1     -11.629  12.282  21.291  0.00  0.00    +0.150 HD
ATOM     35  H   UNL     1     -11.497  12.324  23.338  0.00  0.00    +0.156 HD
BRANCH   5  24
ATOM     24  C   UNL     1     -11.999  11.056  24.890  0.00  0.00    +0.035 A 
ATOM     27  C   UNL     1     -10.834  10.704  25.571  0.00  0.00    +0.023 A 
ATOM     28  C   UNL     1     -13.227  11.041  25.554  0.00  0.00    +0.023 A 
ATOM     31  C   UNL     1     -10.895  10.338  26.916  0.00  0.00    +0.002 A 
ATOM     32  C   UNL     1     -13.288  10.676  26.899  0.00  0.00    +0.002 A 
ATOM     33  C   UNL     1     -12.122  10.323  27.579  0.00  0.00    +0.000 A 
ENDBRANCH   5  24
ENDBRANCH  15   3
ENDBRANCH   9  15
BRANCH  11  16
ATOM     16  C   UNL     1     -11.193  10.452  15.313  0.00  0.00    +0.105 C 
BRANCH  16  20
ATOM      1  O   UNL     1     -12.890   8.842  14.616  0.00  0.00    -0.420 OA
ATOM      4  N   UNL     1     -10.838   8.400  13.844  0.00  0.00    -0.112 NA
ATOM      6  N   UNL     1     -11.691   7.418  13.377  0.00  0.00    -0.107 NA
ATOM     20  C   UNL     1     -11.581   9.210  14.562  0.00  0.00    +0.218 A 
ATOM     22  C   UNL     1     -12.877   7.716  13.853  0.00  0.00    +0.248 A 
BRANCH  22  23
ATOM      7  N   UNL     1     -16.597   5.759  13.385  0.00  0.00    -0.263 NA
ATOM     23  C   UNL     1     -14.138   7.052  13.694  0.00  0.00    +0.041 A 
ATOM     25  C   UNL     1     -15.140   7.218  14.646  0.00  0.00    +0.033 A 
ATOM     26  C   UNL     1     -14.366   6.239  12.589  0.00  0.00    +0.033 A 
ATOM     29  C   UNL     1     -16.340   6.556  14.446  0.00  0.00    +0.111 A 
ATOM     30  C   UNL     1     -15.601   5.621  12.481  0.00  0.00    +0.111 A 
ENDBRANCH  22  23
ENDBRANCH  16  20
ENDBRANCH  11  16
TORSDOF 7
ENDMDL
MODEL 8
REMARK VINA RESULT:      -6.8     28.891     32.566
REMARK  Name = 45784152
REMARK  10 active torsions:
REMARK  status: ('A' for Active; 'I' for Inactive)
REMARK    1  A    between atoms: N_3  and  C_15
REMARK    2  A    between atoms: N_5  and  C_24
REMARK    3  A    between atoms: C_8  and  C_12
REMARK    4  A    between atoms: C_9  and  C_15
REMARK    5  A    between atoms: C_11  and  C_16
REMARK    6  A    between atoms: C_12  and  C_17
REMARK    7  A    between atoms: C_12  and  C_18
REMARK    8  A    between atoms: C_13  and  C_19
REMARK    9  A    between atoms: C_16  and  C_20
REMARK   10  A    between atoms: C_22  and  C_23
REMARK                            x       y       z     vdW  Elec       q    Type
REMARK                         _______ _______ _______ _____ _____    ______ ____
ROOT
ATOM      8  C   UNL     1      17.768   7.530  21.149  0.00  0.00    +0.000 C 
ATOM      9  C   UNL     1      19.311   7.579  21.025  0.00  0.00    +0.032 C 
ATOM     10  C   UNL     1      17.139   8.772  20.499  0.00  0.00    +0.012 C 
ATOM     11  C   UNL     1      17.640  10.081  21.139  0.00  0.00    +0.024 C 
ATOM     13  C   UNL     1      19.147  10.090  21.298  0.00  0.00    -0.073 C 
ATOM     14  C   UNL     1      19.878   8.964  21.230  0.00  0.00    -0.022 C 
ATOM     19  C   UNL     1      19.799  11.431  21.491  0.00  0.00    +0.039 C 
ENDROOT
BRANCH   8  12
ATOM     12  C   UNL     1      17.186   6.264  20.514  0.00  0.00    -0.013 C 
ATOM     17  C   UNL     1      17.978   5.878  19.270  0.00  0.00    +0.007 C 
ATOM     18  C   UNL     1      15.712   6.466  20.176  0.00  0.00    +0.007 C 
ENDBRANCH   8  12
BRANCH   9  15
ATOM     15  C   UNL     1      19.975   6.604  22.005  0.00  0.00    +0.113 C 
BRANCH  15   3
ATOM      2  O   UNL     1      21.682   4.642  23.204  0.00  0.00    -0.253 OA
ATOM      3  N   UNL     1      21.003   5.853  21.354  0.00  0.00    -0.299 N 
ATOM      5  N   UNL     1      22.720   4.328  21.122  0.00  0.00    -0.269 N 
ATOM     21  C   UNL     1      21.804   4.902  22.010  0.00  0.00    +0.304 C 
ATOM     34  H   UNL     1      21.119   5.960  20.351  0.00  0.00    +0.150 HD
ATOM     35  H   UNL     1      22.692   4.658  20.161  0.00  0.00    +0.156 HD
BRANCH   5  24
ATOM     24  C   UNL     1      23.692   3.338  21.398  0.00  0.00    +0.035 A 
ATOM     27  C   UNL     1      23.437   2.003  21.083  0.00  0.00    +0.023 A 
ATOM     28  C   UNL     1      24.907   3.696  21.984  0.00  0.00    +0.023 A 
ATOM     31  C   UNL     1      24.395   1.026  21.354  0.00  0.00    +0.002 A 
ATOM     32  C   UNL     1      25.865   2.719  22.254  0.00  0.00    +0.002 A 
ATOM     33  C   UNL     1      25.608   1.384  21.940  0.00  0.00    +0.000 A 
ENDBRANCH   5  24
ENDBRANCH  15   3
ENDBRANCH   9  15
BRANCH  11  16
ATOM     16  C   UNL     1      16.945  10.340  22.480  0.00  0.00    +0.105 C 
BRANCH  16  20
ATOM      1  O   UNL     1      14.758   9.279  22.267  0.00  0.00    -0.420 OA
ATOM      4  N   UNL     1      14.700  11.514  22.208  0.00  0.00    -0.112 NA
ATOM      6  N   UNL     1      13.405  11.049  22.078  0.00  0.00    -0.107 NA
ATOM     20  C   UNL     1      15.456  10.446  22.316  0.00  0.00    +0.218 A 
ATOM     22  C   UNL     1      13.487   9.740  22.117  0.00  0.00    +0.248 A 
BRANCH  22  23
ATOM      7  N   UNL     1      10.469   6.788  21.859  0.00  0.00    -0.263 NA
ATOM     23  C   UNL     1      12.463   8.740  22.029  0.00  0.00    +0.041 A 
ATOM     25  C   UNL     1      12.753   7.490  21.492  0.00  0.00    +0.033 A 
ATOM     26  C   UNL     1      11.177   9.014  22.481  0.00  0.00    +0.033 A 
ATOM     29  C   UNL     1      11.730   6.557  21.430  0.00  0.00    +0.111 A 
ATOM     30  C   UNL     1      10.225   8.014  22.375  0.00  0.00    +0.111 A 
ENDBRANCH  22  23
ENDBRANCH  16  20
ENDBRANCH  11  16
TORSDOF 7
ENDMDL
MODEL 9
REMARK VINA RESULT:      -6.8     22.454     26.596
REMARK  Name = 45784152
REMARK  10 active torsions:
REMARK  status: ('A' for Active; 'I' for Inactive)
REMARK    1  A    between atoms: N_3  and  C_15
REMARK    2  A    between atoms: N_5  and  C_24
REMARK    3  A    between atoms: C_8  and  C_12
REMARK    4  A    between atoms: C_9  and  C_15
REMARK    5  A    between atoms: C_11  and  C_16
REMARK    6  A    between atoms: C_12  and  C_17
REMARK    7  A    between atoms: C_12  and  C_18
REMARK    8  A    between atoms: C_13  and  C_19
REMARK    9  A    between atoms: C_16  and  C_20
REMARK   10  A    between atoms: C_22  and  C_23
REMARK                            x       y       z     vdW  Elec       q    Type
REMARK                         _______ _______ _______ _____ _____    ______ ____
ROOT
ATOM      8  C   UNL     1     -12.464   8.329  35.007  0.00  0.00    +0.000 C 
ATOM      9  C   UNL     1     -13.797   7.806  34.416  0.00  0.00    +0.032 C 
ATOM     10  C   UNL     1     -12.223   9.785  34.581  0.00  0.00    +0.012 C 
ATOM     11  C   UNL     1     -12.172   9.942  33.048  0.00  0.00    +0.024 C 
ATOM     13  C   UNL     1     -13.318   9.219  32.370  0.00  0.00    -0.073 C 
ATOM     14  C   UNL     1     -14.041   8.277  33.001  0.00  0.00    -0.022 C 
ATOM     19  C   UNL     1     -13.643   9.636  30.963  0.00  0.00    +0.039 C 
ENDROOT
BRANCH   8  12
ATOM     12  C   UNL     1     -12.442   8.228  36.535  0.00  0.00    -0.013 C 
ATOM     17  C   UNL     1     -12.742   9.584  37.165  0.00  0.00    +0.007 C 
ATOM     18  C   UNL     1     -11.094   7.696  37.014  0.00  0.00    +0.007 C 
ENDBRANCH   8  12
BRANCH   9  15
ATOM     15  C   UNL     1     -13.859   6.275  34.463  0.00  0.00    +0.113 C 
BRANCH  15   3
ATOM      2  O   UNL     1     -14.539   3.580  33.774  0.00  0.00    -0.253 OA
ATOM      3  N   UNL     1     -13.969   5.732  33.145  0.00  0.00    -0.299 N 
ATOM      5  N   UNL     1     -14.341   4.150  31.506  0.00  0.00    -0.269 N 
ATOM     21  C   UNL     1     -14.309   4.393  32.883  0.00  0.00    +0.304 C 
ATOM     34  H   UNL     1     -13.862   6.358  32.354  0.00  0.00    +0.150 HD
ATOM     35  H   UNL     1     -14.122   4.935  30.899  0.00  0.00    +0.156 HD
BRANCH   5  24
ATOM     24  C   UNL     1     -14.640   2.935  30.846  0.00  0.00    +0.035 A 
ATOM     27  C   UNL     1     -15.898   2.742  30.277  0.00  0.00    +0.023 A 
ATOM     28  C   UNL     1     -13.675   1.930  30.762  0.00  0.00    +0.023 A 
ATOM     31  C   UNL     1     -16.193   1.544  29.625  0.00  0.00    +0.002 A 
ATOM     32  C   UNL     1     -13.970   0.733  30.111  0.00  0.00    +0.002 A 
ATOM     33  C   UNL     1     -15.230   0.540  29.542  0.00  0.00    +0.000 A 
ENDBRANCH   5  24
ENDBRANCH  15   3
ENDBRANCH   9  15
BRANCH  11  16
ATOM     16  C   UNL     1     -10.823   9.478  32.491  0.00  0.00    +0.105 C 
BRANCH  16  20
ATOM      1  O   UNL     1      -9.066   9.609  34.180  0.00  0.00    -0.420 OA
ATOM      4  N   UNL     1      -9.169  11.387  32.827  0.00  0.00    -0.112 NA
ATOM      6  N   UNL     1      -8.140  11.593  33.726  0.00  0.00    -0.107 NA
ATOM     20  C   UNL     1      -9.681  10.216  33.129  0.00  0.00    +0.218 A 
ATOM     22  C   UNL     1      -8.117  10.531  34.496  0.00  0.00    +0.248 A 
BRANCH  22  23
ATOM      7  N   UNL     1      -5.593   9.550  37.745  0.00  0.00    -0.263 NA
ATOM     23  C   UNL     1      -7.261  10.197  35.597  0.00  0.00    +0.041 A 
ATOM     25  C   UNL     1      -6.052  10.863  35.768  0.00  0.00    +0.033 A 
ATOM     26  C   UNL     1      -7.636   9.208  36.499  0.00  0.00    +0.033 A 
ATOM     29  C   UNL     1      -5.261  10.506  36.848  0.00  0.00    +0.111 A 
ATOM     30  C   UNL     1      -6.775   8.924  37.547  0.00  0.00    +0.111 A 
ENDBRANCH  22  23
ENDBRANCH  16  20
ENDBRANCH  11  16
TORSDOF 7
ENDMDL
MODEL 10
REMARK VINA RESULT:      -6.7      3.809      6.912
REMARK  Name = 45784152
REMARK  10 active torsions:
REMARK  status: ('A' for Active; 'I' for Inactive)
REMARK    1  A    between atoms: N_3  and  C_15
REMARK    2  A    between atoms: N_5  and  C_24
REMARK    3  A    between atoms: C_8  and  C_12
REMARK    4  A    between atoms: C_9  and  C_15
REMARK    5  A    between atoms: C_11  and  C_16
REMARK    6  A    between atoms: C_12  and  C_17
REMARK    7  A    between atoms: C_12  and  C_18
REMARK    8  A    between atoms: C_13  and  C_19
REMARK    9  A    between atoms: C_16  and  C_20
REMARK   10  A    between atoms: C_22  and  C_23
REMARK                            x       y       z     vdW  Elec       q    Type
REMARK                         _______ _______ _______ _____ _____    ______ ____
ROOT
ATOM      8  C   UNL     1      -3.332 -13.084  12.444  0.00  0.00    +0.000 C 
ATOM      9  C   UNL     1      -1.958 -12.423  12.714  0.00  0.00    +0.032 C 
ATOM     10  C   UNL     1      -3.793 -12.795  11.008  0.00  0.00    +0.012 C 
ATOM     11  C   UNL     1      -3.914 -11.284  10.728  0.00  0.00    +0.024 C 
ATOM     13  C   UNL     1      -2.698 -10.522  11.215  0.00  0.00    -0.073 C 
ATOM     14  C   UNL     1      -1.828 -11.053  12.092  0.00  0.00    -0.022 C 
ATOM     19  C   UNL     1      -2.481  -9.152  10.635  0.00  0.00    +0.039 C 
ENDROOT
BRANCH   8  12
ATOM     12  C   UNL     1      -3.292 -14.597  12.680  0.00  0.00    -0.013 C 
ATOM     17  C   UNL     1      -2.589 -15.298  11.523  0.00  0.00    +0.007 C 
ATOM     18  C   UNL     1      -4.704 -15.144  12.867  0.00  0.00    +0.007 C 
ENDBRANCH   8  12
BRANCH   9  15
ATOM     15  C   UNL     1      -1.674 -12.332  14.218  0.00  0.00    +0.113 C 
BRANCH  15   3
ATOM      2  O   UNL     1      -3.998 -12.687  15.854  0.00  0.00    -0.253 OA
ATOM      3  N   UNL     1      -2.461 -11.301  14.820  0.00  0.00    -0.299 N 
ATOM      5  N   UNL     1      -4.159 -10.355  16.066  0.00  0.00    -0.269 N 
ATOM     21  C   UNL     1      -3.594 -11.552  15.615  0.00  0.00    +0.304 C 
ATOM     34  H   UNL     1      -2.152 -10.339  14.726  0.00  0.00    +0.150 HD
ATOM     35  H   UNL     1      -3.701  -9.495  15.774  0.00  0.00    +0.156 HD
BRANCH   5  24
ATOM     24  C   UNL     1      -5.300 -10.188  16.885  0.00  0.00    +0.035 A 
ATOM     27  C   UNL     1      -5.274 -10.613  18.213  0.00  0.00    +0.023 A 
ATOM     28  C   UNL     1      -6.452  -9.597  16.364  0.00  0.00    +0.023 A 
ATOM     31  C   UNL     1      -6.400 -10.449  19.020  0.00  0.00    +0.002 A 
ATOM     32  C   UNL     1      -7.577  -9.432  17.172  0.00  0.00    +0.002 A 
ATOM     33  C   UNL     1      -7.551  -9.858  18.500  0.00  0.00    +0.000 A 
ENDBRANCH   5  24
ENDBRANCH  15   3
ENDBRANCH   9  15
BRANCH  11  16
ATOM     16  C   UNL     1      -5.200 -10.712  11.335  0.00  0.00    +0.105 C 
BRANCH  16  20
ATOM      1  O   UNL     1      -5.912 -10.315   9.034  0.00  0.00    -0.420 OA
ATOM      4  N   UNL     1      -6.704  -8.829  10.507  0.00  0.00    -0.112 NA
ATOM      6  N   UNL     1      -7.182  -8.487   9.256  0.00  0.00    -0.107 NA
ATOM     20  C   UNL     1      -5.968  -9.902  10.330  0.00  0.00    +0.218 A 
ATOM     22  C   UNL     1      -6.694  -9.382   8.428  0.00  0.00    +0.248 A 
BRANCH  22  23
ATOM      7  N   UNL     1      -7.169  -9.799   4.246  0.00  0.00    -0.263 NA
ATOM     23  C   UNL     1      -6.856  -9.524   7.010  0.00  0.00    +0.041 A 
ATOM     25  C   UNL     1      -7.579  -8.578   6.291  0.00  0.00    +0.033 A 
ATOM     26  C   UNL     1      -6.290 -10.608   6.348  0.00  0.00    +0.033 A 
ATOM     29  C   UNL     1      -7.705  -8.759   4.924  0.00  0.00    +0.111 A 
ATOM     30  C   UNL     1      -6.474 -10.699   4.978  0.00  0.00    +0.111 A 
ENDBRANCH  22  23
ENDBRANCH  16  20
ENDBRANCH  11  16
TORSDOF 7
ENDMDL
