MODEL 1
REMARK VINA RESULT:      -6.9      0.000      0.000
REMARK  Name = 11883062
REMARK  8 active torsions:
REMARK  status: ('A' for Active; 'I' for Inactive)
REMARK    1  A    between atoms: O_3  and  C_15
REMARK    2  A    between atoms: O_4  and  C_20
REMARK    3  A    between atoms: C_10  and  C_18
REMARK    4  A    between atoms: C_12  and  C_20
REMARK    5  A    between atoms: C_12  and  C_21
REMARK    6  A    between atoms: C_13  and  C_23
REMARK    7  A    between atoms: C_23  and  C_24
REMARK    8  A    between atoms: C_31  and  C_32
REMARK                            x       y       z     vdW  Elec       q    Type
REMARK                         _______ _______ _______ _____ _____    ______ ____
ROOT
ATOM      1  S   UNL     1     -11.647 -10.492  19.066  0.00  0.00    -0.057 S 
ATOM      6  O   UNL     1      -7.850  -9.043  16.795  0.00  0.00    -0.270 OA
ATOM      7  N   UNL     1     -10.781  -8.946  17.181  0.00  0.00    -0.229 NA
ATOM      9  N   UNL     1      -9.133 -10.248  18.362  0.00  0.00    -0.261 N 
ATOM     10  C   UNL     1     -14.456  -8.160  16.315  0.00  0.00    -0.019 C 
ATOM     11  C   UNL     1     -14.933  -8.343  17.823  0.00  0.00    +0.011 C 
ATOM     12  C   UNL     1     -16.483  -8.252  18.100  0.00  0.00    +0.021 C 
ATOM     13  C   UNL     1     -12.888  -7.852  16.327  0.00  0.00    +0.054 C 
ATOM     14  C   UNL     1     -15.188  -6.946  15.686  0.00  0.00    +0.010 C 
ATOM     15  C   UNL     1     -17.062  -7.012  17.363  0.00  0.00    +0.123 C 
ATOM     16  C   UNL     1     -14.248  -9.571  18.491  0.00  0.00    +0.049 C 
ATOM     17  C   UNL     1     -16.697  -6.967  15.883  0.00  0.00    +0.032 C 
ATOM     18  C   UNL     1     -14.726  -9.411  15.442  0.00  0.00    +0.012 C 
ATOM     19  C   UNL     1     -12.155  -8.802  17.238  0.00  0.00    +0.058 A 
ATOM     21  C   UNL     1     -16.713  -8.034  19.623  0.00  0.00    +0.016 C 
ATOM     22  C   UNL     1     -12.782  -9.551  18.215  0.00  0.00    +0.015 A 
ATOM     25  C   UNL     1     -10.404  -9.816  18.093  0.00  0.00    +0.165 A 
ATOM     31  C   UNL     1      -7.953  -9.847  17.714  0.00  0.00    +0.250 C 
ATOM     40  H   UNL     1      -9.084 -10.891  19.146  0.00  0.00    +0.157 HD
ENDROOT
BRANCH  31  32
ATOM      2  F   UNL     1      -3.253 -12.141  19.670  0.00  0.00    -0.205 F 
ATOM     32  C   UNL     1      -6.701 -10.458  18.235  0.00  0.00    +0.037 A 
ATOM     33  C   UNL     1      -6.658 -10.864  19.552  0.00  0.00    +0.016 A 
ATOM     34  C   UNL     1      -5.625 -10.597  17.384  0.00  0.00    +0.016 A 
ATOM     35  C   UNL     1      -5.484 -11.438  20.040  0.00  0.00    +0.039 A 
ATOM     36  C   UNL     1      -4.452 -11.171  17.872  0.00  0.00    +0.039 A 
ATOM     37  C   UNL     1      -4.381 -11.591  19.201  0.00  0.00    +0.123 A 
ENDBRANCH  31  32
BRANCH  15   3
ATOM      3  O   UNL     1     -18.484  -6.972  17.487  0.00  0.00    -0.391 OA
ATOM     38  H   UNL     1     -18.782  -7.839  17.804  0.00  0.00    +0.210 HD
ENDBRANCH  15   3
BRANCH  12  20
ATOM     20  C   UNL     1     -17.274  -9.527  17.738  0.00  0.00    +0.165 C 
BRANCH  20   4
ATOM      4  O   UNL     1     -18.312  -9.674  18.680  0.00  0.00    -0.394 OA
ATOM     39  H   UNL     1     -18.830  -8.851  18.690  0.00  0.00    +0.209 HD
ENDBRANCH  20   4
ENDBRANCH  12  20
BRANCH  13  23
ATOM     23  C   UNL     1     -12.238  -7.791  14.938  0.00  0.00    +0.106 C 
BRANCH  23  24
ATOM      5  O   UNL     1     -11.230  -5.685  15.337  0.00  0.00    -0.276 OA
ATOM      8  N   UNL     1     -12.476  -5.884  13.387  0.00  0.00    -0.301 N 
ATOM     24  C   UNL     1     -11.931  -6.360  14.580  0.00  0.00    +0.216 C 
ATOM     26  C   UNL     1     -13.276  -6.674  12.444  0.00  0.00    +0.108 C 
ATOM     27  C   UNL     1     -12.225  -4.502  12.972  0.00  0.00    +0.108 C 
ATOM     28  C   UNL     1     -14.606  -5.984  12.150  0.00  0.00    +0.019 C 
ATOM     29  C   UNL     1     -13.535  -3.770  12.690  0.00  0.00    +0.019 C 
ATOM     30  C   UNL     1     -14.395  -4.542  11.690  0.00  0.00    +0.003 C 
ENDBRANCH  23  24
ENDBRANCH  13  23
TORSDOF 6
ENDMDL
MODEL 2
REMARK VINA RESULT:      -6.9     27.938     31.285
REMARK  Name = 11883062
REMARK  8 active torsions:
REMARK  status: ('A' for Active; 'I' for Inactive)
REMARK    1  A    between atoms: O_3  and  C_15
REMARK    2  A    between atoms: O_4  and  C_20
REMARK    3  A    between atoms: C_10  and  C_18
REMARK    4  A    between atoms: C_12  and  C_20
REMARK    5  A    between atoms: C_12  and  C_21
REMARK    6  A    between atoms: C_13  and  C_23
REMARK    7  A    between atoms: C_23  and  C_24
REMARK    8  A    between atoms: C_31  and  C_32
REMARK                            x       y       z     vdW  Elec       q    Type
REMARK                         _______ _______ _______ _____ _____    ______ ____
ROOT
ATOM      1  S   UNL     1      11.239   3.645   2.398  0.00  0.00    -0.057 S 
ATOM      6  O   UNL     1       9.198   7.035   4.851  0.00  0.00    -0.270 OA
ATOM      7  N   UNL     1      10.118   5.973   2.249  0.00  0.00    -0.229 NA
ATOM      9  N   UNL     1      10.274   4.980   4.439  0.00  0.00    -0.261 N 
ATOM     10  C   UNL     1      11.094   6.059  -1.481  0.00  0.00    -0.019 C 
ATOM     11  C   UNL     1      10.986   4.477  -1.627  0.00  0.00    +0.011 C 
ATOM     12  C   UNL     1      11.416   3.854  -3.012  0.00  0.00    +0.021 C 
ATOM     13  C   UNL     1      10.222   6.498  -0.217  0.00  0.00    +0.054 C 
ATOM     14  C   UNL     1      10.500   6.735  -2.744  0.00  0.00    +0.010 C 
ATOM     15  C   UNL     1      10.773   4.676  -4.164  0.00  0.00    +0.123 C 
ATOM     16  C   UNL     1      11.598   3.749  -0.395  0.00  0.00    +0.049 C 
ATOM     17  C   UNL     1      11.036   6.174  -4.054  0.00  0.00    +0.032 C 
ATOM     18  C   UNL     1      12.552   6.547  -1.294  0.00  0.00    +0.012 C 
ATOM     19  C   UNL     1      10.501   5.612   0.969  0.00  0.00    +0.058 A 
ATOM     21  C   UNL     1      10.858   2.406  -3.110  0.00  0.00    +0.016 C 
ATOM     22  C   UNL     1      11.103   4.374   0.865  0.00  0.00    +0.015 A 
ATOM     25  C   UNL     1      10.462   5.015   3.083  0.00  0.00    +0.165 A 
ATOM     31  C   UNL     1       9.667   5.968   5.230  0.00  0.00    +0.250 C 
ATOM     40  H   UNL     1      10.583   4.112   4.865  0.00  0.00    +0.157 HD
ENDROOT
BRANCH  31  32
ATOM      2  F   UNL     1       9.288   4.777  10.672  0.00  0.00    -0.205 F 
ATOM     32  C   UNL     1       9.566   5.651   6.679  0.00  0.00    +0.037 A 
ATOM     33  C   UNL     1       9.164   6.641   7.550  0.00  0.00    +0.016 A 
ATOM     34  C   UNL     1       9.879   4.377   7.104  0.00  0.00    +0.016 A 
ATOM     35  C   UNL     1       9.069   6.343   8.909  0.00  0.00    +0.039 A 
ATOM     36  C   UNL     1       9.783   4.079   8.463  0.00  0.00    +0.039 A 
ATOM     37  C   UNL     1       9.378   5.063   9.367  0.00  0.00    +0.123 A 
ENDBRANCH  31  32
BRANCH  15   3
ATOM      3  O   UNL     1      11.244   4.219  -5.431  0.00  0.00    -0.391 OA
ATOM     38  H   UNL     1      12.214   4.244  -5.419  0.00  0.00    +0.210 HD
ENDBRANCH  15   3
BRANCH  12  20
ATOM     20  C   UNL     1      12.942   3.728  -3.211  0.00  0.00    +0.165 C 
BRANCH  20   4
ATOM      4  O   UNL     1      13.178   2.609  -4.035  0.00  0.00    -0.394 OA
ATOM     39  H   UNL     1      13.882   2.841  -4.664  0.00  0.00    +0.209 HD
ENDBRANCH  20   4
ENDBRANCH  12  20
BRANCH  13  23
ATOM     23  C   UNL     1      10.335   7.984   0.152  0.00  0.00    +0.106 C 
BRANCH  23  24
ATOM      5  O   UNL     1       8.279   8.481  -0.913  0.00  0.00    -0.276 OA
ATOM      8  N   UNL     1       8.588   9.373   1.210  0.00  0.00    -0.301 N 
ATOM     24  C   UNL     1       8.975   8.630   0.094  0.00  0.00    +0.216 C 
ATOM     26  C   UNL     1       9.375   9.533   2.439  0.00  0.00    +0.108 C 
ATOM     27  C   UNL     1       7.281  10.035   1.227  0.00  0.00    +0.108 C 
ATOM     28  C   UNL     1       9.559  11.010   2.776  0.00  0.00    +0.019 C 
ATOM     29  C   UNL     1       7.427  11.522   1.540  0.00  0.00    +0.019 C 
ATOM     30  C   UNL     1       8.218  11.740   2.829  0.00  0.00    +0.003 C 
ENDBRANCH  23  24
ENDBRANCH  13  23
TORSDOF 6
ENDMDL
MODEL 3
REMARK VINA RESULT:      -6.6      5.424      9.090
REMARK  Name = 11883062
REMARK  8 active torsions:
REMARK  status: ('A' for Active; 'I' for Inactive)
REMARK    1  A    between atoms: O_3  and  C_15
REMARK    2  A    between atoms: O_4  and  C_20
REMARK    3  A    between atoms: C_10  and  C_18
REMARK    4  A    between atoms: C_12  and  C_20
REMARK    5  A    between atoms: C_12  and  C_21
REMARK    6  A    between atoms: C_13  and  C_23
REMARK    7  A    between atoms: C_23  and  C_24
REMARK    8  A    between atoms: C_31  and  C_32
REMARK                            x       y       z     vdW  Elec       q    Type
REMARK                         _______ _______ _______ _____ _____    ______ ____
ROOT
ATOM      1  S   UNL     1      -5.674 -10.960  12.556  0.00  0.00    -0.057 S 
ATOM      6  O   UNL     1      -8.881  -8.388  10.370  0.00  0.00    -0.270 OA
ATOM      7  N   UNL     1      -7.835  -9.572  12.870  0.00  0.00    -0.229 NA
ATOM      9  N   UNL     1      -6.961  -9.729  10.630  0.00  0.00    -0.261 N 
ATOM     10  C   UNL     1      -7.889 -10.731  16.548  0.00  0.00    -0.019 C 
ATOM     11  C   UNL     1      -6.301 -10.825  16.624  0.00  0.00    +0.011 C 
ATOM     12  C   UNL     1      -5.680 -11.403  17.954  0.00  0.00    +0.021 C 
ATOM     13  C   UNL     1      -8.267  -9.743  15.350  0.00  0.00    +0.054 C 
ATOM     14  C   UNL     1      -8.432 -10.128  17.869  0.00  0.00    +0.010 C 
ATOM     15  C   UNL     1      -6.367 -10.727  19.174  0.00  0.00    +0.123 C 
ATOM     16  C   UNL     1      -5.706 -11.455  15.330  0.00  0.00    +0.049 C 
ATOM     17  C   UNL     1      -7.889 -10.798  19.123  0.00  0.00    +0.032 C 
ATOM     18  C   UNL     1      -8.563 -12.105  16.314  0.00  0.00    +0.012 C 
ATOM     19  C   UNL     1      -7.472 -10.064  14.111  0.00  0.00    +0.058 A 
ATOM     21  C   UNL     1      -4.170 -11.033  18.011  0.00  0.00    +0.016 C 
ATOM     22  C   UNL     1      -6.316 -10.819  14.126  0.00  0.00    +0.015 A 
ATOM     25  C   UNL     1      -6.963  -9.985  11.975  0.00  0.00    +0.165 A 
ATOM     31  C   UNL     1      -7.897  -8.963   9.918  0.00  0.00    +0.250 C 
ATOM     40  H   UNL     1      -6.157 -10.119  10.149  0.00  0.00    +0.157 HD
ENDROOT
BRANCH  31  32
ATOM      2  F   UNL     1      -6.896  -8.442   4.449  0.00  0.00    -0.205 F 
ATOM     32  C   UNL     1      -7.630  -8.824   8.462  0.00  0.00    +0.037 A 
ATOM     33  C   UNL     1      -6.683  -9.638   7.879  0.00  0.00    +0.016 A 
ATOM     34  C   UNL     1      -8.340  -7.886   7.742  0.00  0.00    +0.016 A 
ATOM     35  C   UNL     1      -6.434  -9.508   6.513  0.00  0.00    +0.039 A 
ATOM     36  C   UNL     1      -8.091  -7.756   6.376  0.00  0.00    +0.039 A 
ATOM     37  C   UNL     1      -7.137  -8.567   5.761  0.00  0.00    +0.123 A 
ENDBRANCH  31  32
BRANCH  15   3
ATOM      3  O   UNL     1      -5.920 -11.319  20.394  0.00  0.00    -0.391 OA
ATOM     38  H   UNL     1      -5.500 -12.167  20.181  0.00  0.00    +0.210 HD
ENDBRANCH  15   3
BRANCH  12  20
ATOM     20  C   UNL     1      -5.737 -12.941  18.072  0.00  0.00    +0.165 C 
BRANCH  20   4
ATOM      4  O   UNL     1      -4.480 -13.386  18.528  0.00  0.00    -0.394 OA
ATOM     39  H   UNL     1      -4.622 -13.939  19.314  0.00  0.00    +0.209 HD
ENDBRANCH  20   4
ENDBRANCH  12  20
BRANCH  13  23
ATOM     23  C   UNL     1      -9.769  -9.653  15.047  0.00  0.00    +0.106 C 
BRANCH  23  24
ATOM      5  O   UNL     1      -9.672  -7.522  16.076  0.00  0.00    -0.276 OA
ATOM      8  N   UNL     1     -11.341  -7.831  14.490  0.00  0.00    -0.301 N 
ATOM     24  C   UNL     1     -10.249  -8.240  15.256  0.00  0.00    +0.216 C 
ATOM     26  C   UNL     1     -12.020  -8.647  13.475  0.00  0.00    +0.108 C 
ATOM     27  C   UNL     1     -11.868  -6.473  14.639  0.00  0.00    +0.108 C 
ATOM     28  C   UNL     1     -13.520  -8.712  13.748  0.00  0.00    +0.019 C 
ATOM     29  C   UNL     1     -13.365  -6.498  14.935  0.00  0.00    +0.019 C 
ATOM     30  C   UNL     1     -14.122  -7.314  13.889  0.00  0.00    +0.003 C 
ENDBRANCH  23  24
ENDBRANCH  13  23
TORSDOF 6
ENDMDL
MODEL 4
REMARK VINA RESULT:      -6.6     29.241     32.645
REMARK  Name = 11883062
REMARK  8 active torsions:
REMARK  status: ('A' for Active; 'I' for Inactive)
REMARK    1  A    between atoms: O_3  and  C_15
REMARK    2  A    between atoms: O_4  and  C_20
REMARK    3  A    between atoms: C_10  and  C_18
REMARK    4  A    between atoms: C_12  and  C_20
REMARK    5  A    between atoms: C_12  and  C_21
REMARK    6  A    between atoms: C_13  and  C_23
REMARK    7  A    between atoms: C_23  and  C_24
REMARK    8  A    between atoms: C_31  and  C_32
REMARK                            x       y       z     vdW  Elec       q    Type
REMARK                         _______ _______ _______ _____ _____    ______ ____
ROOT
ATOM      1  S   UNL     1      10.553   3.959   2.477  0.00  0.00    -0.057 S 
ATOM      6  O   UNL     1      11.826   6.787   5.949  0.00  0.00    -0.270 OA
ATOM      7  N   UNL     1      12.093   5.932   3.130  0.00  0.00    -0.229 NA
ATOM      9  N   UNL     1      10.664   5.051   4.859  0.00  0.00    -0.261 N 
ATOM     10  C   UNL     1      13.699   5.667  -0.366  0.00  0.00    -0.019 C 
ATOM     11  C   UNL     1      12.348   5.148  -1.033  0.00  0.00    +0.011 C 
ATOM     12  C   UNL     1      12.416   4.724  -2.551  0.00  0.00    +0.021 C 
ATOM     13  C   UNL     1      13.318   6.435   0.983  0.00  0.00    +0.054 C 
ATOM     14  C   UNL     1      14.392   6.671  -1.322  0.00  0.00    +0.010 C 
ATOM     15  C   UNL     1      13.181   5.815  -3.353  0.00  0.00    +0.123 C 
ATOM     16  C   UNL     1      11.627   4.110  -0.124  0.00  0.00    +0.049 C 
ATOM     17  C   UNL     1      14.536   6.165  -2.750  0.00  0.00    +0.032 C 
ATOM     18  C   UNL     1      14.689   4.521  -0.044  0.00  0.00    +0.012 C 
ATOM     19  C   UNL     1      12.332   5.641   1.800  0.00  0.00    +0.058 A 
ATOM     21  C   UNL     1      10.972   4.656  -3.123  0.00  0.00    +0.016 C 
ATOM     22  C   UNL     1      11.570   4.614   1.279  0.00  0.00    +0.015 A 
ATOM     25  C   UNL     1      11.179   5.106   3.591  0.00  0.00    +0.165 A 
ATOM     31  C   UNL     1      11.007   5.875   5.943  0.00  0.00    +0.250 C 
ATOM     40  H   UNL     1       9.932   4.355   4.966  0.00  0.00    +0.157 HD
ENDROOT
BRANCH  31  32
ATOM      2  F   UNL     1       8.211   4.888  10.674  0.00  0.00    -0.205 F 
ATOM     32  C   UNL     1      10.263   5.612   7.203  0.00  0.00    +0.037 A 
ATOM     33  C   UNL     1       9.703   6.675   7.878  0.00  0.00    +0.016 A 
ATOM     34  C   UNL     1      10.158   4.313   7.654  0.00  0.00    +0.016 A 
ATOM     35  C   UNL     1       9.003   6.428   9.059  0.00  0.00    +0.039 A 
ATOM     36  C   UNL     1       9.458   4.066   8.835  0.00  0.00    +0.039 A 
ATOM     37  C   UNL     1       8.881   5.124   9.539  0.00  0.00    +0.123 A 
ENDBRANCH  31  32
BRANCH  15   3
ATOM      3  O   UNL     1      13.372   5.402  -4.706  0.00  0.00    -0.391 OA
ATOM     38  H   UNL     1      12.908   6.032  -5.281  0.00  0.00    +0.210 HD
ENDBRANCH  15   3
BRANCH  12  20
ATOM     20  C   UNL     1      13.028   3.328  -2.799  0.00  0.00    +0.165 C 
BRANCH  20   4
ATOM      4  O   UNL     1      12.474   2.820  -3.992  0.00  0.00    -0.394 OA
ATOM     39  H   UNL     1      11.522   3.017  -3.991  0.00  0.00    +0.209 HD
ENDBRANCH  20   4
ENDBRANCH  12  20
BRANCH  13  23
ATOM     23  C   UNL     1      14.522   6.875   1.827  0.00  0.00    +0.106 C 
BRANCH  23  24
ATOM      5  O   UNL     1      14.162   9.140   1.235  0.00  0.00    -0.276 OA
ATOM      8  N   UNL     1      14.613   8.714   3.474  0.00  0.00    -0.301 N 
ATOM     24  C   UNL     1      14.414   8.345   2.143  0.00  0.00    +0.216 C 
ATOM     26  C   UNL     1      14.870   7.787   4.583  0.00  0.00    +0.108 C 
ATOM     27  C   UNL     1      14.528  10.124   3.860  0.00  0.00    +0.108 C 
ATOM     28  C   UNL     1      16.137   8.184   5.338  0.00  0.00    +0.019 C 
ATOM     29  C   UNL     1      15.789  10.565   4.599  0.00  0.00    +0.019 C 
ATOM     30  C   UNL     1      16.085   9.645   5.783  0.00  0.00    +0.003 C 
ENDBRANCH  23  24
ENDBRANCH  13  23
TORSDOF 6
ENDMDL
MODEL 5
REMARK VINA RESULT:      -6.5      6.432     11.640
REMARK  Name = 11883062
REMARK  8 active torsions:
REMARK  status: ('A' for Active; 'I' for Inactive)
REMARK    1  A    between atoms: O_3  and  C_15
REMARK    2  A    between atoms: O_4  and  C_20
REMARK    3  A    between atoms: C_10  and  C_18
REMARK    4  A    between atoms: C_12  and  C_20
REMARK    5  A    between atoms: C_12  and  C_21
REMARK    6  A    between atoms: C_13  and  C_23
REMARK    7  A    between atoms: C_23  and  C_24
REMARK    8  A    between atoms: C_31  and  C_32
REMARK                            x       y       z     vdW  Elec       q    Type
REMARK                         _______ _______ _______ _____ _____    ______ ____
ROOT
ATOM      1  S   UNL     1      -5.065  -9.559  10.150  0.00  0.00    -0.057 S 
ATOM      6  O   UNL     1      -9.562  -8.357  10.027  0.00  0.00    -0.270 OA
ATOM      7  N   UNL     1      -7.228  -9.341  11.554  0.00  0.00    -0.229 NA
ATOM      9  N   UNL     1      -7.377  -8.732   9.228  0.00  0.00    -0.261 N 
ATOM     10  C   UNL     1      -5.333 -10.978  14.487  0.00  0.00    -0.019 C 
ATOM     11  C   UNL     1      -3.934 -10.371  14.025  0.00  0.00    +0.011 C 
ATOM     12  C   UNL     1      -2.657 -10.820  14.834  0.00  0.00    +0.021 C 
ATOM     13  C   UNL     1      -6.493 -10.082  13.851  0.00  0.00    +0.054 C 
ATOM     14  C   UNL     1      -5.444 -10.899  16.032  0.00  0.00    +0.010 C 
ATOM     15  C   UNL     1      -2.956 -10.724  16.357  0.00  0.00    +0.123 C 
ATOM     16  C   UNL     1      -3.760 -10.456  12.481  0.00  0.00    +0.049 C 
ATOM     17  C   UNL     1      -4.231 -11.452  16.767  0.00  0.00    +0.032 C 
ATOM     18  C   UNL     1      -5.523 -12.451  14.049  0.00  0.00    +0.012 C 
ATOM     19  C   UNL     1      -6.234  -9.814  12.391  0.00  0.00    +0.058 A 
ATOM     21  C   UNL     1      -1.492  -9.836  14.529  0.00  0.00    +0.016 C 
ATOM     22  C   UNL     1      -4.996  -9.971  11.801  0.00  0.00    +0.015 A 
ATOM     25  C   UNL     1      -6.728  -9.176  10.349  0.00  0.00    +0.165 A 
ATOM     31  C   UNL     1      -8.727  -8.356   9.130  0.00  0.00    +0.250 C 
ATOM     40  H   UNL     1      -6.769  -8.644   8.419  0.00  0.00    +0.157 HD
ENDROOT
BRANCH  31  32
ATOM      2  F   UNL     1     -10.354  -6.571   4.096  0.00  0.00    -0.205 F 
ATOM     32  C   UNL     1      -9.160  -7.882   7.790  0.00  0.00    +0.037 A 
ATOM     33  C   UNL     1     -10.426  -7.354   7.648  0.00  0.00    +0.016 A 
ATOM     34  C   UNL     1      -8.282  -7.984   6.732  0.00  0.00    +0.016 A 
ATOM     35  C   UNL     1     -10.832  -6.907   6.391  0.00  0.00    +0.039 A 
ATOM     36  C   UNL     1      -8.687  -7.538   5.475  0.00  0.00    +0.039 A 
ATOM     37  C   UNL     1      -9.963  -6.999   5.304  0.00  0.00    +0.123 A 
ENDBRANCH  31  32
BRANCH  15   3
ATOM      3  O   UNL     1      -1.865 -11.245  17.117  0.00  0.00    -0.391 OA
ATOM     38  H   UNL     1      -1.798 -12.196  16.934  0.00  0.00    +0.210 HD
ENDBRANCH  15   3
BRANCH  12  20
ATOM     20  C   UNL     1      -2.125 -12.222  14.465  0.00  0.00    +0.165 C 
BRANCH  20   4
ATOM      4  O   UNL     1      -0.752 -12.260  14.782  0.00  0.00    -0.394 OA
ATOM     39  H   UNL     1      -0.663 -12.195  15.748  0.00  0.00    +0.209 HD
ENDBRANCH  20   4
ENDBRANCH  12  20
BRANCH  13  23
ATOM     23  C   UNL     1      -7.912 -10.618  14.081  0.00  0.00    +0.106 C 
BRANCH  23  24
ATOM      5  O   UNL     1      -8.622  -8.753  15.357  0.00  0.00    -0.276 OA
ATOM      8  N   UNL     1      -8.895 -10.841  16.337  0.00  0.00    -0.301 N 
ATOM     24  C   UNL     1      -8.507  -9.979  15.310  0.00  0.00    +0.216 C 
ATOM     26  C   UNL     1      -8.811 -12.306  16.293  0.00  0.00    +0.108 C 
ATOM     27  C   UNL     1      -9.478 -10.296  17.565  0.00  0.00    +0.108 C 
ATOM     28  C   UNL     1      -8.044 -12.842  17.500  0.00  0.00    +0.019 C 
ATOM     29  C   UNL     1      -8.722 -10.792  18.795  0.00  0.00    +0.019 C 
ATOM     30  C   UNL     1      -8.632 -12.318  18.809  0.00  0.00    +0.003 C 
ENDBRANCH  23  24
ENDBRANCH  13  23
TORSDOF 6
ENDMDL
MODEL 6
REMARK VINA RESULT:      -6.4      3.724      8.819
REMARK  Name = 11883062
REMARK  8 active torsions:
REMARK  status: ('A' for Active; 'I' for Inactive)
REMARK    1  A    between atoms: O_3  and  C_15
REMARK    2  A    between atoms: O_4  and  C_20
REMARK    3  A    between atoms: C_10  and  C_18
REMARK    4  A    between atoms: C_12  and  C_20
REMARK    5  A    between atoms: C_12  and  C_21
REMARK    6  A    between atoms: C_13  and  C_23
REMARK    7  A    between atoms: C_23  and  C_24
REMARK    8  A    between atoms: C_31  and  C_32
REMARK                            x       y       z     vdW  Elec       q    Type
REMARK                         _______ _______ _______ _____ _____    ______ ____
ROOT
ATOM      1  S   UNL     1      -9.605 -12.131  20.053  0.00  0.00    -0.057 S 
ATOM      6  O   UNL     1     -13.130  -9.458  18.601  0.00  0.00    -0.270 OA
ATOM      7  N   UNL     1     -10.400 -10.519  18.191  0.00  0.00    -0.229 NA
ATOM      9  N   UNL     1     -11.944 -10.946  19.991  0.00  0.00    -0.261 N 
ATOM     10  C   UNL     1      -6.860 -10.734  16.675  0.00  0.00    -0.019 C 
ATOM     11  C   UNL     1      -6.643 -12.224  17.194  0.00  0.00    +0.011 C 
ATOM     12  C   UNL     1      -5.220 -12.864  16.959  0.00  0.00    +0.021 C 
ATOM     13  C   UNL     1      -8.433 -10.459  16.612  0.00  0.00    +0.054 C 
ATOM     14  C   UNL     1      -6.282 -10.598  15.243  0.00  0.00    +0.010 C 
ATOM     15  C   UNL     1      -4.774 -12.596  15.494  0.00  0.00    +0.123 C 
ATOM     16  C   UNL     1      -7.180 -12.406  18.644  0.00  0.00    +0.049 C 
ATOM     17  C   UNL     1      -4.862 -11.127  15.098  0.00  0.00    +0.032 C 
ATOM     18  C   UNL     1      -6.189  -9.677  17.586  0.00  0.00    +0.012 C 
ATOM     19  C   UNL     1      -9.116 -10.924  17.872  0.00  0.00    +0.058 A 
ATOM     21  C   UNL     1      -5.323 -14.406  17.137  0.00  0.00    +0.016 C 
ATOM     22  C   UNL     1      -8.544 -11.812  18.760  0.00  0.00    +0.015 A 
ATOM     25  C   UNL     1     -10.758 -11.087  19.323  0.00  0.00    +0.165 A 
ATOM     31  C   UNL     1     -13.039 -10.158  19.603  0.00  0.00    +0.250 C 
ATOM     40  H   UNL     1     -12.007 -11.522  20.824  0.00  0.00    +0.157 HD
ENDROOT
BRANCH  31  32
ATOM      2  F   UNL     1     -17.468 -10.380  22.996  0.00  0.00    -0.205 F 
ATOM     32  C   UNL     1     -14.218 -10.217  20.507  0.00  0.00    +0.037 A 
ATOM     33  C   UNL     1     -15.051  -9.121  20.587  0.00  0.00    +0.016 A 
ATOM     34  C   UNL     1     -14.440 -11.366  21.236  0.00  0.00    +0.016 A 
ATOM     35  C   UNL     1     -16.157  -9.177  21.433  0.00  0.00    +0.039 A 
ATOM     36  C   UNL     1     -15.547 -11.422  22.083  0.00  0.00    +0.039 A 
ATOM     37  C   UNL     1     -16.406 -10.327  22.182  0.00  0.00    +0.123 A 
ENDBRANCH  31  32
BRANCH  15   3
ATOM      3  O   UNL     1      -3.437 -13.050  15.285  0.00  0.00    -0.391 OA
ATOM     38  H   UNL     1      -2.935 -12.327  14.875  0.00  0.00    +0.210 HD
ENDBRANCH  15   3
BRANCH  12  20
ATOM     20  C   UNL     1      -4.137 -12.402  17.958  0.00  0.00    +0.165 C 
BRANCH  20   4
ATOM      4  O   UNL     1      -3.909 -13.455  18.866  0.00  0.00    -0.394 OA
ATOM     39  H   UNL     1      -3.225 -13.169  19.495  0.00  0.00    +0.209 HD
ENDBRANCH  20   4
ENDBRANCH  12  20
BRANCH  13  23
ATOM     23  C   UNL     1      -8.814  -9.013  16.267  0.00  0.00    +0.106 C 
BRANCH  23  24
ATOM      5  O   UNL     1      -9.510  -9.664  14.099  0.00  0.00    -0.276 OA
ATOM      8  N   UNL     1     -10.920  -8.219  15.248  0.00  0.00    -0.301 N 
ATOM     24  C   UNL     1      -9.773  -9.000  15.104  0.00  0.00    +0.216 C 
ATOM     26  C   UNL     1     -11.282  -7.455  16.448  0.00  0.00    +0.108 C 
ATOM     27  C   UNL     1     -11.898  -8.153  14.160  0.00  0.00    +0.108 C 
ATOM     28  C   UNL     1     -11.554  -5.994  16.099  0.00  0.00    +0.019 C 
ATOM     29  C   UNL     1     -12.179  -6.705  13.766  0.00  0.00    +0.019 C 
ATOM     30  C   UNL     1     -12.588  -5.872  14.980  0.00  0.00    +0.003 C 
ENDBRANCH  23  24
ENDBRANCH  13  23
TORSDOF 6
ENDMDL
MODEL 7
REMARK VINA RESULT:      -6.4      5.873     11.137
REMARK  Name = 11883062
REMARK  8 active torsions:
REMARK  status: ('A' for Active; 'I' for Inactive)
REMARK    1  A    between atoms: O_3  and  C_15
REMARK    2  A    between atoms: O_4  and  C_20
REMARK    3  A    between atoms: C_10  and  C_18
REMARK    4  A    between atoms: C_12  and  C_20
REMARK    5  A    between atoms: C_12  and  C_21
REMARK    6  A    between atoms: C_13  and  C_23
REMARK    7  A    between atoms: C_23  and  C_24
REMARK    8  A    between atoms: C_31  and  C_32
REMARK                            x       y       z     vdW  Elec       q    Type
REMARK                         _______ _______ _______ _____ _____    ______ ____
ROOT
ATOM      1  S   UNL     1      -5.217  -9.602  10.198  0.00  0.00    -0.057 S 
ATOM      6  O   UNL     1      -9.647  -8.172  10.239  0.00  0.00    -0.270 OA
ATOM      7  N   UNL     1      -7.296  -9.225  11.691  0.00  0.00    -0.229 NA
ATOM      9  N   UNL     1      -7.525  -8.687   9.354  0.00  0.00    -0.261 N 
ATOM     10  C   UNL     1      -5.348 -10.862  14.590  0.00  0.00    -0.019 C 
ATOM     11  C   UNL     1      -3.945 -10.345  14.043  0.00  0.00    +0.011 C 
ATOM     12  C   UNL     1      -2.654 -10.833  14.808  0.00  0.00    +0.021 C 
ATOM     13  C   UNL     1      -6.491  -9.928  13.977  0.00  0.00    +0.054 C 
ATOM     14  C   UNL     1      -5.382 -10.726  16.134  0.00  0.00    +0.010 C 
ATOM     15  C   UNL     1      -2.875 -10.672  16.338  0.00  0.00    +0.123 C 
ATOM     16  C   UNL     1      -3.849 -10.489  12.496  0.00  0.00    +0.049 C 
ATOM     17  C   UNL     1      -4.165 -11.318  16.832  0.00  0.00    +0.032 C 
ATOM     18  C   UNL     1      -5.634 -12.337  14.213  0.00  0.00    +0.012 C 
ATOM     19  C   UNL     1      -6.288  -9.722  12.498  0.00  0.00    +0.058 A 
ATOM     21  C   UNL     1      -1.457  -9.922  14.415  0.00  0.00    +0.016 C 
ATOM     22  C   UNL     1      -5.090  -9.963  11.857  0.00  0.00    +0.015 A 
ATOM     25  C   UNL     1      -6.846  -9.126  10.459  0.00  0.00    +0.165 A 
ATOM     31  C   UNL     1      -8.857  -8.244   9.306  0.00  0.00    +0.250 C 
ATOM     40  H   UNL     1      -6.953  -8.656   8.516  0.00  0.00    +0.157 HD
ENDROOT
BRANCH  31  32
ATOM      2  F   UNL     1     -10.632  -6.547   4.291  0.00  0.00    -0.205 F 
ATOM     32  C   UNL     1      -9.329  -7.792   7.970  0.00  0.00    +0.037 A 
ATOM     33  C   UNL     1      -8.427  -7.735   6.930  0.00  0.00    +0.016 A 
ATOM     34  C   UNL     1     -10.655  -7.443   7.817  0.00  0.00    +0.016 A 
ATOM     35  C   UNL     1      -8.871  -7.313   5.677  0.00  0.00    +0.039 A 
ATOM     36  C   UNL     1     -11.099  -7.020   6.565  0.00  0.00    +0.039 A 
ATOM     37  C   UNL     1     -10.206  -6.954   5.494  0.00  0.00    +0.123 A 
ENDBRANCH  31  32
BRANCH  15   3
ATOM      3  O   UNL     1      -1.777 -11.223  17.066  0.00  0.00    -0.391 OA
ATOM     38  H   UNL     1      -1.486 -10.564  17.715  0.00  0.00    +0.210 HD
ENDBRANCH  15   3
BRANCH  12  20
ATOM     20  C   UNL     1      -2.212 -12.272  14.464  0.00  0.00    +0.165 C 
BRANCH  20   4
ATOM      4  O   UNL     1      -0.803 -12.296  14.438  0.00  0.00    -0.394 OA
ATOM     39  H   UNL     1      -0.494 -11.462  14.046  0.00  0.00    +0.209 HD
ENDBRANCH  20   4
ENDBRANCH  12  20
BRANCH  13  23
ATOM     23  C   UNL     1      -7.923 -10.381  14.291  0.00  0.00    +0.106 C 
BRANCH  23  24
ATOM      5  O   UNL     1      -8.015  -9.101  16.281  0.00  0.00    -0.276 OA
ATOM      8  N   UNL     1      -9.807  -8.874  14.820  0.00  0.00    -0.301 N 
ATOM     24  C   UNL     1      -8.578  -9.396  15.224  0.00  0.00    +0.216 C 
ATOM     26  C   UNL     1     -10.480  -9.172  13.550  0.00  0.00    +0.108 C 
ATOM     27  C   UNL     1     -10.508  -7.913  15.675  0.00  0.00    +0.108 C 
ATOM     28  C   UNL     1     -11.907  -9.656  13.793  0.00  0.00    +0.019 C 
ATOM     29  C   UNL     1     -11.934  -8.375  15.960  0.00  0.00    +0.019 C 
ATOM     30  C   UNL     1     -12.688  -8.673  14.664  0.00  0.00    +0.003 C 
ENDBRANCH  23  24
ENDBRANCH  13  23
TORSDOF 6
ENDMDL
MODEL 8
REMARK VINA RESULT:      -6.2      9.090     11.979
REMARK  Name = 11883062
REMARK  8 active torsions:
REMARK  status: ('A' for Active; 'I' for Inactive)
REMARK    1  A    between atoms: O_3  and  C_15
REMARK    2  A    between atoms: O_4  and  C_20
REMARK    3  A    between atoms: C_10  and  C_18
REMARK    4  A    between atoms: C_12  and  C_20
REMARK    5  A    between atoms: C_12  and  C_21
REMARK    6  A    between atoms: C_13  and  C_23
REMARK    7  A    between atoms: C_23  and  C_24
REMARK    8  A    between atoms: C_31  and  C_32
REMARK                            x       y       z     vdW  Elec       q    Type
REMARK                         _______ _______ _______ _____ _____    ______ ____
ROOT
ATOM      1  S   UNL     1      -6.325 -10.166   5.458  0.00  0.00    -0.057 S 
ATOM      6  O   UNL     1      -6.908  -8.464   9.752  0.00  0.00    -0.270 OA
ATOM      7  N   UNL     1      -7.906  -8.806   6.989  0.00  0.00    -0.229 NA
ATOM      9  N   UNL     1      -5.860  -9.607   7.978  0.00  0.00    -0.261 N 
ATOM     10  C   UNL     1     -10.105  -8.125   3.895  0.00  0.00    -0.019 C 
ATOM     11  C   UNL     1      -9.717  -9.513   3.216  0.00  0.00    +0.011 C 
ATOM     12  C   UNL     1     -10.263  -9.775   1.760  0.00  0.00    +0.021 C 
ATOM     13  C   UNL     1      -9.839  -8.253   5.465  0.00  0.00    +0.054 C 
ATOM     14  C   UNL     1     -11.614  -7.848   3.675  0.00  0.00    +0.010 C 
ATOM     15  C   UNL     1     -11.772  -9.404   1.704  0.00  0.00    +0.123 C 
ATOM     16  C   UNL     1      -8.201  -9.824   3.383  0.00  0.00    +0.049 C 
ATOM     17  C   UNL     1     -12.066  -8.003   2.229  0.00  0.00    +0.032 C 
ATOM     18  C   UNL     1      -9.292  -6.933   3.332  0.00  0.00    +0.012 C 
ATOM     19  C   UNL     1      -8.495  -8.876   5.740  0.00  0.00    +0.058 A 
ATOM     21  C   UNL     1     -10.149 -11.293   1.442  0.00  0.00    +0.016 C 
ATOM     22  C   UNL     1      -7.785  -9.592   4.797  0.00  0.00    +0.015 A 
ATOM     25  C   UNL     1      -6.757  -9.446   6.956  0.00  0.00    +0.165 A 
ATOM     31  C   UNL     1      -5.981  -9.119   9.289  0.00  0.00    +0.250 C 
ATOM     40  H   UNL     1      -5.061 -10.181   7.725  0.00  0.00    +0.157 HD
ENDROOT
BRANCH  31  32
ATOM      2  F   UNL     1      -1.790 -10.443  12.732  0.00  0.00    -0.205 F 
ATOM     32  C   UNL     1      -4.865  -9.472  10.205  0.00  0.00    +0.037 A 
ATOM     33  C   UNL     1      -3.571  -9.208   9.810  0.00  0.00    +0.016 A 
ATOM     34  C   UNL     1      -5.161 -10.053  11.421  0.00  0.00    +0.016 A 
ATOM     35  C   UNL     1      -2.524  -9.538  10.671  0.00  0.00    +0.039 A 
ATOM     36  C   UNL     1      -4.114 -10.382  12.281  0.00  0.00    +0.039 A 
ATOM     37  C   UNL     1      -2.795 -10.125  11.906  0.00  0.00    +0.123 A 
ENDBRANCH  31  32
BRANCH  15   3
ATOM      3  O   UNL     1     -12.266  -9.507   0.369  0.00  0.00    -0.391 OA
ATOM     38  H   UNL     1     -11.520  -9.382  -0.239  0.00  0.00    +0.210 HD
ENDBRANCH  15   3
BRANCH  12  20
ATOM     20  C   UNL     1      -9.477  -9.056   0.642  0.00  0.00    +0.165 C 
BRANCH  20   4
ATOM      4  O   UNL     1      -9.500  -9.880  -0.501  0.00  0.00    -0.394 OA
ATOM     39  H   UNL     1      -9.832 -10.754  -0.236  0.00  0.00    +0.209 HD
ENDBRANCH  20   4
ENDBRANCH  12  20
BRANCH  13  23
ATOM     23  C   UNL     1     -10.027  -6.949   6.253  0.00  0.00    +0.106 C 
BRANCH  23  24
ATOM      5  O   UNL     1     -11.947  -7.999   7.157  0.00  0.00    -0.276 OA
ATOM      8  N   UNL     1     -10.990  -6.313   8.436  0.00  0.00    -0.301 N 
ATOM     24  C   UNL     1     -11.077  -7.141   7.317  0.00  0.00    +0.216 C 
ATOM     26  C   UNL     1      -9.941  -5.314   8.675  0.00  0.00    +0.108 C 
ATOM     27  C   UNL     1     -11.976  -6.436   9.512  0.00  0.00    +0.108 C 
ATOM     28  C   UNL     1     -10.551  -3.944   8.962  0.00  0.00    +0.019 C 
ATOM     29  C   UNL     1     -12.626  -5.088   9.814  0.00  0.00    +0.019 C 
ATOM     30  C   UNL     1     -11.573  -4.018  10.097  0.00  0.00    +0.003 C 
ENDBRANCH  23  24
ENDBRANCH  13  23
TORSDOF 6
ENDMDL
MODEL 9
REMARK VINA RESULT:      -6.2     30.268     33.168
REMARK  Name = 11883062
REMARK  8 active torsions:
REMARK  status: ('A' for Active; 'I' for Inactive)
REMARK    1  A    between atoms: O_3  and  C_15
REMARK    2  A    between atoms: O_4  and  C_20
REMARK    3  A    between atoms: C_10  and  C_18
REMARK    4  A    between atoms: C_12  and  C_20
REMARK    5  A    between atoms: C_12  and  C_21
REMARK    6  A    between atoms: C_13  and  C_23
REMARK    7  A    between atoms: C_23  and  C_24
REMARK    8  A    between atoms: C_31  and  C_32
REMARK                            x       y       z     vdW  Elec       q    Type
REMARK                         _______ _______ _______ _____ _____    ______ ____
ROOT
ATOM      1  S   UNL     1      14.811   8.201   6.454  0.00  0.00    -0.057 S 
ATOM      6  O   UNL     1      17.856   7.968   2.940  0.00  0.00    -0.270 OA
ATOM      7  N   UNL     1      15.055   7.974   3.888  0.00  0.00    -0.229 NA
ATOM      9  N   UNL     1      17.093   8.146   5.162  0.00  0.00    -0.261 N 
ATOM     10  C   UNL     1      11.238   7.447   3.704  0.00  0.00    -0.019 C 
ATOM     11  C   UNL     1      10.971   8.367   4.976  0.00  0.00    +0.011 C 
ATOM     12  C   UNL     1       9.485   8.450   5.500  0.00  0.00    +0.021 C 
ATOM     13  C   UNL     1      12.662   7.847   3.097  0.00  0.00    +0.054 C 
ATOM     14  C   UNL     1      10.155   7.725   2.630  0.00  0.00    +0.010 C 
ATOM     15  C   UNL     1       8.531   8.684   4.295  0.00  0.00    +0.123 C 
ATOM     16  C   UNL     1      12.017   8.103   6.098  0.00  0.00    +0.049 C 
ATOM     17  C   UNL     1       8.730   7.679   3.166  0.00  0.00    +0.032 C 
ATOM     18  C   UNL     1      11.230   5.936   4.041  0.00  0.00    +0.012 C 
ATOM     19  C   UNL     1      13.703   7.953   4.181  0.00  0.00    +0.058 A 
ATOM     21  C   UNL     1       9.349   9.679   6.443  0.00  0.00    +0.016 C 
ATOM     22  C   UNL     1      13.392   8.086   5.520  0.00  0.00    +0.015 A 
ATOM     25  C   UNL     1      15.733   8.095   5.009  0.00  0.00    +0.165 A 
ATOM     31  C   UNL     1      18.057   8.082   4.143  0.00  0.00    +0.250 C 
ATOM     40  H   UNL     1      17.384   8.289   6.124  0.00  0.00    +0.157 HD
ENDROOT
BRANCH  31  32
ATOM      2  F   UNL     1      23.360   8.506   5.839  0.00  0.00    -0.205 F 
ATOM     32  C   UNL     1      19.469   8.194   4.595  0.00  0.00    +0.037 A 
ATOM     33  C   UNL     1      20.405   7.324   4.077  0.00  0.00    +0.016 A 
ATOM     34  C   UNL     1      19.796   9.165   5.518  0.00  0.00    +0.016 A 
ATOM     35  C   UNL     1      21.729   7.431   4.500  0.00  0.00    +0.039 A 
ATOM     36  C   UNL     1      21.121   9.272   5.941  0.00  0.00    +0.039 A 
ATOM     37  C   UNL     1      22.088   8.404   5.432  0.00  0.00    +0.123 A 
ENDBRANCH  31  32
BRANCH  15   3
ATOM      3  O   UNL     1       7.168   8.636   4.717  0.00  0.00    -0.391 OA
ATOM     38  H   UNL     1       7.146   8.769   5.678  0.00  0.00    +0.210 HD
ENDBRANCH  15   3
BRANCH  12  20
ATOM     20  C   UNL     1       9.031   7.233   6.334  0.00  0.00    +0.165 C 
BRANCH  20   4
ATOM      4  O   UNL     1       8.183   7.703   7.357  0.00  0.00    -0.394 OA
ATOM     39  H   UNL     1       7.762   6.934   7.777  0.00  0.00    +0.209 HD
ENDBRANCH  20   4
ENDBRANCH  12  20
BRANCH  13  23
ATOM     23  C   UNL     1      13.139   6.952   1.945  0.00  0.00    +0.106 C 
BRANCH  23  24
ATOM      5  O   UNL     1      12.936   8.674   0.332  0.00  0.00    -0.276 OA
ATOM      8  N   UNL     1      11.911   6.653  -0.176  0.00  0.00    -0.301 N 
ATOM     24  C   UNL     1      12.658   7.511   0.631  0.00  0.00    +0.216 C 
ATOM     26  C   UNL     1      11.601   5.251   0.132  0.00  0.00    +0.108 C 
ATOM     27  C   UNL     1      11.404   7.123  -1.467  0.00  0.00    +0.108 C 
ATOM     28  C   UNL     1      10.097   4.998   0.054  0.00  0.00    +0.019 C 
ATOM     29  C   UNL     1       9.897   6.908  -1.574  0.00  0.00    +0.019 C 
ATOM     30  C   UNL     1       9.525   5.453  -1.288  0.00  0.00    +0.003 C 
ENDBRANCH  23  24
ENDBRANCH  13  23
TORSDOF 6
ENDMDL
MODEL 10
REMARK VINA RESULT:      -6.2     21.329     24.443
REMARK  Name = 11883062
REMARK  8 active torsions:
REMARK  status: ('A' for Active; 'I' for Inactive)
REMARK    1  A    between atoms: O_3  and  C_15
REMARK    2  A    between atoms: O_4  and  C_20
REMARK    3  A    between atoms: C_10  and  C_18
REMARK    4  A    between atoms: C_12  and  C_20
REMARK    5  A    between atoms: C_12  and  C_21
REMARK    6  A    between atoms: C_13  and  C_23
REMARK    7  A    between atoms: C_23  and  C_24
REMARK    8  A    between atoms: C_31  and  C_32
REMARK                            x       y       z     vdW  Elec       q    Type
REMARK                         _______ _______ _______ _____ _____    ______ ____
ROOT
ATOM      1  S   UNL     1      -9.934  -8.422  38.827  0.00  0.00    -0.057 S 
ATOM      6  O   UNL     1      -5.584 -10.039  38.454  0.00  0.00    -0.270 OA
ATOM      7  N   UNL     1      -7.478  -8.050  39.551  0.00  0.00    -0.229 NA
ATOM      9  N   UNL     1      -7.911  -9.927  38.103  0.00  0.00    -0.261 N 
ATOM     10  C   UNL     1      -8.607  -4.767  41.230  0.00  0.00    -0.019 C 
ATOM     11  C   UNL     1     -10.057  -5.340  41.555  0.00  0.00    +0.011 C 
ATOM     12  C   UNL     1     -11.098  -4.338  42.189  0.00  0.00    +0.021 C 
ATOM     13  C   UNL     1      -7.621  -6.008  41.026  0.00  0.00    +0.054 C 
ATOM     14  C   UNL     1      -8.101  -3.934  42.436  0.00  0.00    +0.010 C 
ATOM     15  C   UNL     1     -10.415  -3.555  43.346  0.00  0.00    +0.123 C 
ATOM     16  C   UNL     1     -10.625  -6.161  40.361  0.00  0.00    +0.049 C 
ATOM     17  C   UNL     1      -9.101  -2.901  42.936  0.00  0.00    +0.032 C 
ATOM     18  C   UNL     1      -8.582  -3.876  39.964  0.00  0.00    +0.012 C 
ATOM     19  C   UNL     1      -8.238  -7.049  40.127  0.00  0.00    +0.058 A 
ATOM     21  C   UNL     1     -12.270  -5.151  42.809  0.00  0.00    +0.016 C 
ATOM     22  C   UNL     1      -9.590  -7.110  39.857  0.00  0.00    +0.015 A 
ATOM     25  C   UNL     1      -8.265  -8.827  38.839  0.00  0.00    +0.165 A 
ATOM     31  C   UNL     1      -6.621 -10.460  37.954  0.00  0.00    +0.250 C 
ATOM     40  H   UNL     1      -8.703 -10.395  37.674  0.00  0.00    +0.157 HD
ENDROOT
BRANCH  31  32
ATOM      2  F   UNL     1      -6.285 -15.065  34.814  0.00  0.00    -0.205 F 
ATOM     32  C   UNL     1      -6.531 -11.686  37.118  0.00  0.00    +0.037 A 
ATOM     33  C   UNL     1      -5.685 -12.700  37.513  0.00  0.00    +0.016 A 
ATOM     34  C   UNL     1      -7.297 -11.768  35.974  0.00  0.00    +0.016 A 
ATOM     35  C   UNL     1      -5.603 -13.851  36.729  0.00  0.00    +0.039 A 
ATOM     36  C   UNL     1      -7.214 -12.918  35.190  0.00  0.00    +0.039 A 
ATOM     37  C   UNL     1      -6.366 -13.960  35.567  0.00  0.00    +0.123 A 
ENDBRANCH  31  32
BRANCH  15   3
ATOM      3  O   UNL     1     -11.290  -2.550  43.857  0.00  0.00    -0.391 OA
ATOM     38  H   UNL     1     -11.239  -2.572  44.826  0.00  0.00    +0.210 HD
ENDBRANCH  15   3
BRANCH  12  20
ATOM     20  C   UNL     1     -11.751  -3.370  41.179  0.00  0.00    +0.165 C 
BRANCH  20   4
ATOM      4  O   UNL     1     -13.083  -3.156  41.585  0.00  0.00    -0.394 OA
ATOM     39  H   UNL     1     -13.115  -3.209  42.555  0.00  0.00    +0.209 HD
ENDBRANCH  20   4
ENDBRANCH  12  20
BRANCH  13  23
ATOM     23  C   UNL     1      -6.208  -5.631  40.562  0.00  0.00    +0.106 C 
BRANCH  23  24
ATOM      5  O   UNL     1      -5.513  -6.494  42.655  0.00  0.00    -0.276 OA
ATOM      8  N   UNL     1      -3.910  -6.438  40.974  0.00  0.00    -0.301 N 
ATOM     24  C   UNL     1      -5.187  -6.226  41.496  0.00  0.00    +0.216 C 
ATOM     26  C   UNL     1      -3.504  -6.172  39.589  0.00  0.00    +0.108 C 
ATOM     27  C   UNL     1      -2.862  -7.010  41.822  0.00  0.00    +0.108 C 
ATOM     28  C   UNL     1      -2.272  -5.271  39.549  0.00  0.00    +0.019 C 
ATOM     29  C   UNL     1      -1.619  -6.125  41.825  0.00  0.00    +0.019 C 
ATOM     30  C   UNL     1      -1.139  -5.840  40.402  0.00  0.00    +0.003 C 
ENDBRANCH  23  24
ENDBRANCH  13  23
TORSDOF 6
ENDMDL
