REMARK  Name = 25338959
REMARK  7 active torsions:
REMARK  status: ('A' for Active; 'I' for Inactive)
REMARK    1  A    between atoms: O_1  and  C_14
REMARK    2  A    between atoms: O_1  and  C_23
REMARK    3  A    between atoms: N_5  and  C_13
REMARK    4  A    between atoms: C_8  and  C_14
REMARK    5  A    between atoms: C_13  and  C_17
REMARK    6  A    between atoms: C_16  and  C_18
REMARK    7  A    between atoms: C_28  and  C_30
REMARK                            x       y       z     vdW  Elec       q    Type
REMARK                         _______ _______ _______ _____ _____    ______ ____
ROOT
ATOM      3  O   UNL     1      -1.655   3.477  -0.208  0.00  0.00    -0.270 OA
ATOM      4  N   UNL     1      -0.075   1.799   0.229  0.00  0.00    -0.278 N 
ATOM      5  N   UNL     1       1.985  -0.922   1.770  0.00  0.00    -0.328 N 
ATOM      6  N   UNL     1       3.424   0.720   2.243  0.00  0.00    -0.240 NA
ATOM      8  C   UNL     1       1.074   2.725   0.051  0.00  0.00    +0.191 C 
ATOM      9  C   UNL     1       2.160   2.615   1.141  0.00  0.00    +0.091 C 
ATOM     10  C   UNL     1       1.458   0.216   1.237  0.00  0.00    +0.059 A 
ATOM     11  C   UNL     1       0.199   0.354   0.481  0.00  0.00    +0.164 C 
ATOM     12  C   UNL     1       2.359   1.206   1.537  0.00  0.00    +0.066 A 
ATOM     15  C   UNL     1       3.169  -0.568   2.366  0.00  0.00    +0.200 A 
ATOM     16  C   UNL     1      -1.369   2.300   0.005  0.00  0.00    +0.248 C 
ENDROOT
BRANCH  16  18
ATOM     18  C   UNL     1      -2.492   1.352   0.019  0.00  0.00    +0.037 A 
ATOM     21  C   UNL     1      -3.160   1.080   1.212  0.00  0.00    +0.014 A 
ATOM     22  C   UNL     1      -2.888   0.724  -1.162  0.00  0.00    +0.014 A 
ATOM     26  C   UNL     1      -4.226   0.180   1.224  0.00  0.00    +0.019 A 
ATOM     27  C   UNL     1      -3.954  -0.176  -1.150  0.00  0.00    +0.019 A 
ATOM     28  C   UNL     1      -4.623  -0.448   0.043  0.00  0.00    +0.052 A 
BRANCH  28  30
ATOM      7  N   UNL     1      -6.601  -2.119   0.067  0.00  0.00    -0.191 NA
ATOM     30  C   UNL     1      -5.715  -1.370   0.056  0.00  0.00    +0.099 C 
ENDBRANCH  28  30
ENDBRANCH  16  18
BRANCH   8  14
ATOM      2  O   UNL     1       1.202   1.566  -2.059  0.00  0.00    -0.249 OA
ATOM     14  C   UNL     1       1.619   2.448  -1.321  0.00  0.00    +0.328 C 
BRANCH  14   1
ATOM      1  O   UNL     1       2.630   3.322  -1.595  0.00  0.00    -0.467 OA
ATOM     23  C   UNL     1       3.243   3.170  -2.879  0.00  0.00    +0.280 C 
ENDBRANCH  14   1
ENDBRANCH   8  14
BRANCH   5  13
ATOM     13  C   UNL     1       1.425  -2.251   1.722  0.00  0.00    +0.158 C 
BRANCH  13  17
ATOM     17  C   UNL     1       1.621  -2.934   0.392  0.00  0.00    -0.028 A 
ATOM     19  C   UNL     1       0.517  -3.397  -0.324  0.00  0.00    +0.005 A 
ATOM     20  C   UNL     1       2.906  -3.104  -0.123  0.00  0.00    +0.005 A 
ATOM     24  C   UNL     1       0.698  -4.030  -1.554  0.00  0.00    +0.000 A 
ATOM     25  C   UNL     1       3.087  -3.736  -1.353  0.00  0.00    +0.000 A 
ATOM     29  C   UNL     1       1.983  -4.199  -2.068  0.00  0.00    +0.000 A 
ENDBRANCH  13  17
ENDBRANCH   5  13
TORSDOF 6
