REMARK  Name = 26761906
REMARK  4 active torsions:
REMARK  status: ('A' for Active; 'I' for Inactive)
REMARK    1  A    between atoms: N_4  and  C_10
REMARK    2  A    between atoms: C_9  and  C_10
REMARK    3  A    between atoms: C_15  and  C_21
REMARK    4  A    between atoms: C_23  and  C_24
REMARK                            x       y       z     vdW  Elec       q    Type
REMARK                         _______ _______ _______ _____ _____    ______ ____
ROOT
ATOM      4  N   UNL     1      -2.453  -0.253   0.233  0.00  0.00    -0.285 NA
ATOM      5  N   UNL     1      -2.065  -3.468  -1.605  0.00  0.00    -0.347 N 
ATOM      6  N   UNL     1      -1.684  -4.332   0.422  0.00  0.00    -0.240 NA
ATOM     15  C   UNL     1      -1.582  -0.624   1.390  0.00  0.00    +0.152 C 
ATOM     17  C   UNL     1      -2.176  -0.976  -1.026  0.00  0.00    +0.140 C 
ATOM     18  C   UNL     1      -1.686  -2.154   1.727  0.00  0.00    +0.085 C 
ATOM     19  C   UNL     1      -2.030  -2.419  -0.738  0.00  0.00    +0.053 A 
ATOM     20  C   UNL     1      -1.791  -2.973   0.496  0.00  0.00    +0.065 A 
ATOM     22  C   UNL     1      -1.852  -4.601  -0.858  0.00  0.00    +0.197 A 
ATOM     31  H   UNL     1      -2.214  -3.427  -2.605  0.00  0.00    +0.167 HD
ENDROOT
BRANCH  15  21
ATOM      1  O   UNL     1       0.240   0.785   2.248  0.00  0.00    -0.336 OA
ATOM      7  N   UNL     1       0.804  -0.437   0.458  0.00  0.00    -0.190 NA
ATOM      8  N   UNL     1       1.579   1.091   1.974  0.00  0.00    -0.056 NA
ATOM     21  C   UNL     1      -0.139  -0.122   1.309  0.00  0.00    +0.245 A 
ATOM     23  C   UNL     1       1.839   0.331   0.905  0.00  0.00    +0.202 A 
BRANCH  23  24
ATOM      2  O   UNL     1       6.482   1.778   0.438  0.00  0.00    -0.453 OA
ATOM      3  O   UNL     1       6.837   0.365  -1.482  0.00  0.00    -0.453 OA
ATOM     24  C   UNL     1       3.121   0.316   0.263  0.00  0.00    +0.026 A 
ATOM     25  C   UNL     1       4.153   1.119   0.755  0.00  0.00    +0.061 A 
ATOM     26  C   UNL     1       3.328  -0.507  -0.858  0.00  0.00    +0.015 A 
ATOM     27  C   UNL     1       5.369   1.070   0.104  0.00  0.00    +0.167 A 
ATOM     28  C   UNL     1       5.571   0.264  -0.993  0.00  0.00    +0.166 A 
ATOM     29  C   UNL     1       4.569  -0.538  -1.499  0.00  0.00    +0.050 A 
ATOM     30  C   UNL     1       7.408   1.326  -0.571  0.00  0.00    +0.466 C 
ENDBRANCH  23  24
ENDBRANCH  15  21
BRANCH   4  10
ATOM     10  C   UNL     1      -2.566   1.184   0.010  0.00  0.00    +0.089 C 
BRANCH  10   9
ATOM      9  C   UNL     1      -3.932   1.548  -0.569  0.00  0.00    +0.003 C 
ATOM     11  C   UNL     1      -5.054   1.150   0.400  0.00  0.00    +0.005 C 
ATOM     12  C   UNL     1      -4.000   3.045  -0.900  0.00  0.00    +0.005 C 
ATOM     13  C   UNL     1      -6.427   1.552  -0.134  0.00  0.00    +0.000 C 
ATOM     14  C   UNL     1      -5.375   3.443  -1.431  0.00  0.00    +0.000 C 
ATOM     16  C   UNL     1      -6.488   3.038  -0.469  0.00  0.00    +0.000 C 
ENDBRANCH  10   9
ENDBRANCH   4  10
TORSDOF 4
