MODEL 1
REMARK VINA RESULT:      -7.7      0.000      0.000
REMARK  Name = 11884075
REMARK  8 active torsions:
REMARK  status: ('A' for Active; 'I' for Inactive)
REMARK    1  A    between atoms: S_1  and  N_9
REMARK    2  A    between atoms: S_1  and  C_18
REMARK    3  A    between atoms: O_4  and  C_15
REMARK    4  A    between atoms: O_4  and  C_19
REMARK    5  A    between atoms: O_8  and  C_33
REMARK    6  A    between atoms: O_8  and  C_34
REMARK    7  A    between atoms: N_9  and  C_14
REMARK    8  A    between atoms: N_10  and  C_25
REMARK                            x       y       z     vdW  Elec       q    Type
REMARK                         _______ _______ _______ _____ _____    ______ ____
ROOT
ATOM      2  O   UNL     1     -17.211   5.113  25.082  0.00  0.00    -0.369 OA
ATOM      3  O   UNL     1     -16.518   2.179  24.475  0.00  0.00    -0.368 OA
ATOM     12  C   UNL     1     -15.934   3.136  25.382  0.00  0.00    +0.171 C 
ATOM     13  C   UNL     1     -15.980   4.483  24.690  0.00  0.00    +0.191 C 
ATOM     14  C   UNL     1     -16.827   3.314  26.585  0.00  0.00    +0.133 C 
ATOM     15  C   UNL     1     -15.986   4.102  23.229  0.00  0.00    +0.235 C 
ATOM     16  C   UNL     1     -17.846   4.328  26.102  0.00  0.00    +0.183 C 
ATOM     17  C   UNL     1     -16.814   2.837  23.234  0.00  0.00    +0.207 C 
ENDROOT
BRANCH  14   9
ATOM      9  N   UNL     1     -16.050   3.883  27.713  0.00  0.00    -0.182 NA
ATOM     35  H   UNL     1     -15.057   3.632  27.782  0.00  0.00    +0.148 HD
BRANCH   9   1
ATOM      1  S   UNL     1     -16.861   4.573  29.034  0.00  0.00    +0.061 S 
ATOM      5  O   UNL     1     -18.160   3.945  29.185  0.00  0.00    -0.153 OA
ATOM      6  O   UNL     1     -16.755   6.016  28.946  0.00  0.00    -0.153 OA
BRANCH   1  18
ATOM     11  N   UNL     1     -16.108   1.786  29.777  0.00  0.00    -0.253 NA
ATOM     18  C   UNL     1     -15.849   4.063  30.391  0.00  0.00    +0.131 A 
ATOM     20  C   UNL     1     -15.592   2.717  30.601  0.00  0.00    +0.097 A 
ATOM     21  C   UNL     1     -15.338   5.059  31.217  0.00  0.00    +0.031 A 
ATOM     22  C   UNL     1     -14.780   2.370  31.700  0.00  0.00    +0.002 A 
ATOM     23  C   UNL     1     -14.538   4.710  32.298  0.00  0.00    +0.003 A 
ATOM     24  C   UNL     1     -14.258   3.368  32.541  0.00  0.00    +0.010 A 
ATOM     26  C   UNL     1     -14.513   1.012  31.921  0.00  0.00    +0.011 A 
ATOM     27  C   UNL     1     -15.827   0.486  30.025  0.00  0.00    +0.111 A 
ATOM     28  C   UNL     1     -15.043   0.050  31.073  0.00  0.00    +0.020 A 
ENDBRANCH   1  18
ENDBRANCH   9   1
ENDBRANCH  14   9
BRANCH  15   4
ATOM      4  O   UNL     1     -16.537   5.092  22.391  0.00  0.00    -0.442 OA
BRANCH   4  19
ATOM      7  O   UNL     1     -16.042   5.091  20.158  0.00  0.00    -0.226 OA
ATOM     10  N   UNL     1     -14.762   6.301  21.700  0.00  0.00    -0.251 N 
ATOM     19  C   UNL     1     -15.788   5.469  21.295  0.00  0.00    +0.405 C 
ATOM     36  H   UNL     1     -14.715   6.503  22.697  0.00  0.00    +0.158 HD
BRANCH  10  25
ATOM     25  C   UNL     1     -13.769   6.910  20.901  0.00  0.00    +0.037 A 
ATOM     29  C   UNL     1     -14.146   7.803  19.911  0.00  0.00    +0.027 A 
ATOM     30  C   UNL     1     -12.436   6.603  21.123  0.00  0.00    +0.027 A 
ATOM     31  C   UNL     1     -13.166   8.404  19.122  0.00  0.00    +0.047 A 
ATOM     32  C   UNL     1     -11.455   7.204  20.334  0.00  0.00    +0.047 A 
ATOM     33  C   UNL     1     -11.820   8.104  19.334  0.00  0.00    +0.120 A 
BRANCH  33   8
ATOM      8  O   UNL     1     -10.862   8.692  18.565  0.00  0.00    -0.495 OA
ATOM     34  C   UNL     1     -10.619   8.121  17.281  0.00  0.00    +0.277 C 
ENDBRANCH  33   8
ENDBRANCH  10  25
ENDBRANCH   4  19
ENDBRANCH  15   4
TORSDOF 7
ENDMDL
MODEL 2
REMARK VINA RESULT:      -7.7      1.340      2.497
REMARK  Name = 11884075
REMARK  8 active torsions:
REMARK  status: ('A' for Active; 'I' for Inactive)
REMARK    1  A    between atoms: S_1  and  N_9
REMARK    2  A    between atoms: S_1  and  C_18
REMARK    3  A    between atoms: O_4  and  C_15
REMARK    4  A    between atoms: O_4  and  C_19
REMARK    5  A    between atoms: O_8  and  C_33
REMARK    6  A    between atoms: O_8  and  C_34
REMARK    7  A    between atoms: N_9  and  C_14
REMARK    8  A    between atoms: N_10  and  C_25
REMARK                            x       y       z     vdW  Elec       q    Type
REMARK                         _______ _______ _______ _____ _____    ______ ____
ROOT
ATOM      2  O   UNL     1     -16.676   4.778  25.476  0.00  0.00    -0.369 OA
ATOM      3  O   UNL     1     -16.904   1.994  24.190  0.00  0.00    -0.368 OA
ATOM     12  C   UNL     1     -16.029   2.510  25.213  0.00  0.00    +0.171 C 
ATOM     13  C   UNL     1     -15.702   3.941  24.831  0.00  0.00    +0.191 C 
ATOM     14  C   UNL     1     -16.782   2.644  26.514  0.00  0.00    +0.133 C 
ATOM     15  C   UNL     1     -15.878   3.929  23.332  0.00  0.00    +0.235 C 
ATOM     16  C   UNL     1     -17.474   3.985  26.367  0.00  0.00    +0.183 C 
ATOM     17  C   UNL     1     -17.042   2.979  23.156  0.00  0.00    +0.207 C 
ENDROOT
BRANCH  14   9
ATOM      9  N   UNL     1     -15.827   2.694  27.648  0.00  0.00    -0.182 NA
ATOM     35  H   UNL     1     -14.921   3.151  27.489  0.00  0.00    +0.148 HD
BRANCH   9   1
ATOM      1  S   UNL     1     -16.064   1.690  28.995  0.00  0.00    +0.061 S 
ATOM      5  O   UNL     1     -15.397   0.421  28.776  0.00  0.00    -0.153 OA
ATOM      6  O   UNL     1     -17.466   1.723  29.362  0.00  0.00    -0.153 OA
BRANCH   1  18
ATOM     11  N   UNL     1     -16.422   4.532  29.820  0.00  0.00    -0.253 NA
ATOM     18  C   UNL     1     -15.181   2.558  30.257  0.00  0.00    +0.131 A 
ATOM     20  C   UNL     1     -15.469   3.888  30.520  0.00  0.00    +0.097 A 
ATOM     21  C   UNL     1     -14.204   1.853  30.954  0.00  0.00    +0.031 A 
ATOM     22  C   UNL     1     -14.731   4.529  31.537  0.00  0.00    +0.002 A 
ATOM     23  C   UNL     1     -13.481   2.491  31.954  0.00  0.00    +0.003 A 
ATOM     24  C   UNL     1     -13.743   3.827  32.247  0.00  0.00    +0.010 A 
ATOM     26  C   UNL     1     -15.015   5.874  31.811  0.00  0.00    +0.011 A 
ATOM     27  C   UNL     1     -16.666   5.830  30.116  0.00  0.00    +0.111 A 
ATOM     28  C   UNL     1     -15.998   6.540  31.092  0.00  0.00    +0.020 A 
ENDBRANCH   1  18
ENDBRANCH   9   1
ENDBRANCH  14   9
BRANCH  15   4
ATOM      4  O   UNL     1     -16.145   5.200  22.786  0.00  0.00    -0.442 OA
BRANCH   4  19
ATOM      7  O   UNL     1     -15.893   5.046  20.518  0.00  0.00    -0.226 OA
ATOM     10  N   UNL     1     -14.481   6.381  21.823  0.00  0.00    -0.251 N 
ATOM     19  C   UNL     1     -15.526   5.508  21.591  0.00  0.00    +0.405 C 
ATOM     36  H   UNL     1     -14.331   6.653  22.792  0.00  0.00    +0.158 HD
BRANCH  10  25
ATOM     25  C   UNL     1     -13.592   6.944  20.880  0.00  0.00    +0.037 A 
ATOM     29  C   UNL     1     -12.233   6.704  21.000  0.00  0.00    +0.027 A 
ATOM     30  C   UNL     1     -14.097   7.725  19.852  0.00  0.00    +0.027 A 
ATOM     31  C   UNL     1     -11.355   7.260  20.069  0.00  0.00    +0.047 A 
ATOM     32  C   UNL     1     -13.220   8.281  18.921  0.00  0.00    +0.047 A 
ATOM     33  C   UNL     1     -11.849   8.048  19.030  0.00  0.00    +0.120 A 
BRANCH  33   8
ATOM      8  O   UNL     1     -10.993   8.589  18.120  0.00  0.00    -0.495 OA
ATOM     34  C   UNL     1     -10.130   9.629  18.578  0.00  0.00    +0.277 C 
ENDBRANCH  33   8
ENDBRANCH  10  25
ENDBRANCH   4  19
ENDBRANCH  15   4
TORSDOF 7
ENDMDL
MODEL 3
REMARK VINA RESULT:      -7.6     28.878     33.371
REMARK  Name = 11884075
REMARK  8 active torsions:
REMARK  status: ('A' for Active; 'I' for Inactive)
REMARK    1  A    between atoms: S_1  and  N_9
REMARK    2  A    between atoms: S_1  and  C_18
REMARK    3  A    between atoms: O_4  and  C_15
REMARK    4  A    between atoms: O_4  and  C_19
REMARK    5  A    between atoms: O_8  and  C_33
REMARK    6  A    between atoms: O_8  and  C_34
REMARK    7  A    between atoms: N_9  and  C_14
REMARK    8  A    between atoms: N_10  and  C_25
REMARK                            x       y       z     vdW  Elec       q    Type
REMARK                         _______ _______ _______ _____ _____    ______ ____
ROOT
ATOM      2  O   UNL     1      16.856   8.256  20.643  0.00  0.00    -0.369 OA
ATOM      3  O   UNL     1      16.190   5.752  18.987  0.00  0.00    -0.368 OA
ATOM     12  C   UNL     1      15.652   6.254  20.227  0.00  0.00    +0.171 C 
ATOM     13  C   UNL     1      16.809   6.864  20.993  0.00  0.00    +0.191 C 
ATOM     14  C   UNL     1      14.739   7.424  19.955  0.00  0.00    +0.133 C 
ATOM     15  C   UNL     1      17.998   6.109  20.449  0.00  0.00    +0.235 C 
ATOM     16  C   UNL     1      15.705   8.588  19.851  0.00  0.00    +0.183 C 
ATOM     17  C   UNL     1      17.615   5.917  18.998  0.00  0.00    +0.207 C 
ENDROOT
BRANCH  14   9
ATOM      9  N   UNL     1      13.826   7.632  21.105  0.00  0.00    -0.182 NA
ATOM     35  H   UNL     1      14.202   7.474  22.047  0.00  0.00    +0.148 HD
BRANCH   9   1
ATOM      1  S   UNL     1      12.151   7.723  20.847  0.00  0.00    +0.061 S 
ATOM      5  O   UNL     1      11.479   6.749  21.687  0.00  0.00    -0.153 OA
ATOM      6  O   UNL     1      11.899   7.750  19.419  0.00  0.00    -0.153 OA
BRANCH   1  18
ATOM     11  N   UNL     1      12.899  10.345  19.643  0.00  0.00    -0.253 NA
ATOM     18  C   UNL     1      11.772   9.333  21.469  0.00  0.00    +0.131 A 
ATOM     20  C   UNL     1      12.197  10.461  20.785  0.00  0.00    +0.097 A 
ATOM     21  C   UNL     1      11.045   9.406  22.654  0.00  0.00    +0.031 A 
ATOM     22  C   UNL     1      11.866  11.720  21.330  0.00  0.00    +0.002 A 
ATOM     23  C   UNL     1      10.722  10.649  23.184  0.00  0.00    +0.003 A 
ATOM     24  C   UNL     1      11.132  11.805  22.525  0.00  0.00    +0.010 A 
ATOM     26  C   UNL     1      12.290  12.867  20.646  0.00  0.00    +0.011 A 
ATOM     27  C   UNL     1      13.289  11.477  19.013  0.00  0.00    +0.111 A 
ATOM     28  C   UNL     1      13.014  12.750  19.468  0.00  0.00    +0.020 A 
ENDBRANCH   1  18
ENDBRANCH   9   1
ENDBRANCH  14   9
BRANCH  15   4
ATOM      4  O   UNL     1      19.217   6.801  20.588  0.00  0.00    -0.442 OA
BRANCH   4  19
ATOM      7  O   UNL     1      20.369   6.217  22.475  0.00  0.00    -0.226 OA
ATOM     10  N   UNL     1      21.010   5.452  20.358  0.00  0.00    -0.251 N 
ATOM     19  C   UNL     1      20.231   6.150  21.260  0.00  0.00    +0.405 C 
ATOM     36  H   UNL     1      20.734   5.519  19.381  0.00  0.00    +0.158 HD
BRANCH  10  25
ATOM     25  C   UNL     1      22.146   4.655  20.624  0.00  0.00    +0.037 A 
ATOM     29  C   UNL     1      23.409   5.166  20.369  0.00  0.00    +0.027 A 
ATOM     30  C   UNL     1      21.976   3.378  21.135  0.00  0.00    +0.027 A 
ATOM     31  C   UNL     1      24.531   4.380  20.631  0.00  0.00    +0.047 A 
ATOM     32  C   UNL     1      23.098   2.591  21.397  0.00  0.00    +0.047 A 
ATOM     33  C   UNL     1      24.375   3.092  21.145  0.00  0.00    +0.120 A 
BRANCH  33   8
ATOM      8  O   UNL     1      25.469   2.325  21.403  0.00  0.00    -0.495 OA
ATOM     34  C   UNL     1      25.543   1.708  22.688  0.00  0.00    +0.277 C 
ENDBRANCH  33   8
ENDBRANCH  10  25
ENDBRANCH   4  19
ENDBRANCH  15   4
TORSDOF 7
ENDMDL
MODEL 4
REMARK VINA RESULT:      -7.3     19.630     21.484
REMARK  Name = 11884075
REMARK  8 active torsions:
REMARK  status: ('A' for Active; 'I' for Inactive)
REMARK    1  A    between atoms: S_1  and  N_9
REMARK    2  A    between atoms: S_1  and  C_18
REMARK    3  A    between atoms: O_4  and  C_15
REMARK    4  A    between atoms: O_4  and  C_19
REMARK    5  A    between atoms: O_8  and  C_33
REMARK    6  A    between atoms: O_8  and  C_34
REMARK    7  A    between atoms: N_9  and  C_14
REMARK    8  A    between atoms: N_10  and  C_25
REMARK                            x       y       z     vdW  Elec       q    Type
REMARK                         _______ _______ _______ _____ _____    ______ ____
ROOT
ATOM      2  O   UNL     1      -3.960 -12.104  14.669  0.00  0.00    -0.369 OA
ATOM      3  O   UNL     1      -2.016 -10.806  16.668  0.00  0.00    -0.368 OA
ATOM     12  C   UNL     1      -3.369 -10.476  16.291  0.00  0.00    +0.171 C 
ATOM     13  C   UNL     1      -3.491 -10.752  14.805  0.00  0.00    +0.191 C 
ATOM     14  C   UNL     1      -4.331 -11.451  16.923  0.00  0.00    +0.133 C 
ATOM     15  C   UNL     1      -2.068 -10.602  14.325  0.00  0.00    +0.235 C 
ATOM     16  C   UNL     1      -4.303 -12.623  15.962  0.00  0.00    +0.183 C 
ATOM     17  C   UNL     1      -1.279 -11.160  15.489  0.00  0.00    +0.207 C 
ENDROOT
BRANCH  14   9
ATOM      9  N   UNL     1      -5.693 -10.866  16.959  0.00  0.00    -0.182 NA
ATOM     35  H   UNL     1      -5.898 -10.092  16.315  0.00  0.00    +0.148 HD
BRANCH   9   1
ATOM      1  S   UNL     1      -6.715 -11.186  18.276  0.00  0.00    +0.061 S 
ATOM      5  O   UNL     1      -6.119 -10.659  19.489  0.00  0.00    -0.153 OA
ATOM      6  O   UNL     1      -7.137 -12.572  18.214  0.00  0.00    -0.153 OA
BRANCH   1  18
ATOM     11  N   UNL     1      -9.395 -11.286  19.576  0.00  0.00    -0.253 NA
ATOM     18  C   UNL     1      -8.129 -10.198  17.890  0.00  0.00    +0.131 A 
ATOM     20  C   UNL     1      -9.311 -10.370  18.594  0.00  0.00    +0.097 A 
ATOM     21  C   UNL     1      -7.997  -9.265  16.867  0.00  0.00    +0.031 A 
ATOM     22  C   UNL     1     -10.407  -9.555  18.241  0.00  0.00    +0.002 A 
ATOM     23  C   UNL     1      -9.080  -8.464  16.525  0.00  0.00    +0.003 A 
ATOM     24  C   UNL     1     -10.284  -8.608  17.210  0.00  0.00    +0.010 A 
ATOM     26  C   UNL     1     -11.606  -9.719  18.947  0.00  0.00    +0.011 A 
ATOM     27  C   UNL     1     -10.571 -11.414  20.233  0.00  0.00    +0.111 A 
ATOM     28  C   UNL     1     -11.695 -10.663  19.960  0.00  0.00    +0.020 A 
ENDBRANCH   1  18
ENDBRANCH   9   1
ENDBRANCH  14   9
BRANCH  15   4
ATOM      4  O   UNL     1      -1.802 -11.293  13.126  0.00  0.00    -0.442 OA
BRANCH   4  19
ATOM      7  O   UNL     1      -1.398  -9.729  11.507  0.00  0.00    -0.226 OA
ATOM     10  N   UNL     1      -3.249 -11.159  11.400  0.00  0.00    -0.251 N 
ATOM     19  C   UNL     1      -2.095 -10.635  11.949  0.00  0.00    +0.405 C 
ATOM     36  H   UNL     1      -3.689 -11.915  11.920  0.00  0.00    +0.158 HD
BRANCH  10  25
ATOM     25  C   UNL     1      -3.896 -10.776  10.204  0.00  0.00    +0.037 A 
ATOM     29  C   UNL     1      -4.106 -11.721   9.212  0.00  0.00    +0.027 A 
ATOM     30  C   UNL     1      -4.307  -9.462  10.046  0.00  0.00    +0.027 A 
ATOM     31  C   UNL     1      -4.745 -11.343   8.031  0.00  0.00    +0.047 A 
ATOM     32  C   UNL     1      -4.946  -9.083   8.865  0.00  0.00    +0.047 A 
ATOM     33  C   UNL     1      -5.165 -10.023   7.858  0.00  0.00    +0.120 A 
BRANCH  33   8
ATOM      8  O   UNL     1      -5.790  -9.655   6.706  0.00  0.00    -0.495 OA
ATOM     34  C   UNL     1      -5.888 -10.637   5.677  0.00  0.00    +0.277 C 
ENDBRANCH  33   8
ENDBRANCH  10  25
ENDBRANCH   4  19
ENDBRANCH  15   4
TORSDOF 7
ENDMDL
MODEL 5
REMARK VINA RESULT:      -7.1     27.700     29.657
REMARK  Name = 11884075
REMARK  8 active torsions:
REMARK  status: ('A' for Active; 'I' for Inactive)
REMARK    1  A    between atoms: S_1  and  N_9
REMARK    2  A    between atoms: S_1  and  C_18
REMARK    3  A    between atoms: O_4  and  C_15
REMARK    4  A    between atoms: O_4  and  C_19
REMARK    5  A    between atoms: O_8  and  C_33
REMARK    6  A    between atoms: O_8  and  C_34
REMARK    7  A    between atoms: N_9  and  C_14
REMARK    8  A    between atoms: N_10  and  C_25
REMARK                            x       y       z     vdW  Elec       q    Type
REMARK                         _______ _______ _______ _____ _____    ______ ____
ROOT
ATOM      2  O   UNL     1      13.683  11.182  17.720  0.00  0.00    -0.369 OA
ATOM      3  O   UNL     1      13.086   8.532  16.278  0.00  0.00    -0.368 OA
ATOM     12  C   UNL     1      14.142   8.917  17.182  0.00  0.00    +0.171 C 
ATOM     13  C   UNL     1      14.490  10.357  16.864  0.00  0.00    +0.191 C 
ATOM     14  C   UNL     1      13.613   8.974  18.594  0.00  0.00    +0.133 C 
ATOM     15  C   UNL     1      14.081  10.482  15.417  0.00  0.00    +0.235 C 
ATOM     16  C   UNL     1      12.989  10.354  18.665  0.00  0.00    +0.183 C 
ATOM     17  C   UNL     1      12.848   9.608  15.358  0.00  0.00    +0.207 C 
ENDROOT
BRANCH  14   9
ATOM      9  N   UNL     1      14.735   8.881  19.559  0.00  0.00    -0.182 NA
ATOM     35  H   UNL     1      15.601   9.385  19.334  0.00  0.00    +0.148 HD
BRANCH   9   1
ATOM      1  S   UNL     1      14.722   7.678  20.756  0.00  0.00    +0.061 S 
ATOM      5  O   UNL     1      15.618   8.057  21.832  0.00  0.00    -0.153 OA
ATOM      6  O   UNL     1      14.857   6.383  20.117  0.00  0.00    -0.153 OA
BRANCH   1  18
ATOM     11  N   UNL     1      13.452   9.991  22.140  0.00  0.00    -0.253 NA
ATOM     18  C   UNL     1      13.066   7.783  21.363  0.00  0.00    +0.131 A 
ATOM     20  C   UNL     1      12.626   8.939  21.989  0.00  0.00    +0.097 A 
ATOM     21  C   UNL     1      12.248   6.671  21.186  0.00  0.00    +0.031 A 
ATOM     22  C   UNL     1      11.295   8.965  22.455  0.00  0.00    +0.002 A 
ATOM     23  C   UNL     1      10.937   6.704  21.647  0.00  0.00    +0.003 A 
ATOM     24  C   UNL     1      10.460   7.848  22.281  0.00  0.00    +0.010 A 
ATOM     26  C   UNL     1      10.840  10.129  23.088  0.00  0.00    +0.011 A 
ATOM     27  C   UNL     1      12.974  11.096  22.758  0.00  0.00    +0.111 A 
ATOM     28  C   UNL     1      11.689  11.215  23.246  0.00  0.00    +0.020 A 
ENDBRANCH   1  18
ENDBRANCH   9   1
ENDBRANCH  14   9
BRANCH  15   4
ATOM      4  O   UNL     1      13.809  11.807  15.020  0.00  0.00    -0.442 OA
BRANCH   4  19
ATOM      7  O   UNL     1      14.140  11.776  12.757  0.00  0.00    -0.226 OA
ATOM     10  N   UNL     1      12.105  12.456  13.692  0.00  0.00    -0.251 N 
ATOM     19  C   UNL     1      13.408  11.997  13.714  0.00  0.00    +0.405 C 
ATOM     36  H   UNL     1      11.658  12.579  14.598  0.00  0.00    +0.158 HD
BRANCH  10  25
ATOM     25  C   UNL     1      11.314  12.776  12.566  0.00  0.00    +0.037 A 
ATOM     29  C   UNL     1      11.495  13.996  11.934  0.00  0.00    +0.027 A 
ATOM     30  C   UNL     1      10.373  11.865  12.116  0.00  0.00    +0.027 A 
ATOM     31  C   UNL     1      10.714  14.313  10.822  0.00  0.00    +0.047 A 
ATOM     32  C   UNL     1       9.592  12.181  11.004  0.00  0.00    +0.047 A 
ATOM     33  C   UNL     1       9.763  13.405  10.357  0.00  0.00    +0.120 A 
BRANCH  33   8
ATOM      8  O   UNL     1       9.002  13.713   9.271  0.00  0.00    -0.495 OA
ATOM     34  C   UNL     1       7.657  14.122   9.515  0.00  0.00    +0.277 C 
ENDBRANCH  33   8
ENDBRANCH  10  25
ENDBRANCH   4  19
ENDBRANCH  15   4
TORSDOF 7
ENDMDL
MODEL 6
REMARK VINA RESULT:      -7.1     27.667     30.536
REMARK  Name = 11884075
REMARK  8 active torsions:
REMARK  status: ('A' for Active; 'I' for Inactive)
REMARK    1  A    between atoms: S_1  and  N_9
REMARK    2  A    between atoms: S_1  and  C_18
REMARK    3  A    between atoms: O_4  and  C_15
REMARK    4  A    between atoms: O_4  and  C_19
REMARK    5  A    between atoms: O_8  and  C_33
REMARK    6  A    between atoms: O_8  and  C_34
REMARK    7  A    between atoms: N_9  and  C_14
REMARK    8  A    between atoms: N_10  and  C_25
REMARK                            x       y       z     vdW  Elec       q    Type
REMARK                         _______ _______ _______ _____ _____    ______ ____
ROOT
ATOM      2  O   UNL     1      12.877  11.278  20.744  0.00  0.00    -0.369 OA
ATOM      3  O   UNL     1      10.721   9.250  21.576  0.00  0.00    -0.368 OA
ATOM     12  C   UNL     1      11.655  10.030  22.349  0.00  0.00    +0.171 C 
ATOM     13  C   UNL     1      12.942  10.092  21.552  0.00  0.00    +0.191 C 
ATOM     14  C   UNL     1      11.196  11.466  22.412  0.00  0.00    +0.133 C 
ATOM     15  C   UNL     1      12.870   8.839  20.714  0.00  0.00    +0.235 C 
ATOM     16  C   UNL     1      11.721  12.045  21.113  0.00  0.00    +0.183 C 
ATOM     17  C   UNL     1      11.391   8.741  20.413  0.00  0.00    +0.207 C 
ENDROOT
BRANCH  14   9
ATOM      9  N   UNL     1      11.836  12.152  23.561  0.00  0.00    -0.182 NA
ATOM     35  H   UNL     1      12.862  12.184  23.586  0.00  0.00    +0.148 HD
BRANCH   9   1
ATOM      1  S   UNL     1      10.927  12.495  24.952  0.00  0.00    +0.061 S 
ATOM      5  O   UNL     1      10.700  11.271  25.696  0.00  0.00    -0.153 OA
ATOM      6  O   UNL     1       9.809  13.342  24.583  0.00  0.00    -0.153 OA
BRANCH   1  18
ATOM     11  N   UNL     1      13.705  11.803  25.781  0.00  0.00    -0.253 NA
ATOM     18  C   UNL     1      12.047  13.497  25.882  0.00  0.00    +0.131 A 
ATOM     20  C   UNL     1      13.314  13.025  26.189  0.00  0.00    +0.097 A 
ATOM     21  C   UNL     1      11.600  14.753  26.284  0.00  0.00    +0.031 A 
ATOM     22  C   UNL     1      14.164  13.868  26.935  0.00  0.00    +0.002 A 
ATOM     23  C   UNL     1      12.442  15.578  27.018  0.00  0.00    +0.003 A 
ATOM     24  C   UNL     1      13.723  15.138  27.344  0.00  0.00    +0.010 A 
ATOM     26  C   UNL     1      15.447  13.401  27.249  0.00  0.00    +0.011 A 
ATOM     27  C   UNL     1      14.952  11.390  26.105  0.00  0.00    +0.111 A 
ATOM     28  C   UNL     1      15.853  12.142  26.830  0.00  0.00    +0.020 A 
ENDBRANCH   1  18
ENDBRANCH   9   1
ENDBRANCH  14   9
BRANCH  15   4
ATOM      4  O   UNL     1      13.646   8.901  19.539  0.00  0.00    -0.442 OA
BRANCH   4  19
ATOM      7  O   UNL     1      15.769   9.744  19.657  0.00  0.00    -0.226 OA
ATOM     10  N   UNL     1      15.344   7.452  19.866  0.00  0.00    -0.251 N 
ATOM     19  C   UNL     1      15.014   8.781  19.688  0.00  0.00    +0.405 C 
ATOM     36  H   UNL     1      14.569   6.792  19.862  0.00  0.00    +0.158 HD
BRANCH  10  25
ATOM     25  C   UNL     1      16.628   6.893  20.055  0.00  0.00    +0.037 A 
ATOM     29  C   UNL     1      17.375   7.264  21.162  0.00  0.00    +0.027 A 
ATOM     30  C   UNL     1      17.116   5.984  19.129  0.00  0.00    +0.027 A 
ATOM     31  C   UNL     1      18.642   6.712  21.349  0.00  0.00    +0.047 A 
ATOM     32  C   UNL     1      18.384   5.432  19.315  0.00  0.00    +0.047 A 
ATOM     33  C   UNL     1      19.146   5.796  20.425  0.00  0.00    +0.120 A 
BRANCH  33   8
ATOM      8  O   UNL     1      20.382   5.256  20.608  0.00  0.00    -0.495 OA
ATOM     34  C   UNL     1      21.025   5.511  21.855  0.00  0.00    +0.277 C 
ENDBRANCH  33   8
ENDBRANCH  10  25
ENDBRANCH   4  19
ENDBRANCH  15   4
TORSDOF 7
ENDMDL
MODEL 7
REMARK VINA RESULT:      -7.1     28.326     32.666
REMARK  Name = 11884075
REMARK  8 active torsions:
REMARK  status: ('A' for Active; 'I' for Inactive)
REMARK    1  A    between atoms: S_1  and  N_9
REMARK    2  A    between atoms: S_1  and  C_18
REMARK    3  A    between atoms: O_4  and  C_15
REMARK    4  A    between atoms: O_4  and  C_19
REMARK    5  A    between atoms: O_8  and  C_33
REMARK    6  A    between atoms: O_8  and  C_34
REMARK    7  A    between atoms: N_9  and  C_14
REMARK    8  A    between atoms: N_10  and  C_25
REMARK                            x       y       z     vdW  Elec       q    Type
REMARK                         _______ _______ _______ _____ _____    ______ ____
ROOT
ATOM      2  O   UNL     1      16.235   8.803  20.742  0.00  0.00    -0.369 OA
ATOM      3  O   UNL     1      15.153   6.193  19.527  0.00  0.00    -0.368 OA
ATOM     12  C   UNL     1      14.842   6.883  20.755  0.00  0.00    +0.171 C 
ATOM     13  C   UNL     1      16.140   7.470  21.271  0.00  0.00    +0.191 C 
ATOM     14  C   UNL     1      13.986   8.091  20.463  0.00  0.00    +0.133 C 
ATOM     15  C   UNL     1      17.178   6.553  20.669  0.00  0.00    +0.235 C 
ATOM     16  C   UNL     1      15.008   9.143  20.080  0.00  0.00    +0.183 C 
ATOM     17  C   UNL     1      16.573   6.230  19.321  0.00  0.00    +0.207 C 
ENDROOT
BRANCH  14   9
ATOM      9  N   UNL     1      13.269   8.512  21.691  0.00  0.00    -0.182 NA
ATOM     35  H   UNL     1      13.679   8.252  22.595  0.00  0.00    +0.148 HD
BRANCH   9   1
ATOM      1  S   UNL     1      11.657   9.032  21.591  0.00  0.00    +0.061 S 
ATOM      5  O   UNL     1      10.932   8.589  22.767  0.00  0.00    -0.153 OA
ATOM      6  O   UNL     1      11.150   8.731  20.266  0.00  0.00    -0.153 OA
BRANCH   1  18
ATOM     11  N   UNL     1      11.223  10.758  23.982  0.00  0.00    -0.253 NA
ATOM     18  C   UNL     1      11.833  10.788  21.689  0.00  0.00    +0.131 A 
ATOM     20  C   UNL     1      11.591  11.446  22.885  0.00  0.00    +0.097 A 
ATOM     21  C   UNL     1      12.214  11.459  20.530  0.00  0.00    +0.031 A 
ATOM     22  C   UNL     1      11.746  12.848  22.903  0.00  0.00    +0.002 A 
ATOM     23  C   UNL     1      12.365  12.840  20.555  0.00  0.00    +0.003 A 
ATOM     24  C   UNL     1      12.131  13.535  21.739  0.00  0.00    +0.010 A 
ATOM     26  C   UNL     1      11.505  13.523  24.107  0.00  0.00    +0.011 A 
ATOM     27  C   UNL     1      11.000  11.447  25.124  0.00  0.00    +0.111 A 
ATOM     28  C   UNL     1      11.126  12.817  25.239  0.00  0.00    +0.020 A 
ENDBRANCH   1  18
ENDBRANCH   9   1
ENDBRANCH  14   9
BRANCH  15   4
ATOM      4  O   UNL     1      18.451   7.145  20.550  0.00  0.00    -0.442 OA
BRANCH   4  19
ATOM      7  O   UNL     1      19.689   6.635  22.405  0.00  0.00    -0.226 OA
ATOM     10  N   UNL     1      20.227   5.777  20.294  0.00  0.00    -0.251 N 
ATOM     19  C   UNL     1      19.494   6.517  21.202  0.00  0.00    +0.405 C 
ATOM     36  H   UNL     1      19.905   5.804  19.329  0.00  0.00    +0.158 HD
BRANCH  10  25
ATOM     25  C   UNL     1      21.371   4.986  20.540  0.00  0.00    +0.037 A 
ATOM     29  C   UNL     1      21.213   3.667  20.937  0.00  0.00    +0.027 A 
ATOM     30  C   UNL     1      22.630   5.543  20.378  0.00  0.00    +0.027 A 
ATOM     31  C   UNL     1      22.342   2.885  21.179  0.00  0.00    +0.047 A 
ATOM     32  C   UNL     1      23.760   4.761  20.621  0.00  0.00    +0.047 A 
ATOM     33  C   UNL     1      23.616   3.433  21.021  0.00  0.00    +0.120 A 
BRANCH  33   8
ATOM      8  O   UNL     1      24.718   2.670  21.256  0.00  0.00    -0.495 OA
ATOM     34  C   UNL     1      24.520   1.436  21.944  0.00  0.00    +0.277 C 
ENDBRANCH  33   8
ENDBRANCH  10  25
ENDBRANCH   4  19
ENDBRANCH  15   4
TORSDOF 7
ENDMDL
MODEL 8
REMARK VINA RESULT:      -7.1     18.573     21.555
REMARK  Name = 11884075
REMARK  8 active torsions:
REMARK  status: ('A' for Active; 'I' for Inactive)
REMARK    1  A    between atoms: S_1  and  N_9
REMARK    2  A    between atoms: S_1  and  C_18
REMARK    3  A    between atoms: O_4  and  C_15
REMARK    4  A    between atoms: O_4  and  C_19
REMARK    5  A    between atoms: O_8  and  C_33
REMARK    6  A    between atoms: O_8  and  C_34
REMARK    7  A    between atoms: N_9  and  C_14
REMARK    8  A    between atoms: N_10  and  C_25
REMARK                            x       y       z     vdW  Elec       q    Type
REMARK                         _______ _______ _______ _____ _____    ______ ____
ROOT
ATOM      2  O   UNL     1      -6.089 -10.362  17.404  0.00  0.00    -0.369 OA
ATOM      3  O   UNL     1      -4.340 -12.216  19.126  0.00  0.00    -0.368 OA
ATOM     12  C   UNL     1      -4.905 -12.379  17.809  0.00  0.00    +0.171 C 
ATOM     13  C   UNL     1      -6.271 -11.722  17.832  0.00  0.00    +0.191 C 
ATOM     14  C   UNL     1      -4.125 -11.560  16.810  0.00  0.00    +0.133 C 
ATOM     15  C   UNL     1      -6.650 -11.804  19.291  0.00  0.00    +0.235 C 
ATOM     16  C   UNL     1      -4.739 -10.181  16.952  0.00  0.00    +0.183 C 
ATOM     17  C   UNL     1      -5.318 -11.602  19.978  0.00  0.00    +0.207 C 
ENDROOT
BRANCH  14   9
ATOM      9  N   UNL     1      -4.360 -12.075  15.440  0.00  0.00    -0.182 NA
ATOM     35  H   UNL     1      -4.876 -12.957  15.343  0.00  0.00    +0.148 HD
BRANCH   9   1
ATOM      1  S   UNL     1      -3.466 -11.452  14.139  0.00  0.00    +0.061 S 
ATOM      5  O   UNL     1      -3.008 -12.543  13.299  0.00  0.00    -0.153 OA
ATOM      6  O   UNL     1      -2.521 -10.476  14.646  0.00  0.00    -0.153 OA
BRANCH   1  18
ATOM     11  N   UNL     1      -3.153 -10.091  11.506  0.00  0.00    -0.253 NA
ATOM     18  C   UNL     1      -4.700 -10.557  13.243  0.00  0.00    +0.131 A 
ATOM     20  C   UNL     1      -4.391  -9.978  12.022  0.00  0.00    +0.097 A 
ATOM     21  C   UNL     1      -5.965 -10.465  13.816  0.00  0.00    +0.031 A 
ATOM     22  C   UNL     1      -5.415  -9.275  11.354  0.00  0.00    +0.002 A 
ATOM     23  C   UNL     1      -6.969  -9.771  13.152  0.00  0.00    +0.003 A 
ATOM     24  C   UNL     1      -6.696  -9.176  11.923  0.00  0.00    +0.010 A 
ATOM     26  C   UNL     1      -5.114  -8.686  10.118  0.00  0.00    +0.011 A 
ATOM     27  C   UNL     1      -2.903  -9.508  10.311  0.00  0.00    +0.111 A 
ATOM     28  C   UNL     1      -3.838  -8.801   9.583  0.00  0.00    +0.020 A 
ENDBRANCH   1  18
ENDBRANCH   9   1
ENDBRANCH  14   9
BRANCH  15   4
ATOM      4  O   UNL     1      -7.599 -10.838  19.681  0.00  0.00    -0.442 OA
BRANCH   4  19
ATOM      7  O   UNL     1      -9.599 -11.590  18.866  0.00  0.00    -0.226 OA
ATOM     10  N   UNL     1      -8.703  -9.529  18.212  0.00  0.00    -0.251 N 
ATOM     19  C   UNL     1      -8.732 -10.726  18.901  0.00  0.00    +0.405 C 
ATOM     36  H   UNL     1      -7.891  -8.938  18.375  0.00  0.00    +0.158 HD
BRANCH  10  25
ATOM     25  C   UNL     1      -9.663  -9.022  17.308  0.00  0.00    +0.037 A 
ATOM     29  C   UNL     1      -9.308  -8.819  15.984  0.00  0.00    +0.027 A 
ATOM     30  C   UNL     1     -10.941  -8.739  17.762  0.00  0.00    +0.027 A 
ATOM     31  C   UNL     1     -10.255  -8.319  15.090  0.00  0.00    +0.047 A 
ATOM     32  C   UNL     1     -11.889  -8.238  16.869  0.00  0.00    +0.047 A 
ATOM     33  C   UNL     1     -11.546  -8.029  15.534  0.00  0.00    +0.120 A 
BRANCH  33   8
ATOM      8  O   UNL     1     -12.471  -7.542  14.662  0.00  0.00    -0.495 OA
ATOM     34  C   UNL     1     -12.293  -6.202  14.206  0.00  0.00    +0.277 C 
ENDBRANCH  33   8
ENDBRANCH  10  25
ENDBRANCH   4  19
ENDBRANCH  15   4
TORSDOF 7
ENDMDL
MODEL 9
REMARK VINA RESULT:      -6.9      2.060      3.495
REMARK  Name = 11884075
REMARK  8 active torsions:
REMARK  status: ('A' for Active; 'I' for Inactive)
REMARK    1  A    between atoms: S_1  and  N_9
REMARK    2  A    between atoms: S_1  and  C_18
REMARK    3  A    between atoms: O_4  and  C_15
REMARK    4  A    between atoms: O_4  and  C_19
REMARK    5  A    between atoms: O_8  and  C_33
REMARK    6  A    between atoms: O_8  and  C_34
REMARK    7  A    between atoms: N_9  and  C_14
REMARK    8  A    between atoms: N_10  and  C_25
REMARK                            x       y       z     vdW  Elec       q    Type
REMARK                         _______ _______ _______ _____ _____    ______ ____
ROOT
ATOM      2  O   UNL     1     -16.058   6.193  24.210  0.00  0.00    -0.369 OA
ATOM      3  O   UNL     1     -15.909   4.302  21.788  0.00  0.00    -0.368 OA
ATOM     12  C   UNL     1     -15.437   4.165  23.144  0.00  0.00    +0.171 C 
ATOM     13  C   UNL     1     -14.948   5.532  23.580  0.00  0.00    +0.191 C 
ATOM     14  C   UNL     1     -16.597   3.883  24.066  0.00  0.00    +0.133 C 
ATOM     15  C   UNL     1     -14.580   6.183  22.268  0.00  0.00    +0.235 C 
ATOM     16  C   UNL     1     -17.146   5.268  24.350  0.00  0.00    +0.183 C 
ATOM     17  C   UNL     1     -15.637   5.636  21.334  0.00  0.00    +0.207 C 
ENDROOT
BRANCH  14   9
ATOM      9  N   UNL     1     -16.107   3.271  25.325  0.00  0.00    -0.182 NA
ATOM     35  H   UNL     1     -15.137   3.462  25.602  0.00  0.00    +0.148 HD
BRANCH   9   1
ATOM      1  S   UNL     1     -16.974   1.999  26.038  0.00  0.00    +0.061 S 
ATOM      5  O   UNL     1     -16.493   0.733  25.517  0.00  0.00    -0.153 OA
ATOM      6  O   UNL     1     -18.388   2.314  25.994  0.00  0.00    -0.153 OA
BRANCH   1  18
ATOM     11  N   UNL     1     -16.977   4.435  27.755  0.00  0.00    -0.253 NA
ATOM     18  C   UNL     1     -16.472   2.117  27.729  0.00  0.00    +0.131 A 
ATOM     20  C   UNL     1     -16.534   3.334  28.390  0.00  0.00    +0.097 A 
ATOM     21  C   UNL     1     -16.020   0.954  28.345  0.00  0.00    +0.031 A 
ATOM     22  C   UNL     1     -16.119   3.368  29.737  0.00  0.00    +0.002 A 
ATOM     23  C   UNL     1     -15.613   0.995  29.673  0.00  0.00    +0.003 A 
ATOM     24  C   UNL     1     -15.662   2.200  30.369  0.00  0.00    +0.010 A 
ATOM     26  C   UNL     1     -16.179   4.593  30.415  0.00  0.00    +0.011 A 
ATOM     27  C   UNL     1     -17.018   5.598  28.445  0.00  0.00    +0.111 A 
ATOM     28  C   UNL     1     -16.635   5.730  29.763  0.00  0.00    +0.020 A 
ENDBRANCH   1  18
ENDBRANCH   9   1
ENDBRANCH  14   9
BRANCH  15   4
ATOM      4  O   UNL     1     -14.592   7.591  22.315  0.00  0.00    -0.442 OA
BRANCH   4  19
ATOM      7  O   UNL     1     -14.951   8.936  20.500  0.00  0.00    -0.226 OA
ATOM     10  N   UNL     1     -12.844   8.025  20.956  0.00  0.00    -0.251 N 
ATOM     19  C   UNL     1     -14.188   8.257  21.175  0.00  0.00    +0.405 C 
ATOM     36  H   UNL     1     -12.375   7.428  21.635  0.00  0.00    +0.158 HD
BRANCH  10  25
ATOM     25  C   UNL     1     -12.036   8.515  19.905  0.00  0.00    +0.037 A 
ATOM     29  C   UNL     1     -11.883   7.755  18.756  0.00  0.00    +0.027 A 
ATOM     30  C   UNL     1     -11.414   9.745  20.044  0.00  0.00    +0.027 A 
ATOM     31  C   UNL     1     -11.087   8.238  17.718  0.00  0.00    +0.047 A 
ATOM     32  C   UNL     1     -10.617  10.229  19.006  0.00  0.00    +0.047 A 
ATOM     33  C   UNL     1     -10.453   9.476  17.844  0.00  0.00    +0.120 A 
BRANCH  33   8
ATOM      8  O   UNL     1      -9.677   9.948  16.830  0.00  0.00    -0.495 OA
ATOM     34  C   UNL     1      -9.990  11.244  16.322  0.00  0.00    +0.277 C 
ENDBRANCH  33   8
ENDBRANCH  10  25
ENDBRANCH   4  19
ENDBRANCH  15   4
TORSDOF 7
ENDMDL
MODEL 10
REMARK VINA RESULT:      -6.9     27.457     31.516
REMARK  Name = 11884075
REMARK  8 active torsions:
REMARK  status: ('A' for Active; 'I' for Inactive)
REMARK    1  A    between atoms: S_1  and  N_9
REMARK    2  A    between atoms: S_1  and  C_18
REMARK    3  A    between atoms: O_4  and  C_15
REMARK    4  A    between atoms: O_4  and  C_19
REMARK    5  A    between atoms: O_8  and  C_33
REMARK    6  A    between atoms: O_8  and  C_34
REMARK    7  A    between atoms: N_9  and  C_14
REMARK    8  A    between atoms: N_10  and  C_25
REMARK                            x       y       z     vdW  Elec       q    Type
REMARK                         _______ _______ _______ _____ _____    ______ ____
ROOT
ATOM      2  O   UNL     1      13.591   9.577  20.219  0.00  0.00    -0.369 OA
ATOM      3  O   UNL     1      13.388   6.840  18.830  0.00  0.00    -0.368 OA
ATOM     12  C   UNL     1      12.921   8.149  18.445  0.00  0.00    +0.171 C 
ATOM     13  C   UNL     1      12.463   8.843  19.713  0.00  0.00    +0.191 C 
ATOM     14  C   UNL     1      14.081   8.989  17.970  0.00  0.00    +0.133 C 
ATOM     15  C   UNL     1      12.102   7.683  20.610  0.00  0.00    +0.235 C 
ATOM     16  C   UNL     1      14.660   9.527  19.263  0.00  0.00    +0.183 C 
ATOM     17  C   UNL     1      13.142   6.652  20.232  0.00  0.00    +0.207 C 
ENDROOT
BRANCH  14   9
ATOM      9  N   UNL     1      13.584  10.111  17.137  0.00  0.00    -0.182 NA
ATOM     35  H   UNL     1      12.813  10.678  17.510  0.00  0.00    +0.148 HD
BRANCH   9   1
ATOM      1  S   UNL     1      13.994  10.188  15.492  0.00  0.00    +0.061 S 
ATOM      5  O   UNL     1      12.864  10.693  14.735  0.00  0.00    -0.153 OA
ATOM      6  O   UNL     1      14.629   8.941  15.110  0.00  0.00    -0.153 OA
BRANCH   1  18
ATOM     11  N   UNL     1      15.358  11.364  13.117  0.00  0.00    -0.253 NA
ATOM     18  C   UNL     1      15.252  11.430  15.486  0.00  0.00    +0.131 A 
ATOM     20  C   UNL     1      15.788  11.872  14.287  0.00  0.00    +0.097 A 
ATOM     21  C   UNL     1      15.667  11.926  16.719  0.00  0.00    +0.031 A 
ATOM     22  C   UNL     1      16.790  12.863  14.344  0.00  0.00    +0.002 A 
ATOM     23  C   UNL     1      16.654  12.902  16.768  0.00  0.00    +0.003 A 
ATOM     24  C   UNL     1      17.216  13.372  15.583  0.00  0.00    +0.010 A 
ATOM     26  C   UNL     1      17.338  13.319  13.138  0.00  0.00    +0.011 A 
ATOM     27  C   UNL     1      15.913  11.830  11.975  0.00  0.00    +0.111 A 
ATOM     28  C   UNL     1      16.896  12.797  11.930  0.00  0.00    +0.020 A 
ENDBRANCH   1  18
ENDBRANCH   9   1
ENDBRANCH  14   9
BRANCH  15   4
ATOM      4  O   UNL     1      12.144   7.999  21.983  0.00  0.00    -0.442 OA
BRANCH   4  19
ATOM      7  O   UNL     1      10.063   8.857  22.386  0.00  0.00    -0.226 OA
ATOM     10  N   UNL     1      12.006  10.061  22.887  0.00  0.00    -0.251 N 
ATOM     19  C   UNL     1      11.280   8.981  22.424  0.00  0.00    +0.405 C 
ATOM     36  H   UNL     1      13.019   9.976  22.837  0.00  0.00    +0.158 HD
BRANCH  10  25
ATOM     25  C   UNL     1      11.516  11.273  23.424  0.00  0.00    +0.037 A 
ATOM     29  C   UNL     1      11.388  11.404  24.797  0.00  0.00    +0.027 A 
ATOM     30  C   UNL     1      11.175  12.306  22.566  0.00  0.00    +0.027 A 
ATOM     31  C   UNL     1      10.904  12.600  25.328  0.00  0.00    +0.047 A 
ATOM     32  C   UNL     1      10.691  13.503  23.096  0.00  0.00    +0.047 A 
ATOM     33  C   UNL     1      10.556  13.650  24.477  0.00  0.00    +0.120 A 
BRANCH  33   8
ATOM      8  O   UNL     1      10.086  14.818  24.994  0.00  0.00    -0.495 OA
ATOM     34  C   UNL     1      10.952  15.534  25.872  0.00  0.00    +0.277 C 
ENDBRANCH  33   8
ENDBRANCH  10  25
ENDBRANCH   4  19
ENDBRANCH  15   4
TORSDOF 7
ENDMDL
