MODEL 1
REMARK VINA RESULT:      -7.1      0.000      0.000
REMARK  Name = 45361549
REMARK  8 active torsions:
REMARK  status: ('A' for Active; 'I' for Inactive)
REMARK    1  A    between atoms: O_1  and  C_11
REMARK    2  A    between atoms: N_4  and  C_15
REMARK    3  A    between atoms: C_8  and  C_18
REMARK    4  A    between atoms: C_10  and  C_20
REMARK    5  A    between atoms: C_13  and  C_19
REMARK    6  A    between atoms: C_19  and  C_21
REMARK    7  A    between atoms: C_19  and  C_22
REMARK    8  A    between atoms: C_23  and  C_28
REMARK                            x       y       z     vdW  Elec       q    Type
REMARK                         _______ _______ _______ _____ _____    ______ ____
ROOT
ATOM      8  C   UNL     1      -4.817 -11.331  17.332  0.00  0.00    -0.027 C 
ATOM      9  C   UNL     1      -5.783 -10.545  16.384  0.00  0.00    +0.028 C 
ATOM     10  C   UNL     1      -7.251 -10.563  16.943  0.00  0.00    +0.012 C 
ATOM     11  C   UNL     1      -5.625 -11.008  14.908  0.00  0.00    +0.122 C 
ATOM     12  C   UNL     1      -3.366 -11.199  16.814  0.00  0.00    +0.007 C 
ATOM     13  C   UNL     1      -4.155 -10.972  14.427  0.00  0.00    +0.029 C 
ATOM     14  C   UNL     1      -4.872 -10.701  18.743  0.00  0.00    +0.009 C 
ATOM     15  C   UNL     1      -7.283  -9.996  18.391  0.00  0.00    +0.076 C 
ATOM     16  C   UNL     1      -3.199 -11.687  15.381  0.00  0.00    +0.007 C 
ATOM     17  C   UNL     1      -6.277 -10.666  19.327  0.00  0.00    +0.023 C 
ATOM     18  C   UNL     1      -5.175 -12.836  17.431  0.00  0.00    +0.011 C 
ATOM     20  C   UNL     1      -8.252  -9.782  16.074  0.00  0.00    +0.010 C 
ENDROOT
BRANCH  15   4
ATOM      3  O   UNL     1      -8.570 -12.403  19.283  0.00  0.00    -0.268 OA
ATOM      4  N   UNL     1      -8.601 -10.105  18.981  0.00  0.00    -0.307 N 
ATOM     23  C   UNL     1      -9.135 -11.317  19.381  0.00  0.00    +0.264 C 
ATOM     32  H   UNL     1      -9.171  -9.265  19.048  0.00  0.00    +0.149 HD
BRANCH  23  28
ATOM      6  N   UNL     1     -11.114 -10.058  19.946  0.00  0.00    -0.247 NA
ATOM      7  N   UNL     1     -12.373 -12.353  20.953  0.00  0.00    -0.259 NA
ATOM     28  C   UNL     1     -10.510 -11.263  19.943  0.00  0.00    +0.143 A 
ATOM     29  C   UNL     1     -11.128 -12.390  20.438  0.00  0.00    +0.143 A 
ATOM     30  C   UNL     1     -12.359 -10.021  20.461  0.00  0.00    +0.131 A 
ATOM     31  C   UNL     1     -12.977 -11.148  20.956  0.00  0.00    +0.130 A 
ENDBRANCH  23  28
ENDBRANCH  15   4
BRANCH  11   1
ATOM      1  O   UNL     1      -6.356 -10.129  14.051  0.00  0.00    -0.391 OA
ATOM     33  H   UNL     1      -6.349 -10.505  13.155  0.00  0.00    +0.210 HD
ENDBRANCH  11   1
BRANCH  13  19
ATOM     19  C   UNL     1      -4.004 -11.555  13.017  0.00  0.00    +0.078 C 
ATOM     21  C   UNL     1      -3.333 -12.915  13.055  0.00  0.00    +0.017 C 
BRANCH  19  22
ATOM      2  O   UNL     1      -2.009 -10.374  12.469  0.00  0.00    -0.275 OA
ATOM      5  N   UNL     1      -3.853 -10.012  11.125  0.00  0.00    -0.301 N 
ATOM     22  C   UNL     1      -3.187 -10.598  12.186  0.00  0.00    +0.219 C 
ATOM     24  C   UNL     1      -3.207  -9.061  10.231  0.00  0.00    +0.108 C 
ATOM     25  C   UNL     1      -5.242 -10.237  10.734  0.00  0.00    +0.108 C 
ATOM     26  C   UNL     1      -4.164  -8.932   9.057  0.00  0.00    +0.020 C 
ATOM     27  C   UNL     1      -5.525  -9.154   9.703  0.00  0.00    +0.020 C 
ENDBRANCH  19  22
ENDBRANCH  13  19
TORSDOF 5
ENDMDL
MODEL 2
REMARK VINA RESULT:      -7.0     29.766     32.073
REMARK  Name = 45361549
REMARK  8 active torsions:
REMARK  status: ('A' for Active; 'I' for Inactive)
REMARK    1  A    between atoms: O_1  and  C_11
REMARK    2  A    between atoms: N_4  and  C_15
REMARK    3  A    between atoms: C_8  and  C_18
REMARK    4  A    between atoms: C_10  and  C_20
REMARK    5  A    between atoms: C_13  and  C_19
REMARK    6  A    between atoms: C_19  and  C_21
REMARK    7  A    between atoms: C_19  and  C_22
REMARK    8  A    between atoms: C_23  and  C_28
REMARK                            x       y       z     vdW  Elec       q    Type
REMARK                         _______ _______ _______ _____ _____    ______ ____
ROOT
ATOM      8  C   UNL     1      19.835   9.506  21.616  0.00  0.00    -0.027 C 
ATOM      9  C   UNL     1      19.536   8.049  21.129  0.00  0.00    +0.028 C 
ATOM     10  C   UNL     1      18.049   7.650  21.440  0.00  0.00    +0.012 C 
ATOM     11  C   UNL     1      20.616   7.051  21.637  0.00  0.00    +0.122 C 
ATOM     12  C   UNL     1      21.268   9.907  21.195  0.00  0.00    +0.007 C 
ATOM     13  C   UNL     1      22.055   7.511  21.302  0.00  0.00    +0.029 C 
ATOM     14  C   UNL     1      18.852  10.479  20.927  0.00  0.00    +0.009 C 
ATOM     15  C   UNL     1      17.071   8.678  20.805  0.00  0.00    +0.076 C 
ATOM     16  C   UNL     1      22.332   8.954  21.723  0.00  0.00    +0.007 C 
ATOM     17  C   UNL     1      17.391  10.127  21.171  0.00  0.00    +0.023 C 
ATOM     18  C   UNL     1      19.708   9.656  23.154  0.00  0.00    +0.011 C 
ATOM     20  C   UNL     1      17.677   6.236  20.961  0.00  0.00    +0.010 C 
ENDROOT
BRANCH  15   4
ATOM      3  O   UNL     1      14.908   8.082  19.014  0.00  0.00    -0.268 OA
ATOM      4  N   UNL     1      15.696   8.406  21.169  0.00  0.00    -0.307 N 
ATOM     23  C   UNL     1      14.722   8.128  20.227  0.00  0.00    +0.264 C 
ATOM     32  H   UNL     1      15.432   8.480  22.149  0.00  0.00    +0.149 HD
BRANCH  23  28
ATOM      6  N   UNL     1      12.943   8.723  21.744  0.00  0.00    -0.247 NA
ATOM      7  N   UNL     1      11.313   6.669  20.752  0.00  0.00    -0.259 NA
ATOM     28  C   UNL     1      13.354   7.899  20.761  0.00  0.00    +0.143 A 
ATOM     29  C   UNL     1      12.554   6.889  20.274  0.00  0.00    +0.143 A 
ATOM     30  C   UNL     1      11.702   8.503  22.222  0.00  0.00    +0.131 A 
ATOM     31  C   UNL     1      10.902   7.493  21.735  0.00  0.00    +0.130 A 
ENDBRANCH  23  28
ENDBRANCH  15   4
BRANCH  11   1
ATOM      1  O   UNL     1      20.433   5.786  21.000  0.00  0.00    -0.391 OA
ATOM     33  H   UNL     1      21.165   5.204  21.269  0.00  0.00    +0.210 HD
ENDBRANCH  11   1
BRANCH  13  19
ATOM     19  C   UNL     1      23.107   6.584  21.924  0.00  0.00    +0.078 C 
ATOM     21  C   UNL     1      23.963   7.326  22.933  0.00  0.00    +0.017 C 
BRANCH  19  22
ATOM      2  O   UNL     1      24.592   6.788  20.073  0.00  0.00    -0.275 OA
ATOM      5  N   UNL     1      24.000   4.651  20.720  0.00  0.00    -0.301 N 
ATOM     22  C   UNL     1      23.971   6.030  20.820  0.00  0.00    +0.219 C 
ATOM     24  C   UNL     1      24.781   3.960  19.704  0.00  0.00    +0.108 C 
ATOM     25  C   UNL     1      23.293   3.699  21.573  0.00  0.00    +0.108 C 
ATOM     26  C   UNL     1      24.789   2.508  20.152  0.00  0.00    +0.020 C 
ATOM     27  C   UNL     1      23.448   2.364  20.860  0.00  0.00    +0.020 C 
ENDBRANCH  19  22
ENDBRANCH  13  19
TORSDOF 5
ENDMDL
MODEL 3
REMARK VINA RESULT:      -6.9     25.679     27.943
REMARK  Name = 45361549
REMARK  8 active torsions:
REMARK  status: ('A' for Active; 'I' for Inactive)
REMARK    1  A    between atoms: O_1  and  C_11
REMARK    2  A    between atoms: N_4  and  C_15
REMARK    3  A    between atoms: C_8  and  C_18
REMARK    4  A    between atoms: C_10  and  C_20
REMARK    5  A    between atoms: C_13  and  C_19
REMARK    6  A    between atoms: C_19  and  C_21
REMARK    7  A    between atoms: C_19  and  C_22
REMARK    8  A    between atoms: C_23  and  C_28
REMARK                            x       y       z     vdW  Elec       q    Type
REMARK                         _______ _______ _______ _____ _____    ______ ____
ROOT
ATOM      8  C   UNL     1       9.487   5.946   5.971  0.00  0.00    -0.027 C 
ATOM      9  C   UNL     1      10.485   7.054   5.497  0.00  0.00    +0.028 C 
ATOM     10  C   UNL     1      10.005   8.475   5.966  0.00  0.00    +0.012 C 
ATOM     11  C   UNL     1      10.797   6.922   3.979  0.00  0.00    +0.122 C 
ATOM     12  C   UNL     1      10.044   4.554   5.592  0.00  0.00    +0.007 C 
ATOM     13  C   UNL     1      11.256   5.497   3.589  0.00  0.00    +0.029 C 
ATOM     14  C   UNL     1       9.365   6.001   7.511  0.00  0.00    +0.009 C 
ATOM     15  C   UNL     1       9.815   8.497   7.509  0.00  0.00    +0.076 C 
ATOM     16  C   UNL     1      10.314   4.407   4.100  0.00  0.00    +0.007 C 
ATOM     17  C   UNL     1       8.928   7.364   8.028  0.00  0.00    +0.023 C 
ATOM     18  C   UNL     1       8.079   6.106   5.342  0.00  0.00    +0.011 C 
ATOM     20  C   UNL     1      10.958   9.612   5.560  0.00  0.00    +0.010 C 
ENDROOT
BRANCH  15   4
ATOM      3  O   UNL     1      11.177  10.521   9.024  0.00  0.00    -0.268 OA
ATOM      4  N   UNL     1       9.262   9.756   7.964  0.00  0.00    -0.307 N 
ATOM     23  C   UNL     1      10.004  10.670   8.691  0.00  0.00    +0.264 C 
ATOM     32  H   UNL     1       8.278   9.943   7.788  0.00  0.00    +0.149 HD
BRANCH  23  28
ATOM      6  N   UNL     1       9.434  12.984   8.318  0.00  0.00    -0.247 NA
ATOM      7  N   UNL     1       7.849  13.042  10.630  0.00  0.00    -0.259 NA
ATOM     28  C   UNL     1       9.283  11.901   9.106  0.00  0.00    +0.143 A 
ATOM     29  C   UNL     1       8.505  11.930  10.243  0.00  0.00    +0.143 A 
ATOM     30  C   UNL     1       8.778  14.096   8.705  0.00  0.00    +0.131 A 
ATOM     31  C   UNL     1       8.000  14.124   9.842  0.00  0.00    +0.130 A 
ENDBRANCH  23  28
ENDBRANCH  15   4
BRANCH  11   1
ATOM      1  O   UNL     1      11.866   7.805   3.634  0.00  0.00    -0.391 OA
ATOM     33  H   UNL     1      11.515   8.711   3.614  0.00  0.00    +0.210 HD
ENDBRANCH  11   1
BRANCH  13  19
ATOM     19  C   UNL     1      11.431   5.353   2.072  0.00  0.00    +0.078 C 
ATOM     21  C   UNL     1      10.144   4.896   1.412  0.00  0.00    +0.017 C 
BRANCH  19  22
ATOM      2  O   UNL     1      12.348   3.156   2.019  0.00  0.00    -0.275 OA
ATOM      5  N   UNL     1      13.715   4.886   1.333  0.00  0.00    -0.301 N 
ATOM     22  C   UNL     1      12.531   4.356   1.808  0.00  0.00    +0.219 C 
ATOM     24  C   UNL     1      14.875   4.057   1.034  0.00  0.00    +0.108 C 
ATOM     25  C   UNL     1      13.994   6.293   1.058  0.00  0.00    +0.108 C 
ATOM     26  C   UNL     1      15.804   4.970   0.252  0.00  0.00    +0.020 C 
ATOM     27  C   UNL     1      15.498   6.345   0.832  0.00  0.00    +0.020 C 
ENDBRANCH  19  22
ENDBRANCH  13  19
TORSDOF 5
ENDMDL
MODEL 4
REMARK VINA RESULT:      -6.8      4.139      5.843
REMARK  Name = 45361549
REMARK  8 active torsions:
REMARK  status: ('A' for Active; 'I' for Inactive)
REMARK    1  A    between atoms: O_1  and  C_11
REMARK    2  A    between atoms: N_4  and  C_15
REMARK    3  A    between atoms: C_8  and  C_18
REMARK    4  A    between atoms: C_10  and  C_20
REMARK    5  A    between atoms: C_13  and  C_19
REMARK    6  A    between atoms: C_19  and  C_21
REMARK    7  A    between atoms: C_19  and  C_22
REMARK    8  A    between atoms: C_23  and  C_28
REMARK                            x       y       z     vdW  Elec       q    Type
REMARK                         _______ _______ _______ _____ _____    ______ ____
ROOT
ATOM      8  C   UNL     1      -9.496 -10.841  18.394  0.00  0.00    -0.027 C 
ATOM      9  C   UNL     1      -8.822  -9.938  17.309  0.00  0.00    +0.028 C 
ATOM     10  C   UNL     1      -9.902  -9.304  16.361  0.00  0.00    +0.012 C 
ATOM     11  C   UNL     1      -7.661 -10.687  16.594  0.00  0.00    +0.122 C 
ATOM     12  C   UNL     1      -8.419 -11.358  19.378  0.00  0.00    +0.007 C 
ATOM     13  C   UNL     1      -6.641 -11.291  17.588  0.00  0.00    +0.029 C 
ATOM     14  C   UNL     1     -10.503  -9.991  19.203  0.00  0.00    +0.009 C 
ATOM     15  C   UNL     1     -10.951  -8.513  17.192  0.00  0.00    +0.076 C 
ATOM     16  C   UNL     1      -7.301 -12.125  18.686  0.00  0.00    +0.007 C 
ATOM     17  C   UNL     1     -11.561  -9.328  18.333  0.00  0.00    +0.023 C 
ATOM     18  C   UNL     1     -10.234 -12.058  17.780  0.00  0.00    +0.011 C 
ATOM     20  C   UNL     1      -9.309  -8.378  15.284  0.00  0.00    +0.010 C 
ENDROOT
BRANCH  15   4
ATOM      3  O   UNL     1     -11.389  -5.784  16.414  0.00  0.00    -0.268 OA
ATOM      4  N   UNL     1     -12.026  -8.012  16.361  0.00  0.00    -0.307 N 
ATOM     23  C   UNL     1     -12.151  -6.672  16.041  0.00  0.00    +0.264 C 
ATOM     32  H   UNL     1     -12.743  -8.665  16.053  0.00  0.00    +0.149 HD
BRANCH  23  28
ATOM      6  N   UNL     1     -13.120  -5.399  14.235  0.00  0.00    -0.247 NA
ATOM      7  N   UNL     1     -15.630  -6.576  14.657  0.00  0.00    -0.259 NA
ATOM     28  C   UNL     1     -13.325  -6.316  15.202  0.00  0.00    +0.143 A 
ATOM     29  C   UNL     1     -14.558  -6.893  15.410  0.00  0.00    +0.143 A 
ATOM     30  C   UNL     1     -14.192  -5.083  13.482  0.00  0.00    +0.131 A 
ATOM     31  C   UNL     1     -15.425  -5.660  13.690  0.00  0.00    +0.130 A 
ENDBRANCH  23  28
ENDBRANCH  15   4
BRANCH  11   1
ATOM      1  O   UNL     1      -6.937  -9.769  15.772  0.00  0.00    -0.391 OA
ATOM     33  H   UNL     1      -7.580  -9.213  15.301  0.00  0.00    +0.210 HD
ENDBRANCH  11   1
BRANCH  13  19
ATOM     19  C   UNL     1      -5.580 -12.134  16.871  0.00  0.00    +0.078 C 
ATOM     21  C   UNL     1      -5.654 -13.588  17.297  0.00  0.00    +0.017 C 
BRANCH  19  22
ATOM      2  O   UNL     1      -3.856 -11.445  18.363  0.00  0.00    -0.275 OA
ATOM      5  N   UNL     1      -3.449 -11.210  16.101  0.00  0.00    -0.301 N 
ATOM     22  C   UNL     1      -4.219 -11.569  17.192  0.00  0.00    +0.219 C 
ATOM     24  C   UNL     1      -2.115 -10.644  16.243  0.00  0.00    +0.108 C 
ATOM     25  C   UNL     1      -3.818 -11.334  14.694  0.00  0.00    +0.108 C 
ATOM     26  C   UNL     1      -1.524 -10.710  14.844  0.00  0.00    +0.020 C 
ATOM     27  C   UNL     1      -2.747 -10.549  13.950  0.00  0.00    +0.020 C 
ENDBRANCH  19  22
ENDBRANCH  13  19
TORSDOF 5
ENDMDL
MODEL 5
REMARK VINA RESULT:      -6.8     28.975     31.962
REMARK  Name = 45361549
REMARK  8 active torsions:
REMARK  status: ('A' for Active; 'I' for Inactive)
REMARK    1  A    between atoms: O_1  and  C_11
REMARK    2  A    between atoms: N_4  and  C_15
REMARK    3  A    between atoms: C_8  and  C_18
REMARK    4  A    between atoms: C_10  and  C_20
REMARK    5  A    between atoms: C_13  and  C_19
REMARK    6  A    between atoms: C_19  and  C_21
REMARK    7  A    between atoms: C_19  and  C_22
REMARK    8  A    between atoms: C_23  and  C_28
REMARK                            x       y       z     vdW  Elec       q    Type
REMARK                         _______ _______ _______ _____ _____    ______ ____
ROOT
ATOM      8  C   UNL     1      18.550   9.011  21.654  0.00  0.00    -0.027 C 
ATOM      9  C   UNL     1      17.953   7.670  21.112  0.00  0.00    +0.028 C 
ATOM     10  C   UNL     1      19.083   6.757  20.514  0.00  0.00    +0.012 C 
ATOM     11  C   UNL     1      16.740   7.931  20.175  0.00  0.00    +0.122 C 
ATOM     12  C   UNL     1      17.432   9.836  22.335  0.00  0.00    +0.007 C 
ATOM     13  C   UNL     1      15.671   8.842  20.824  0.00  0.00    +0.029 C 
ATOM     14  C   UNL     1      19.618   8.692  22.725  0.00  0.00    +0.009 C 
ATOM     15  C   UNL     1      20.189   6.504  21.577  0.00  0.00    +0.076 C 
ATOM     16  C   UNL     1      16.259  10.127  21.409  0.00  0.00    +0.007 C 
ATOM     17  C   UNL     1      20.728   7.786  22.211  0.00  0.00    +0.023 C 
ATOM     18  C   UNL     1      19.191   9.872  20.535  0.00  0.00    +0.011 C 
ATOM     20  C   UNL     1      18.570   5.406  19.988  0.00  0.00    +0.010 C 
ENDROOT
BRANCH  15   4
ATOM      3  O   UNL     1      21.646   4.389  22.863  0.00  0.00    -0.268 OA
ATOM      4  N   UNL     1      21.304   5.762  21.026  0.00  0.00    -0.307 N 
ATOM     23  C   UNL     1      21.943   4.755  21.728  0.00  0.00    +0.264 C 
ATOM     32  H   UNL     1      21.661   6.033  20.113  0.00  0.00    +0.149 HD
BRANCH  23  28
ATOM      6  N   UNL     1      23.910   4.921  20.342  0.00  0.00    -0.247 NA
ATOM      7  N   UNL     1      24.317   2.149  20.464  0.00  0.00    -0.259 NA
ATOM     28  C   UNL     1      23.086   4.109  21.033  0.00  0.00    +0.143 A 
ATOM     29  C   UNL     1      23.285   2.747  21.092  0.00  0.00    +0.143 A 
ATOM     30  C   UNL     1      24.942   4.323  19.714  0.00  0.00    +0.131 A 
ATOM     31  C   UNL     1      25.141   2.961  19.773  0.00  0.00    +0.130 A 
ENDBRANCH  23  28
ENDBRANCH  15   4
BRANCH  11   1
ATOM      1  O   UNL     1      16.093   6.692  19.876  0.00  0.00    -0.391 OA
ATOM     33  H   UNL     1      16.217   6.507  18.930  0.00  0.00    +0.210 HD
ENDBRANCH  11   1
BRANCH  13  19
ATOM     19  C   UNL     1      14.549   9.193  19.840  0.00  0.00    +0.078 C 
ATOM     21  C   UNL     1      14.947  10.352  18.945  0.00  0.00    +0.017 C 
BRANCH  19  22
ATOM      2  O   UNL     1      13.082  10.717  20.934  0.00  0.00    -0.275 OA
ATOM      5  N   UNL     1      12.496   8.483  20.965  0.00  0.00    -0.301 N 
ATOM     22  C   UNL     1      13.313   9.547  20.627  0.00  0.00    +0.219 C 
ATOM     24  C   UNL     1      11.268   8.657  21.728  0.00  0.00    +0.108 C 
ATOM     25  C   UNL     1      12.709   7.078  20.629  0.00  0.00    +0.108 C 
ATOM     26  C   UNL     1      10.543   7.329  21.589  0.00  0.00    +0.020 C 
ATOM     27  C   UNL     1      11.685   6.328  21.469  0.00  0.00    +0.020 C 
ENDBRANCH  19  22
ENDBRANCH  13  19
TORSDOF 5
ENDMDL
MODEL 6
REMARK VINA RESULT:      -6.7     18.873     19.986
REMARK  Name = 45361549
REMARK  8 active torsions:
REMARK  status: ('A' for Active; 'I' for Inactive)
REMARK    1  A    between atoms: O_1  and  C_11
REMARK    2  A    between atoms: N_4  and  C_15
REMARK    3  A    between atoms: C_8  and  C_18
REMARK    4  A    between atoms: C_10  and  C_20
REMARK    5  A    between atoms: C_13  and  C_19
REMARK    6  A    between atoms: C_19  and  C_21
REMARK    7  A    between atoms: C_19  and  C_22
REMARK    8  A    between atoms: C_23  and  C_28
REMARK                            x       y       z     vdW  Elec       q    Type
REMARK                         _______ _______ _______ _____ _____    ______ ____
ROOT
ATOM      8  C   UNL     1     -17.168   5.788  20.961  0.00  0.00    -0.027 C 
ATOM      9  C   UNL     1     -15.655   5.703  21.352  0.00  0.00    +0.028 C 
ATOM     10  C   UNL     1     -15.490   5.282  22.856  0.00  0.00    +0.012 C 
ATOM     11  C   UNL     1     -14.890   6.990  20.931  0.00  0.00    +0.122 C 
ATOM     12  C   UNL     1     -17.294   6.094  19.450  0.00  0.00    +0.007 C 
ATOM     13  C   UNL     1     -15.104   7.348  19.441  0.00  0.00    +0.029 C 
ATOM     14  C   UNL     1     -17.834   4.418  21.221  0.00  0.00    +0.009 C 
ATOM     15  C   UNL     1     -16.227   3.939  23.124  0.00  0.00    +0.076 C 
ATOM     16  C   UNL     1     -16.579   7.374  19.040  0.00  0.00    +0.007 C 
ATOM     17  C   UNL     1     -17.683   3.943  22.660  0.00  0.00    +0.023 C 
ATOM     18  C   UNL     1     -17.926   6.883  21.755  0.00  0.00    +0.011 C 
ATOM     20  C   UNL     1     -14.023   5.149  23.302  0.00  0.00    +0.010 C 
ENDROOT
BRANCH  15   4
ATOM      3  O   UNL     1     -16.816   1.363  24.247  0.00  0.00    -0.268 OA
ATOM      4  N   UNL     1     -16.194   3.579  24.526  0.00  0.00    -0.307 N 
ATOM     23  C   UNL     1     -16.495   2.303  24.970  0.00  0.00    +0.264 C 
ATOM     32  H   UNL     1     -15.996   4.307  25.207  0.00  0.00    +0.149 HD
BRANCH  23  28
ATOM      6  N   UNL     1     -16.000   3.141  27.177  0.00  0.00    -0.247 NA
ATOM      7  N   UNL     1     -16.775   0.715  28.350  0.00  0.00    -0.259 NA
ATOM     28  C   UNL     1     -16.442   2.102  26.441  0.00  0.00    +0.143 A 
ATOM     29  C   UNL     1     -16.822   0.910  27.017  0.00  0.00    +0.143 A 
ATOM     30  C   UNL     1     -15.953   2.946  28.510  0.00  0.00    +0.131 A 
ATOM     31  C   UNL     1     -16.333   1.753  29.086  0.00  0.00    +0.130 A 
ENDBRANCH  23  28
ENDBRANCH  15   4
BRANCH  11   1
ATOM      1  O   UNL     1     -13.486   6.789  21.105  0.00  0.00    -0.391 OA
ATOM     33  H   UNL     1     -13.207   6.075  20.506  0.00  0.00    +0.210 HD
ENDBRANCH  11   1
BRANCH  13  19
ATOM     19  C   UNL     1     -14.451   8.687  19.079  0.00  0.00    +0.078 C 
ATOM     21  C   UNL     1     -15.485   9.694  18.610  0.00  0.00    +0.017 C 
BRANCH  19  22
ATOM      2  O   UNL     1     -13.768   7.935  16.925  0.00  0.00    -0.275 OA
ATOM      5  N   UNL     1     -12.139   8.833  18.293  0.00  0.00    -0.301 N 
ATOM     22  C   UNL     1     -13.432   8.448  17.993  0.00  0.00    +0.219 C 
ATOM     24  C   UNL     1     -11.039   8.664  17.354  0.00  0.00    +0.108 C 
ATOM     25  C   UNL     1     -11.677   9.449  19.535  0.00  0.00    +0.108 C 
ATOM     26  C   UNL     1      -9.908   9.496  17.938  0.00  0.00    +0.020 C 
ATOM     27  C   UNL     1     -10.159   9.403  19.438  0.00  0.00    +0.020 C 
ENDBRANCH  19  22
ENDBRANCH  13  19
TORSDOF 5
ENDMDL
MODEL 7
REMARK VINA RESULT:      -6.7     28.400     31.150
REMARK  Name = 45361549
REMARK  8 active torsions:
REMARK  status: ('A' for Active; 'I' for Inactive)
REMARK    1  A    between atoms: O_1  and  C_11
REMARK    2  A    between atoms: N_4  and  C_15
REMARK    3  A    between atoms: C_8  and  C_18
REMARK    4  A    between atoms: C_10  and  C_20
REMARK    5  A    between atoms: C_13  and  C_19
REMARK    6  A    between atoms: C_19  and  C_21
REMARK    7  A    between atoms: C_19  and  C_22
REMARK    8  A    between atoms: C_23  and  C_28
REMARK                            x       y       z     vdW  Elec       q    Type
REMARK                         _______ _______ _______ _____ _____    ______ ____
ROOT
ATOM      8  C   UNL     1      15.548   7.208  19.433  0.00  0.00    -0.027 C 
ATOM      9  C   UNL     1      16.202   8.553  19.894  0.00  0.00    +0.028 C 
ATOM     10  C   UNL     1      17.121   8.326  21.148  0.00  0.00    +0.012 C 
ATOM     11  C   UNL     1      15.137   9.677  20.041  0.00  0.00    +0.122 C 
ATOM     12  C   UNL     1      14.743   7.445  18.133  0.00  0.00    +0.007 C 
ATOM     13  C   UNL     1      14.265   9.839  18.774  0.00  0.00    +0.029 C 
ATOM     14  C   UNL     1      16.665   6.187  19.114  0.00  0.00    +0.009 C 
ATOM     15  C   UNL     1      18.194   7.243  20.840  0.00  0.00    +0.076 C 
ATOM     16  C   UNL     1      13.673   8.518  18.285  0.00  0.00    +0.007 C 
ATOM     17  C   UNL     1      17.606   5.945  20.286  0.00  0.00    +0.023 C 
ATOM     18  C   UNL     1      14.601   6.610  20.503  0.00  0.00    +0.011 C 
ATOM     20  C   UNL     1      17.821   9.604  21.638  0.00  0.00    +0.010 C 
ENDROOT
BRANCH  15   4
ATOM      3  O   UNL     1      20.994   6.611  20.896  0.00  0.00    -0.268 OA
ATOM      4  N   UNL     1      18.986   6.924  22.010  0.00  0.00    -0.307 N 
ATOM     23  C   UNL     1      20.336   6.632  21.933  0.00  0.00    +0.264 C 
ATOM     32  H   UNL     1      18.514   6.859  22.909  0.00  0.00    +0.149 HD
BRANCH  23  28
ATOM      6  N   UNL     1      21.942   5.338  23.184  0.00  0.00    -0.247 NA
ATOM      7  N   UNL     1      21.251   6.649  25.565  0.00  0.00    -0.259 NA
ATOM     28  C   UNL     1      20.999   6.300  23.220  0.00  0.00    +0.143 A 
ATOM     29  C   UNL     1      20.659   6.943  24.390  0.00  0.00    +0.143 A 
ATOM     30  C   UNL     1      22.534   5.043  24.358  0.00  0.00    +0.131 A 
ATOM     31  C   UNL     1      22.194   5.687  25.528  0.00  0.00    +0.130 A 
ENDBRANCH  23  28
ENDBRANCH  15   4
BRANCH  11   1
ATOM      1  O   UNL     1      15.792  10.929  20.250  0.00  0.00    -0.391 OA
ATOM     33  H   UNL     1      16.743  10.803  20.093  0.00  0.00    +0.210 HD
ENDBRANCH  11   1
BRANCH  13  19
ATOM     19  C   UNL     1      13.140  10.859  18.986  0.00  0.00    +0.078 C 
ATOM     21  C   UNL     1      13.525  12.222  18.442  0.00  0.00    +0.017 C 
BRANCH  19  22
ATOM      2  O   UNL     1      13.373  11.834  21.146  0.00  0.00    -0.275 OA
ATOM      5  N   UNL     1      11.981  10.000  20.961  0.00  0.00    -0.301 N 
ATOM     22  C   UNL     1      12.849  10.953  20.462  0.00  0.00    +0.219 C 
ATOM     24  C   UNL     1      11.603   9.951  22.367  0.00  0.00    +0.108 C 
ATOM     25  C   UNL     1      11.324   8.936  20.206  0.00  0.00    +0.108 C 
ATOM     26  C   UNL     1      10.421   8.996  22.410  0.00  0.00    +0.020 C 
ATOM     27  C   UNL     1      10.723   8.030  21.271  0.00  0.00    +0.020 C 
ENDBRANCH  19  22
ENDBRANCH  13  19
TORSDOF 5
ENDMDL
MODEL 8
REMARK VINA RESULT:      -6.6     27.655     31.215
REMARK  Name = 45361549
REMARK  8 active torsions:
REMARK  status: ('A' for Active; 'I' for Inactive)
REMARK    1  A    between atoms: O_1  and  C_11
REMARK    2  A    between atoms: N_4  and  C_15
REMARK    3  A    between atoms: C_8  and  C_18
REMARK    4  A    between atoms: C_10  and  C_20
REMARK    5  A    between atoms: C_13  and  C_19
REMARK    6  A    between atoms: C_19  and  C_21
REMARK    7  A    between atoms: C_19  and  C_22
REMARK    8  A    between atoms: C_23  and  C_28
REMARK                            x       y       z     vdW  Elec       q    Type
REMARK                         _______ _______ _______ _____ _____    ______ ____
ROOT
ATOM      8  C   UNL     1      12.445   8.984  17.442  0.00  0.00    -0.027 C 
ATOM      9  C   UNL     1      13.189  10.206  18.076  0.00  0.00    +0.028 C 
ATOM     10  C   UNL     1      14.458  10.586  17.232  0.00  0.00    +0.012 C 
ATOM     11  C   UNL     1      13.438   9.988  19.596  0.00  0.00    +0.122 C 
ATOM     12  C   UNL     1      11.142   8.708  18.230  0.00  0.00    +0.007 C 
ATOM     13  C   UNL     1      12.148   9.610  20.362  0.00  0.00    +0.029 C 
ATOM     14  C   UNL     1      12.050   9.333  15.989  0.00  0.00    +0.009 C 
ATOM     15  C   UNL     1      14.060  10.862  15.755  0.00  0.00    +0.076 C 
ATOM     16  C   UNL     1      11.386   8.455  19.712  0.00  0.00    +0.007 C 
ATOM     17  C   UNL     1      13.238   9.737  15.127  0.00  0.00    +0.023 C 
ATOM     18  C   UNL     1      13.308   7.697  17.441  0.00  0.00    +0.011 C 
ATOM     20  C   UNL     1      15.224  11.801  17.784  0.00  0.00    +0.010 C 
ENDROOT
BRANCH  15   4
ATOM      3  O   UNL     1      14.358  12.929  13.785  0.00  0.00    -0.268 OA
ATOM      4  N   UNL     1      15.220  11.102  14.922  0.00  0.00    -0.307 N 
ATOM     23  C   UNL     1      15.267  12.130  13.997  0.00  0.00    +0.264 C 
ATOM     32  H   UNL     1      16.001  10.455  14.984  0.00  0.00    +0.149 HD
BRANCH  23  28
ATOM      6  N   UNL     1      16.392  12.139  11.863  0.00  0.00    -0.247 NA
ATOM      7  N   UNL     1      18.886  12.478  13.099  0.00  0.00    -0.259 NA
ATOM     28  C   UNL     1      16.518  12.226  13.202  0.00  0.00    +0.143 A 
ATOM     29  C   UNL     1      17.744  12.392  13.809  0.00  0.00    +0.143 A 
ATOM     30  C   UNL     1      17.534  12.225  11.153  0.00  0.00    +0.131 A 
ATOM     31  C   UNL     1      18.760  12.390  11.761  0.00  0.00    +0.130 A 
ENDBRANCH  23  28
ENDBRANCH  15   4
BRANCH  11   1
ATOM      1  O   UNL     1      13.919  11.200  20.179  0.00  0.00    -0.391 OA
ATOM     33  H   UNL     1      13.690  11.933  19.584  0.00  0.00    +0.210 HD
ENDBRANCH  11   1
BRANCH  13  19
ATOM     19  C   UNL     1      12.437   9.271  21.830  0.00  0.00    +0.078 C 
ATOM     21  C   UNL     1      12.480   7.771  22.048  0.00  0.00    +0.017 C 
BRANCH  19  22
ATOM      2  O   UNL     1      10.204   9.469  22.633  0.00  0.00    -0.275 OA
ATOM      5  N   UNL     1      11.770  10.929  23.500  0.00  0.00    -0.301 N 
ATOM     22  C   UNL     1      11.361   9.889  22.686  0.00  0.00    +0.219 C 
ATOM     24  C   UNL     1      10.851  11.635  24.382  0.00  0.00    +0.108 C 
ATOM     25  C   UNL     1      13.122  11.469  23.613  0.00  0.00    +0.108 C 
ATOM     26  C   UNL     1      11.752  12.444  25.301  0.00  0.00    +0.020 C 
ATOM     27  C   UNL     1      12.952  12.751  24.416  0.00  0.00    +0.020 C 
ENDBRANCH  19  22
ENDBRANCH  13  19
TORSDOF 5
ENDMDL
MODEL 9
REMARK VINA RESULT:      -6.5      3.847      9.291
REMARK  Name = 45361549
REMARK  8 active torsions:
REMARK  status: ('A' for Active; 'I' for Inactive)
REMARK    1  A    between atoms: O_1  and  C_11
REMARK    2  A    between atoms: N_4  and  C_15
REMARK    3  A    between atoms: C_8  and  C_18
REMARK    4  A    between atoms: C_10  and  C_20
REMARK    5  A    between atoms: C_13  and  C_19
REMARK    6  A    between atoms: C_19  and  C_21
REMARK    7  A    between atoms: C_19  and  C_22
REMARK    8  A    between atoms: C_23  and  C_28
REMARK                            x       y       z     vdW  Elec       q    Type
REMARK                         _______ _______ _______ _____ _____    ______ ____
ROOT
ATOM      8  C   UNL     1      -3.955 -10.583  10.425  0.00  0.00    -0.027 C 
ATOM      9  C   UNL     1      -5.283 -10.591  11.252  0.00  0.00    +0.028 C 
ATOM     10  C   UNL     1      -6.378  -9.703  10.561  0.00  0.00    +0.012 C 
ATOM     11  C   UNL     1      -5.015 -10.275  12.752  0.00  0.00    +0.122 C 
ATOM     12  C   UNL     1      -2.938 -11.553  11.071  0.00  0.00    +0.007 C 
ATOM     13  C   UNL     1      -3.922 -11.182  13.365  0.00  0.00    +0.029 C 
ATOM     14  C   UNL     1      -4.249 -11.092   8.995  0.00  0.00    +0.009 C 
ATOM     15  C   UNL     1      -6.612 -10.178   9.098  0.00  0.00    +0.076 C 
ATOM     16  C   UNL     1      -2.644 -11.223  12.528  0.00  0.00    +0.007 C 
ATOM     17  C   UNL     1      -5.324 -10.285   8.282  0.00  0.00    +0.023 C 
ATOM     18  C   UNL     1      -3.315  -9.173  10.343  0.00  0.00    +0.011 C 
ATOM     20  C   UNL     1      -7.723  -9.689  11.307  0.00  0.00    +0.010 C 
ENDROOT
BRANCH  15   4
ATOM      3  O   UNL     1      -8.575 -10.971   7.159  0.00  0.00    -0.268 OA
ATOM      4  N   UNL     1      -7.531  -9.309   8.393  0.00  0.00    -0.307 N 
ATOM     23  C   UNL     1      -8.445  -9.790   7.472  0.00  0.00    +0.264 C 
ATOM     32  H   UNL     1      -7.458  -8.306   8.542  0.00  0.00    +0.149 HD
BRANCH  23  28
ATOM      6  N   UNL     1      -9.485  -7.614   7.485  0.00  0.00    -0.247 NA
ATOM      7  N   UNL     1     -10.649  -8.075   4.977  0.00  0.00    -0.259 NA
ATOM     28  C   UNL     1      -9.298  -8.767   6.814  0.00  0.00    +0.143 A 
ATOM     29  C   UNL     1      -9.871  -8.994   5.582  0.00  0.00    +0.143 A 
ATOM     30  C   UNL     1     -10.262  -6.694   6.880  0.00  0.00    +0.131 A 
ATOM     31  C   UNL     1     -10.835  -6.921   5.648  0.00  0.00    +0.130 A 
ENDBRANCH  23  28
ENDBRANCH  15   4
BRANCH  11   1
ATOM      1  O   UNL     1      -6.207 -10.503  13.507  0.00  0.00    -0.391 OA
ATOM     33  H   UNL     1      -6.118 -11.360  13.959  0.00  0.00    +0.210 HD
ENDBRANCH  11   1
BRANCH  13  19
ATOM     19  C   UNL     1      -3.581 -10.768  14.802  0.00  0.00    +0.078 C 
ATOM     21  C   UNL     1      -2.129 -10.345  14.921  0.00  0.00    +0.017 C 
BRANCH  19  22
ATOM      2  O   UNL     1      -3.531 -13.076  15.388  0.00  0.00    -0.275 OA
ATOM      5  N   UNL     1      -4.490 -11.623  16.905  0.00  0.00    -0.301 N 
ATOM     22  C   UNL     1      -3.858 -11.935  15.716  0.00  0.00    +0.219 C 
ATOM     24  C   UNL     1      -4.832 -12.637  17.894  0.00  0.00    +0.108 C 
ATOM     25  C   UNL     1      -4.899 -10.295  17.355  0.00  0.00    +0.108 C 
ATOM     26  C   UNL     1      -5.194 -11.846  19.140  0.00  0.00    +0.020 C 
ATOM     27  C   UNL     1      -5.778 -10.560  18.569  0.00  0.00    +0.020 C 
ENDBRANCH  19  22
ENDBRANCH  13  19
TORSDOF 5
ENDMDL
MODEL 10
REMARK VINA RESULT:      -6.5     18.345     20.503
REMARK  Name = 45361549
REMARK  8 active torsions:
REMARK  status: ('A' for Active; 'I' for Inactive)
REMARK    1  A    between atoms: O_1  and  C_11
REMARK    2  A    between atoms: N_4  and  C_15
REMARK    3  A    between atoms: C_8  and  C_18
REMARK    4  A    between atoms: C_10  and  C_20
REMARK    5  A    between atoms: C_13  and  C_19
REMARK    6  A    between atoms: C_19  and  C_21
REMARK    7  A    between atoms: C_19  and  C_22
REMARK    8  A    between atoms: C_23  and  C_28
REMARK                            x       y       z     vdW  Elec       q    Type
REMARK                         _______ _______ _______ _____ _____    ______ ____
ROOT
ATOM      8  C   UNL     1     -15.787   8.297  21.635  0.00  0.00    -0.027 C 
ATOM      9  C   UNL     1     -14.572   7.315  21.553  0.00  0.00    +0.028 C 
ATOM     10  C   UNL     1     -14.598   6.293  22.746  0.00  0.00    +0.012 C 
ATOM     11  C   UNL     1     -13.235   8.086  21.362  0.00  0.00    +0.122 C 
ATOM     12  C   UNL     1     -15.795   9.214  20.389  0.00  0.00    +0.007 C 
ATOM     13  C   UNL     1     -13.284   9.077  20.176  0.00  0.00    +0.029 C 
ATOM     14  C   UNL     1     -17.099   7.480  21.626  0.00  0.00    +0.009 C 
ATOM     15  C   UNL     1     -15.952   5.529  22.772  0.00  0.00    +0.076 C 
ATOM     16  C   UNL     1     -14.502  10.000  20.220  0.00  0.00    +0.007 C 
ATOM     17  C   UNL     1     -17.171   6.452  22.747  0.00  0.00    +0.023 C 
ATOM     18  C   UNL     1     -15.748   9.186  22.905  0.00  0.00    +0.011 C 
ATOM     20  C   UNL     1     -13.445   5.276  22.711  0.00  0.00    +0.010 C 
ENDROOT
BRANCH  15   4
ATOM      3  O   UNL     1     -16.395   2.692  22.753  0.00  0.00    -0.268 OA
ATOM      4  N   UNL     1     -16.057   4.663  23.927  0.00  0.00    -0.307 N 
ATOM     23  C   UNL     1     -16.272   3.300  23.813  0.00  0.00    +0.264 C 
ATOM     32  H   UNL     1     -16.028   5.084  24.852  0.00  0.00    +0.149 HD
BRANCH  23  28
ATOM      6  N   UNL     1     -16.745   1.260  25.010  0.00  0.00    -0.247 NA
ATOM      7  N   UNL     1     -16.230   2.500  27.472  0.00  0.00    -0.259 NA
ATOM     28  C   UNL     1     -16.383   2.555  25.094  0.00  0.00    +0.143 A 
ATOM     29  C   UNL     1     -16.130   3.165  26.303  0.00  0.00    +0.143 A 
ATOM     30  C   UNL     1     -16.845   0.596  26.178  0.00  0.00    +0.131 A 
ATOM     31  C   UNL     1     -16.592   1.205  27.388  0.00  0.00    +0.130 A 
ENDBRANCH  23  28
ENDBRANCH  15   4
BRANCH  11   1
ATOM      1  O   UNL     1     -12.186   7.158  21.076  0.00  0.00    -0.391 OA
ATOM     33  H   UNL     1     -11.376   7.476  21.509  0.00  0.00    +0.210 HD
ENDBRANCH  11   1
BRANCH  13  19
ATOM     19  C   UNL     1     -12.006   9.920  20.086  0.00  0.00    +0.078 C 
ATOM     21  C   UNL     1     -11.940  10.938  21.209  0.00  0.00    +0.017 C 
BRANCH  19  22
ATOM      2  O   UNL     1     -12.446  11.756  18.634  0.00  0.00    -0.275 OA
ATOM      5  N   UNL     1     -11.428   9.900  17.709  0.00  0.00    -0.301 N 
ATOM     22  C   UNL     1     -11.984  10.620  18.751  0.00  0.00    +0.219 C 
ATOM     24  C   UNL     1     -11.337  10.433  16.357  0.00  0.00    +0.108 C 
ATOM     25  C   UNL     1     -10.861   8.556  17.781  0.00  0.00    +0.108 C 
ATOM     26  C   UNL     1     -10.393   9.483  15.637  0.00  0.00    +0.020 C 
ATOM     27  C   UNL     1     -10.658   8.152  16.328  0.00  0.00    +0.020 C 
ENDBRANCH  19  22
ENDBRANCH  13  19
TORSDOF 5
ENDMDL
