REMARK  Name = 75536823
REMARK  6 active torsions:
REMARK  status: ('A' for Active; 'I' for Inactive)
REMARK    1  A    between atoms: O_4  and  C_9
REMARK    2  A    between atoms: N_6  and  C_8
REMARK    3  A    between atoms: N_6  and  C_11
REMARK    4  A    between atoms: N_7  and  C_15
REMARK    5  A    between atoms: C_10  and  C_15
REMARK    6  A    between atoms: C_16  and  C_17
REMARK                            x       y       z     vdW  Elec       q    Type
REMARK                         _______ _______ _______ _____ _____    ______ ____
ROOT
ATOM      2  O   UNL     1      -0.987  -1.033   0.535  0.00  0.00    -0.371 OA
ATOM      8  C   UNL     1      -3.168  -0.232   0.042  0.00  0.00    +0.111 C 
ATOM      9  C   UNL     1      -2.339   0.906   0.608  0.00  0.00    +0.164 C 
ATOM     10  C   UNL     1      -0.927   0.392   0.359  0.00  0.00    +0.165 C 
ATOM     12  C   UNL     1      -2.366  -1.441   0.493  0.00  0.00    +0.181 C 
ENDROOT
BRANCH   9   4
ATOM      4  O   UNL     1      -2.576   2.135  -0.051  0.00  0.00    -0.388 OA
ATOM     24  H   UNL     1      -2.410   2.010  -1.001  0.00  0.00    +0.210 HD
ENDBRANCH   9   4
BRANCH   8   6
ATOM      6  N   UNL     1      -4.539  -0.250   0.525  0.00  0.00    -0.302 NA
ATOM     23  H   UNL     1      -4.563  -0.555   1.498  0.00  0.00    +0.123 HD
BRANCH   6  11
ATOM      3  O   UNL     1      -7.159   0.004  -0.853  0.00  0.00    -0.377 OA
ATOM     11  C   UNL     1      -5.368  -1.057  -0.379  0.00  0.00    +0.106 C 
ATOM     13  C   UNL     1      -6.816  -1.025   0.111  0.00  0.00    +0.180 C 
ATOM     14  C   UNL     1      -5.880  -0.172  -1.516  0.00  0.00    +0.180 C 
ENDBRANCH   6  11
ENDBRANCH   8   6
BRANCH  10  15
ATOM     15  C   UNL     1       0.102   0.983   1.306  0.00  0.00    +0.138 C 
BRANCH  15   7
ATOM      5  O   UNL     1       2.044   2.091  -0.496  0.00  0.00    -0.270 OA
ATOM      7  N   UNL     1       1.414   0.468   1.038  0.00  0.00    -0.309 N 
ATOM     16  C   UNL     1       2.293   1.073   0.144  0.00  0.00    +0.244 C 
ATOM     25  H   UNL     1       1.656  -0.411   1.481  0.00  0.00    +0.149 HD
BRANCH  16  17
ATOM      1  F   UNL     1       7.252  -1.464  -0.560  0.00  0.00    -0.205 F 
ATOM     17  C   UNL     1       3.605   0.401  -0.042  0.00  0.00    +0.037 A 
ATOM     18  C   UNL     1       4.300   0.549  -1.243  0.00  0.00    +0.016 A 
ATOM     19  C   UNL     1       4.142  -0.378   0.983  0.00  0.00    +0.016 A 
ATOM     20  C   UNL     1       5.531  -0.081  -1.418  0.00  0.00    +0.039 A 
ATOM     21  C   UNL     1       5.374  -1.008   0.807  0.00  0.00    +0.039 A 
ATOM     22  C   UNL     1       6.069  -0.860  -0.393  0.00  0.00    +0.123 A 
ENDBRANCH  16  17
ENDBRANCH  15   7
ENDBRANCH  10  15
TORSDOF 6
