REMARK  Name = 7155387
REMARK  6 active torsions:
REMARK  status: ('A' for Active; 'I' for Inactive)
REMARK    1  A    between atoms: O_5  and  C_23
REMARK    2  A    between atoms: O_6  and  C_31
REMARK    3  A    between atoms: O_6  and  C_33
REMARK    4  A    between atoms: N_7  and  C_16
REMARK    5  A    between atoms: C_16  and  C_21
REMARK    6  A    between atoms: C_17  and  C_22
REMARK                            x       y       z     vdW  Elec       q    Type
REMARK                         _______ _______ _______ _____ _____    ______ ____
ROOT
ATOM      4  O   UNL     1       3.906   3.486  -1.277  0.00  0.00    -0.268 OA
ATOM      7  N   UNL     1       2.593  -0.635   1.203  0.00  0.00    -0.297 NA
ATOM      8  N   UNL     1       2.357   2.313   0.031  0.00  0.00    -0.311 N 
ATOM      9  C   UNL     1       2.919   1.532   2.410  0.00  0.00    +0.024 C 
ATOM     10  C   UNL     1       0.730   1.018   1.442  0.00  0.00    +0.051 C 
ATOM     11  C   UNL     1       1.422   1.660   2.641  0.00  0.00    +0.017 C 
ATOM     12  C   UNL     1       3.316   0.047   2.283  0.00  0.00    +0.090 C 
ATOM     13  C   UNL     1       1.140  -0.471   1.349  0.00  0.00    +0.094 C 
ATOM     14  C   UNL     1       3.289   2.345   1.167  0.00  0.00    +0.130 C 
ATOM     15  C   UNL     1       1.068   1.757   0.143  0.00  0.00    +0.034 A 
ATOM     17  C   UNL     1       0.189   1.874  -0.886  0.00  0.00    +0.002 A 
ATOM     18  C   UNL     1       2.797   2.971  -1.131  0.00  0.00    +0.252 A 
ATOM     19  C   UNL     1       0.608   2.542  -2.103  0.00  0.00    +0.015 A 
ATOM     20  C   UNL     1       1.830   3.054  -2.249  0.00  0.00    +0.071 A 
ENDROOT
BRANCH  17  22
ATOM     22  C   UNL     1      -1.182   1.324  -0.805  0.00  0.00    -0.016 A 
ATOM     25  C   UNL     1      -1.425   0.015  -1.208  0.00  0.00    +0.012 A 
ATOM     26  C   UNL     1      -2.219   2.119  -0.326  0.00  0.00    +0.012 A 
ATOM     29  C   UNL     1      -2.718  -0.504  -1.131  0.00  0.00    +0.046 A 
ATOM     30  C   UNL     1      -3.511   1.600  -0.249  0.00  0.00    +0.046 A 
ATOM     31  C   UNL     1      -3.760   0.288  -0.652  0.00  0.00    +0.130 A 
BRANCH  31   6
ATOM      6  O   UNL     1      -5.021  -0.219  -0.576  0.00  0.00    -0.406 OA
BRANCH   6  33
ATOM      1  F   UNL     1      -6.483  -1.337   0.730  0.00  0.00    -0.133 F 
ATOM      2  F   UNL     1      -4.741  -0.426   1.684  0.00  0.00    -0.133 F 
ATOM      3  F   UNL     1      -6.388   0.837   0.923  0.00  0.00    -0.133 F 
ATOM     33  C   UNL     1      -5.651  -0.272   0.699  0.00  0.00    +0.575 C 
ENDBRANCH   6  33
ENDBRANCH  31   6
ENDBRANCH  17  22
BRANCH   7  16
ATOM     16  C   UNL     1       2.957  -2.049   1.141  0.00  0.00    +0.123 C 
BRANCH  16  21
ATOM     21  C   UNL     1       2.307  -2.746  -0.019  0.00  0.00    +0.008 A 
ATOM     23  C   UNL     1       1.713  -3.992   0.149  0.00  0.00    +0.121 A 
ATOM     24  C   UNL     1       2.311  -2.126  -1.264  0.00  0.00    +0.008 A 
ATOM     27  C   UNL     1       1.116  -4.626  -0.940  0.00  0.00    +0.046 A 
ATOM     28  C   UNL     1       1.713  -2.760  -2.354  0.00  0.00    +0.001 A 
ATOM     32  C   UNL     1       1.116  -4.010  -2.191  0.00  0.00    +0.004 A 
BRANCH  23   5
ATOM      5  O   UNL     1       1.704  -4.607   1.365  0.00  0.00    -0.506 OA
ATOM     34  H   UNL     1       1.246  -5.462   1.285  0.00  0.00    +0.292 HD
ENDBRANCH  23   5
ENDBRANCH  16  21
ENDBRANCH   7  16
TORSDOF 6
