REMARK  Name = 26763568
REMARK  2 active torsions:
REMARK  status: ('A' for Active; 'I' for Inactive)
REMARK    1  A    between atoms: C_17  and  C_20
REMARK    2  A    between atoms: C_21  and  C_23
REMARK                            x       y       z     vdW  Elec       q    Type
REMARK                         _______ _______ _______ _____ _____    ______ ____
ROOT
ATOM      3  O   UNL     1       1.894  -2.316   0.202  0.00  0.00    -0.273 OA
ATOM      4  O   UNL     1      -1.097   1.789  -1.262  0.00  0.00    -0.270 OA
ATOM      5  O   UNL     1       4.773  -0.556   2.442  0.00  0.00    -0.270 OA
ATOM      6  N   UNL     1       0.489   0.657  -0.016  0.00  0.00    -0.283 N 
ATOM      7  N   UNL     1       3.213   0.281   0.916  0.00  0.00    -0.294 N 
ATOM      8  N   UNL     1      -0.348  -2.176  -0.164  0.00  0.00    -0.283 N 
ATOM      9  C   UNL     1       0.786  -0.330   1.012  0.00  0.00    +0.180 C 
ATOM     10  C   UNL     1       2.071  -0.010   1.786  0.00  0.00    +0.140 C 
ATOM     11  C   UNL     1       1.552   1.597  -0.372  0.00  0.00    +0.128 C 
ATOM     12  C   UNL     1       2.920   0.929  -0.367  0.00  0.00    +0.127 C 
ATOM     13  C   UNL     1       0.849  -1.670   0.296  0.00  0.00    +0.239 C 
ATOM     14  C   UNL     1      -0.788   0.842  -0.538  0.00  0.00    +0.249 C 
ATOM     15  C   UNL     1      -1.840  -0.167  -0.241  0.00  0.00    +0.059 A 
ATOM     16  C   UNL     1      -1.613  -1.552  -0.177  0.00  0.00    +0.046 A 
ATOM     17  C   UNL     1       4.503  -0.014   1.371  0.00  0.00    +0.247 C 
ATOM     18  C   UNL     1      -3.161   0.317  -0.206  0.00  0.00    +0.023 A 
ATOM     19  C   UNL     1      -2.717  -2.422  -0.150  0.00  0.00    +0.024 A 
ATOM     21  C   UNL     1      -4.243  -0.559  -0.130  0.00  0.00    -0.017 A 
ATOM     22  C   UNL     1      -4.022  -1.930  -0.116  0.00  0.00    +0.010 A 
ATOM     34  H   UNL     1      -0.332  -3.156  -0.437  0.00  0.00    +0.155 HD
ENDROOT
BRANCH  21  23
ATOM      1 CL   UNL     1      -9.806   1.569   0.036  0.00  0.00    -0.084 Cl
ATOM     23  C   UNL     1      -5.594  -0.042  -0.091  0.00  0.00    -0.018 A 
ATOM     28  C   UNL     1      -6.639  -0.779  -0.646  0.00  0.00    +0.010 A 
ATOM     29  C   UNL     1      -5.850   1.193   0.504  0.00  0.00    +0.010 A 
ATOM     31  C   UNL     1      -7.942  -0.281  -0.607  0.00  0.00    +0.020 A 
ATOM     32  C   UNL     1      -7.153   1.692   0.543  0.00  0.00    +0.020 A 
ATOM     33  C   UNL     1      -8.198   0.954  -0.013  0.00  0.00    +0.041 A 
ENDBRANCH  21  23
BRANCH  17  20
ATOM      2  F   UNL     1       7.654  -1.110  -2.150  0.00  0.00    -0.205 F 
ATOM     20  C   UNL     1       5.640   0.344   0.508  0.00  0.00    +0.040 A 
ATOM     24  C   UNL     1       6.118  -0.571  -0.430  0.00  0.00    +0.051 A 
ATOM     25  C   UNL     1       6.240   1.597   0.629  0.00  0.00    +0.013 A 
ATOM     26  C   UNL     1       7.196  -0.232  -1.249  0.00  0.00    +0.124 A 
ATOM     27  C   UNL     1       7.318   1.936  -0.189  0.00  0.00    +0.004 A 
ATOM     30  C   UNL     1       7.796   1.022  -1.128  0.00  0.00    +0.038 A 
ENDBRANCH  17  20
TORSDOF 2
