MODEL 1
REMARK VINA RESULT:      -6.3      0.000      0.000
REMARK  Name = 25389536
REMARK  13 active torsions:
REMARK  status: ('A' for Active; 'I' for Inactive)
REMARK    1  A    between atoms: O_1  and  C_17
REMARK    2  A    between atoms: O_1  and  C_22
REMARK    3  A    between atoms: O_3  and  C_26
REMARK    4  A    between atoms: O_3  and  C_31
REMARK    5  A    between atoms: O_4  and  C_28
REMARK    6  A    between atoms: O_4  and  C_32
REMARK    7  A    between atoms: N_6  and  C_20
REMARK    8  A    between atoms: N_8  and  C_25
REMARK    9  A    between atoms: C_10  and  C_16
REMARK   10  A    between atoms: C_11  and  C_17
REMARK   11  A    between atoms: C_19  and  C_21
REMARK   12  A    between atoms: C_25  and  C_29
REMARK   13  A    between atoms: C_29  and  C_30
REMARK                            x       y       z     vdW  Elec       q    Type
REMARK                         _______ _______ _______ _____ _____    ______ ____
ROOT
ATOM      5  N   UNL     1      -6.623 -10.795  18.236  0.00  0.00    -0.296 NA
ATOM      9  C   UNL     1      -4.458 -12.130  17.676  0.00  0.00    +0.002 C 
ATOM     10  C   UNL     1      -4.443 -10.748  16.968  0.00  0.00    +0.055 C 
ATOM     11  C   UNL     1      -6.975 -12.168  17.789  0.00  0.00    +0.095 C 
ATOM     12  C   UNL     1      -5.726 -12.904  17.257  0.00  0.00    +0.026 C 
ATOM     13  C   UNL     1      -4.576 -11.853  19.190  0.00  0.00    +0.019 C 
ATOM     14  C   UNL     1      -5.841 -10.101  17.183  0.00  0.00    +0.094 C 
ATOM     15  C   UNL     1      -5.769 -10.914  19.442  0.00  0.00    +0.085 C 
ENDROOT
BRANCH  10  16
ATOM      6  N   UNL     1      -2.689 -10.624  15.138  0.00  0.00    -0.270 N 
ATOM      7  N   UNL     1      -2.506 -10.582  13.807  0.00  0.00    -0.171 NA
ATOM     16  C   UNL     1      -3.998 -10.691  15.513  0.00  0.00    +0.044 A 
ATOM     18  C   UNL     1      -4.723 -10.692  14.347  0.00  0.00    +0.053 A 
ATOM     19  C   UNL     1      -3.752 -10.623  13.330  0.00  0.00    +0.093 A 
ATOM     20  C   UNL     1      -1.537 -10.595  16.009  0.00  0.00    +0.172 C 
BRANCH  19  21
ATOM     21  C   UNL     1      -3.994 -10.594  11.910  0.00  0.00    +0.006 A 
ATOM     23  C   UNL     1      -4.660  -9.512  11.337  0.00  0.00    +0.059 A 
ATOM     24  C   UNL     1      -3.561 -11.651  11.108  0.00  0.00    +0.014 A 
ATOM     26  C   UNL     1      -4.894  -9.485   9.962  0.00  0.00    +0.162 A 
ATOM     27  C   UNL     1      -3.795 -11.624   9.733  0.00  0.00    +0.050 A 
ATOM     28  C   UNL     1      -4.461 -10.541   9.160  0.00  0.00    +0.162 A 
BRANCH  26   3
ATOM      3  O   UNL     1      -5.546  -8.422   9.414  0.00  0.00    -0.491 OA
ATOM     31  C   UNL     1      -6.972  -8.462   9.421  0.00  0.00    +0.277 C 
ENDBRANCH  26   3
BRANCH  28   4
ATOM      4  O   UNL     1      -4.684 -10.526   7.816  0.00  0.00    -0.491 OA
ATOM     32  C   UNL     1      -5.184 -11.726   7.229  0.00  0.00    +0.277 C 
ENDBRANCH  28   4
ENDBRANCH  19  21
ENDBRANCH  10  16
BRANCH  11  17
ATOM     17  C   UNL     1      -8.117 -12.174  16.771  0.00  0.00    +0.252 C 
BRANCH  17   1
ATOM      1  O   UNL     1      -9.188 -11.412  17.296  0.00  0.00    -0.449 OA
BRANCH   1  22
ATOM      2  O   UNL     1     -10.400 -10.641  15.504  0.00  0.00    -0.226 OA
ATOM      8  N   UNL     1      -9.296  -9.184  16.933  0.00  0.00    -0.281 N 
ATOM     22  C   UNL     1      -9.695 -10.426  16.484  0.00  0.00    +0.400 C 
ATOM     33  H   UNL     1      -8.713  -9.142  17.763  0.00  0.00    +0.152 HD
BRANCH   8  25
ATOM     25  C   UNL     1      -9.665  -7.944  16.292  0.00  0.00    +0.107 C 
BRANCH  25  29
ATOM     29  C   UNL     1     -10.960  -7.365  16.850  0.00  0.00    +0.015 C 
ATOM     30  C   UNL     1     -11.319  -6.023  16.229  0.00  0.00    +0.005 C 
ENDBRANCH  25  29
ENDBRANCH   8  25
ENDBRANCH   1  22
ENDBRANCH  17   1
ENDBRANCH  11  17
TORSDOF 9
ENDMDL
MODEL 2
REMARK VINA RESULT:      -6.3      2.773      7.903
REMARK  Name = 25389536
REMARK  13 active torsions:
REMARK  status: ('A' for Active; 'I' for Inactive)
REMARK    1  A    between atoms: O_1  and  C_17
REMARK    2  A    between atoms: O_1  and  C_22
REMARK    3  A    between atoms: O_3  and  C_26
REMARK    4  A    between atoms: O_3  and  C_31
REMARK    5  A    between atoms: O_4  and  C_28
REMARK    6  A    between atoms: O_4  and  C_32
REMARK    7  A    between atoms: N_6  and  C_20
REMARK    8  A    between atoms: N_8  and  C_25
REMARK    9  A    between atoms: C_10  and  C_16
REMARK   10  A    between atoms: C_11  and  C_17
REMARK   11  A    between atoms: C_19  and  C_21
REMARK   12  A    between atoms: C_25  and  C_29
REMARK   13  A    between atoms: C_29  and  C_30
REMARK                            x       y       z     vdW  Elec       q    Type
REMARK                         _______ _______ _______ _____ _____    ______ ____
ROOT
ATOM      5  N   UNL     1      -5.433 -12.800  17.235  0.00  0.00    -0.296 NA
ATOM      9  C   UNL     1      -5.711 -10.611  18.620  0.00  0.00    +0.002 C 
ATOM     10  C   UNL     1      -7.063 -11.370  18.525  0.00  0.00    +0.055 C 
ATOM     11  C   UNL     1      -4.852 -11.651  16.492  0.00  0.00    +0.095 C 
ATOM     12  C   UNL     1      -5.189 -10.320  17.197  0.00  0.00    +0.026 C 
ATOM     13  C   UNL     1      -4.705 -11.576  19.283  0.00  0.00    +0.019 C 
ATOM     14  C   UNL     1      -6.866 -12.545  17.525  0.00  0.00    +0.094 C 
ATOM     15  C   UNL     1      -4.714 -12.916  18.527  0.00  0.00    +0.085 C 
ENDROOT
BRANCH  10  16
ATOM      6  N   UNL     1      -9.486 -10.724  18.916  0.00  0.00    -0.270 N 
ATOM      7  N   UNL     1     -10.478  -9.918  18.501  0.00  0.00    -0.171 NA
ATOM     16  C   UNL     1      -8.320 -10.564  18.228  0.00  0.00    +0.044 A 
ATOM     18  C   UNL     1      -8.566  -9.585  17.296  0.00  0.00    +0.053 A 
ATOM     19  C   UNL     1      -9.910  -9.225  17.511  0.00  0.00    +0.093 A 
ATOM     20  C   UNL     1      -9.733 -11.645  20.001  0.00  0.00    +0.172 C 
BRANCH  19  21
ATOM     21  C   UNL     1     -10.661  -8.232  16.788  0.00  0.00    +0.006 A 
ATOM     23  C   UNL     1     -12.042  -8.363  16.653  0.00  0.00    +0.059 A 
ATOM     24  C   UNL     1     -10.005  -7.139  16.220  0.00  0.00    +0.014 A 
ATOM     26  C   UNL     1     -12.770  -7.401  15.953  0.00  0.00    +0.162 A 
ATOM     27  C   UNL     1     -10.733  -6.177  15.519  0.00  0.00    +0.050 A 
ATOM     28  C   UNL     1     -12.115  -6.308  15.385  0.00  0.00    +0.162 A 
BRANCH  26   3
ATOM      3  O   UNL     1     -14.119  -7.539  15.829  0.00  0.00    -0.491 OA
ATOM     31  C   UNL     1     -14.799  -8.227  16.877  0.00  0.00    +0.277 C 
ENDBRANCH  26   3
BRANCH  28   4
ATOM      4  O   UNL     1     -12.814  -5.362  14.698  0.00  0.00    -0.491 OA
ATOM     32  C   UNL     1     -12.401  -5.096  13.359  0.00  0.00    +0.277 C 
ENDBRANCH  28   4
ENDBRANCH  19  21
ENDBRANCH  10  16
BRANCH  11  17
ATOM     17  C   UNL     1      -5.269 -11.639  15.020  0.00  0.00    +0.252 C 
BRANCH  17   1
ATOM      1  O   UNL     1      -4.795 -10.442  14.431  0.00  0.00    -0.449 OA
BRANCH   1  22
ATOM      2  O   UNL     1      -2.513 -10.487  14.172  0.00  0.00    -0.226 OA
ATOM      8  N   UNL     1      -3.940 -10.700  12.355  0.00  0.00    -0.281 N 
ATOM     22  C   UNL     1      -3.640 -10.539  13.692  0.00  0.00    +0.400 C 
ATOM     33  H   UNL     1      -4.918 -10.731  12.086  0.00  0.00    +0.152 HD
BRANCH   8  25
ATOM     25  C   UNL     1      -2.941 -10.832  11.320  0.00  0.00    +0.107 C 
BRANCH  25  29
ATOM     29  C   UNL     1      -2.536  -9.487  10.729  0.00  0.00    +0.015 C 
ATOM     30  C   UNL     1      -1.118  -9.083  11.106  0.00  0.00    +0.005 C 
ENDBRANCH  25  29
ENDBRANCH   8  25
ENDBRANCH   1  22
ENDBRANCH  17   1
ENDBRANCH  11  17
TORSDOF 9
ENDMDL
MODEL 3
REMARK VINA RESULT:      -5.7     24.971     28.092
REMARK  Name = 25389536
REMARK  13 active torsions:
REMARK  status: ('A' for Active; 'I' for Inactive)
REMARK    1  A    between atoms: O_1  and  C_17
REMARK    2  A    between atoms: O_1  and  C_22
REMARK    3  A    between atoms: O_3  and  C_26
REMARK    4  A    between atoms: O_3  and  C_31
REMARK    5  A    between atoms: O_4  and  C_28
REMARK    6  A    between atoms: O_4  and  C_32
REMARK    7  A    between atoms: N_6  and  C_20
REMARK    8  A    between atoms: N_8  and  C_25
REMARK    9  A    between atoms: C_10  and  C_16
REMARK   10  A    between atoms: C_11  and  C_17
REMARK   11  A    between atoms: C_19  and  C_21
REMARK   12  A    between atoms: C_25  and  C_29
REMARK   13  A    between atoms: C_29  and  C_30
REMARK                            x       y       z     vdW  Elec       q    Type
REMARK                         _______ _______ _______ _____ _____    ______ ____
ROOT
ATOM      5  N   UNL     1      14.138   4.753  -1.561  0.00  0.00    -0.296 NA
ATOM      9  C   UNL     1      11.918   3.642  -0.772  0.00  0.00    +0.002 C 
ATOM     10  C   UNL     1      11.716   5.167  -0.989  0.00  0.00    +0.055 C 
ATOM     11  C   UNL     1      14.388   3.917  -0.358  0.00  0.00    +0.095 C 
ATOM     12  C   UNL     1      13.057   3.419   0.245  0.00  0.00    +0.026 C 
ATOM     13  C   UNL     1      12.394   3.060  -2.120  0.00  0.00    +0.019 C 
ATOM     14  C   UNL     1      13.117   5.787  -1.259  0.00  0.00    +0.094 C 
ATOM     15  C   UNL     1      13.601   3.870  -2.624  0.00  0.00    +0.085 C 
ENDROOT
BRANCH  10  16
ATOM      6  N   UNL     1      10.285   7.114  -0.212  0.00  0.00    -0.270 N 
ATOM      7  N   UNL     1       9.652   7.644   0.849  0.00  0.00    -0.171 NA
ATOM     16  C   UNL     1      10.933   5.946   0.060  0.00  0.00    +0.044 A 
ATOM     18  C   UNL     1      10.711   5.693   1.391  0.00  0.00    +0.053 A 
ATOM     19  C   UNL     1       9.917   6.772   1.825  0.00  0.00    +0.093 A 
ATOM     20  C   UNL     1      10.225   7.798  -1.483  0.00  0.00    +0.172 C 
BRANCH  19  21
ATOM     21  C   UNL     1       9.407   6.984   3.155  0.00  0.00    +0.006 A 
ATOM     23  C   UNL     1       8.759   8.178   3.471  0.00  0.00    +0.059 A 
ATOM     24  C   UNL     1       9.562   5.996   4.127  0.00  0.00    +0.014 A 
ATOM     26  C   UNL     1       8.264   8.384   4.759  0.00  0.00    +0.162 A 
ATOM     27  C   UNL     1       9.068   6.202   5.415  0.00  0.00    +0.050 A 
ATOM     28  C   UNL     1       8.420   7.396   5.732  0.00  0.00    +0.162 A 
BRANCH  26   3
ATOM      3  O   UNL     1       7.633   9.554   5.055  0.00  0.00    -0.491 OA
ATOM     31  C   UNL     1       6.562   9.948   4.199  0.00  0.00    +0.277 C 
ENDBRANCH  26   3
BRANCH  28   4
ATOM      4  O   UNL     1       7.941   7.586   6.993  0.00  0.00    -0.491 OA
ATOM     32  C   UNL     1       8.900   7.851   8.016  0.00  0.00    +0.277 C 
ENDBRANCH  28   4
ENDBRANCH  19  21
ENDBRANCH  10  16
BRANCH  11  17
ATOM     17  C   UNL     1      15.252   4.635   0.682  0.00  0.00    +0.252 C 
BRANCH  17   1
ATOM      1  O   UNL     1      14.459   4.883   1.827  0.00  0.00    -0.449 OA
BRANCH   1  22
ATOM      2  O   UNL     1      15.310   7.011   1.978  0.00  0.00    -0.226 OA
ATOM      8  N   UNL     1      13.561   6.310   3.332  0.00  0.00    -0.281 N 
ATOM     22  C   UNL     1      14.515   6.153   2.349  0.00  0.00    +0.400 C 
ATOM     33  H   UNL     1      12.959   5.520   3.543  0.00  0.00    +0.152 HD
BRANCH   8  25
ATOM     25  C   UNL     1      13.366   7.535   4.072  0.00  0.00    +0.107 C 
BRANCH  25  29
ATOM     29  C   UNL     1      12.815   7.286   5.471  0.00  0.00    +0.015 C 
ATOM     30  C   UNL     1      13.891   7.348   6.546  0.00  0.00    +0.005 C 
ENDBRANCH  25  29
ENDBRANCH   8  25
ENDBRANCH   1  22
ENDBRANCH  17   1
ENDBRANCH  11  17
TORSDOF 9
ENDMDL
MODEL 4
REMARK VINA RESULT:      -5.6     24.494     27.099
REMARK  Name = 25389536
REMARK  13 active torsions:
REMARK  status: ('A' for Active; 'I' for Inactive)
REMARK    1  A    between atoms: O_1  and  C_17
REMARK    2  A    between atoms: O_1  and  C_22
REMARK    3  A    between atoms: O_3  and  C_26
REMARK    4  A    between atoms: O_3  and  C_31
REMARK    5  A    between atoms: O_4  and  C_28
REMARK    6  A    between atoms: O_4  and  C_32
REMARK    7  A    between atoms: N_6  and  C_20
REMARK    8  A    between atoms: N_8  and  C_25
REMARK    9  A    between atoms: C_10  and  C_16
REMARK   10  A    between atoms: C_11  and  C_17
REMARK   11  A    between atoms: C_19  and  C_21
REMARK   12  A    between atoms: C_25  and  C_29
REMARK   13  A    between atoms: C_29  and  C_30
REMARK                            x       y       z     vdW  Elec       q    Type
REMARK                         _______ _______ _______ _____ _____    ______ ____
ROOT
ATOM      5  N   UNL     1      10.541   5.821   7.650  0.00  0.00    -0.296 NA
ATOM      9  C   UNL     1       9.439   7.633   6.139  0.00  0.00    +0.002 C 
ATOM     10  C   UNL     1       9.387   6.243   5.448  0.00  0.00    +0.055 C 
ATOM     11  C   UNL     1      11.446   6.993   7.521  0.00  0.00    +0.095 C 
ATOM     12  C   UNL     1      10.905   7.984   6.468  0.00  0.00    +0.026 C 
ATOM     13  C   UNL     1       8.695   7.488   7.484  0.00  0.00    +0.019 C 
ATOM     14  C   UNL     1      10.235   5.264   6.309  0.00  0.00    +0.094 C 
ATOM     15  C   UNL     1       9.272   6.290   8.257  0.00  0.00    +0.085 C 
ENDROOT
BRANCH  10  16
ATOM      6  N   UNL     1       9.223   7.011   3.034  0.00  0.00    -0.270 N 
ATOM      7  N   UNL     1       9.659   6.774   1.785  0.00  0.00    -0.171 NA
ATOM     16  C   UNL     1       9.739   6.163   3.968  0.00  0.00    +0.044 A 
ATOM     18  C   UNL     1      10.571   5.312   3.284  0.00  0.00    +0.053 A 
ATOM     19  C   UNL     1      10.482   5.735   1.944  0.00  0.00    +0.093 A 
ATOM     20  C   UNL     1       8.289   8.089   3.263  0.00  0.00    +0.172 C 
BRANCH  19  21
ATOM     21  C   UNL     1      11.167   5.165   0.813  0.00  0.00    +0.006 A 
ATOM     23  C   UNL     1      11.155   5.824  -0.415  0.00  0.00    +0.059 A 
ATOM     24  C   UNL     1      11.843   3.952   0.947  0.00  0.00    +0.014 A 
ATOM     26  C   UNL     1      11.820   5.272  -1.510  0.00  0.00    +0.162 A 
ATOM     27  C   UNL     1      12.507   3.399  -0.148  0.00  0.00    +0.050 A 
ATOM     28  C   UNL     1      12.495   4.058  -1.377  0.00  0.00    +0.162 A 
BRANCH  26   3
ATOM      3  O   UNL     1      11.801   5.925  -2.705  0.00  0.00    -0.491 OA
ATOM     31  C   UNL     1      10.595   5.856  -3.463  0.00  0.00    +0.277 C 
ENDBRANCH  26   3
BRANCH  28   4
ATOM      4  O   UNL     1      13.148   3.509  -2.439  0.00  0.00    -0.491 OA
ATOM     32  C   UNL     1      12.425   2.561  -3.222  0.00  0.00    +0.277 C 
ENDBRANCH  28   4
ENDBRANCH  19  21
ENDBRANCH  10  16
BRANCH  11  17
ATOM     17  C   UNL     1      12.891   6.585   7.230  0.00  0.00    +0.252 C 
BRANCH  17   1
ATOM      1  O   UNL     1      13.641   7.755   6.964  0.00  0.00    -0.449 OA
BRANCH   1  22
ATOM      2  O   UNL     1      15.806   8.006   6.237  0.00  0.00    -0.226 OA
ATOM      8  N   UNL     1      14.178   7.058   4.883  0.00  0.00    -0.281 N 
ATOM     22  C   UNL     1      14.652   7.639   6.040  0.00  0.00    +0.400 C 
ATOM     33  H   UNL     1      13.198   6.795   4.848  0.00  0.00    +0.152 HD
BRANCH   8  25
ATOM     25  C   UNL     1      14.997   6.799   3.722  0.00  0.00    +0.107 C 
BRANCH  25  29
ATOM     29  C   UNL     1      14.166   6.507   2.478  0.00  0.00    +0.015 C 
ATOM     30  C   UNL     1      15.013   6.053   1.299  0.00  0.00    +0.005 C 
ENDBRANCH  25  29
ENDBRANCH   8  25
ENDBRANCH   1  22
ENDBRANCH  17   1
ENDBRANCH  11  17
TORSDOF 9
ENDMDL
MODEL 5
REMARK VINA RESULT:      -5.6     24.668     28.512
REMARK  Name = 25389536
REMARK  13 active torsions:
REMARK  status: ('A' for Active; 'I' for Inactive)
REMARK    1  A    between atoms: O_1  and  C_17
REMARK    2  A    between atoms: O_1  and  C_22
REMARK    3  A    between atoms: O_3  and  C_26
REMARK    4  A    between atoms: O_3  and  C_31
REMARK    5  A    between atoms: O_4  and  C_28
REMARK    6  A    between atoms: O_4  and  C_32
REMARK    7  A    between atoms: N_6  and  C_20
REMARK    8  A    between atoms: N_8  and  C_25
REMARK    9  A    between atoms: C_10  and  C_16
REMARK   10  A    between atoms: C_11  and  C_17
REMARK   11  A    between atoms: C_19  and  C_21
REMARK   12  A    between atoms: C_25  and  C_29
REMARK   13  A    between atoms: C_29  and  C_30
REMARK                            x       y       z     vdW  Elec       q    Type
REMARK                         _______ _______ _______ _____ _____    ______ ____
ROOT
ATOM      5  N   UNL     1      13.333   5.045  -1.731  0.00  0.00    -0.296 NA
ATOM      9  C   UNL     1      11.209   3.884  -0.770  0.00  0.00    +0.002 C 
ATOM     10  C   UNL     1      11.210   5.396  -0.414  0.00  0.00    +0.055 C 
ATOM     11  C   UNL     1      13.719   3.820  -0.983  0.00  0.00    +0.095 C 
ATOM     12  C   UNL     1      12.502   3.233  -0.234  0.00  0.00    +0.026 C 
ATOM     13  C   UNL     1      11.258   3.789  -2.310  0.00  0.00    +0.019 C 
ATOM     14  C   UNL     1      12.591   5.972  -0.841  0.00  0.00    +0.094 C 
ATOM     15  C   UNL     1      12.429   4.639  -2.833  0.00  0.00    +0.085 C 
ENDROOT
BRANCH  10  16
ATOM      6  N   UNL     1      10.069   6.898   1.283  0.00  0.00    -0.270 N 
ATOM      7  N   UNL     1       9.844   7.083   2.595  0.00  0.00    -0.171 NA
ATOM     16  C   UNL     1      10.829   5.802   1.003  0.00  0.00    +0.044 A 
ATOM     18  C   UNL     1      11.123   5.229   2.216  0.00  0.00    +0.053 A 
ATOM     19  C   UNL     1      10.491   6.060   3.159  0.00  0.00    +0.093 A 
ATOM     20  C   UNL     1       9.513   7.834   0.334  0.00  0.00    +0.172 C 
BRANCH  19  21
ATOM     21  C   UNL     1      10.494   5.896   4.590  0.00  0.00    +0.006 A 
ATOM     23  C   UNL     1      11.468   6.528   5.363  0.00  0.00    +0.059 A 
ATOM     24  C   UNL     1       9.524   5.104   5.203  0.00  0.00    +0.014 A 
ATOM     26  C   UNL     1      11.471   6.370   6.748  0.00  0.00    +0.162 A 
ATOM     27  C   UNL     1       9.527   4.945   6.589  0.00  0.00    +0.050 A 
ATOM     28  C   UNL     1      10.501   5.577   7.362  0.00  0.00    +0.162 A 
BRANCH  26   3
ATOM      3  O   UNL     1      12.427   6.993   7.492  0.00  0.00    -0.491 OA
ATOM     31  C   UNL     1      13.786   6.664   7.209  0.00  0.00    +0.277 C 
ENDBRANCH  26   3
BRANCH  28   4
ATOM      4  O   UNL     1      10.494   5.414   8.714  0.00  0.00    -0.491 OA
ATOM     32  C   UNL     1       9.531   4.509   9.252  0.00  0.00    +0.277 C 
ENDBRANCH  28   4
ENDBRANCH  19  21
ENDBRANCH  10  16
BRANCH  11  17
ATOM     17  C   UNL     1      14.904   4.057  -0.046  0.00  0.00    +0.252 C 
BRANCH  17   1
ATOM      1  O   UNL     1      16.002   4.505  -0.819  0.00  0.00    -0.449 OA
BRANCH   1  22
ATOM      2  O   UNL     1      17.469   6.255  -1.068  0.00  0.00    -0.226 OA
ATOM      8  N   UNL     1      15.977   6.171   0.707  0.00  0.00    -0.281 N 
ATOM     22  C   UNL     1      16.567   5.701  -0.447  0.00  0.00    +0.400 C 
ATOM     33  H   UNL     1      15.235   5.617   1.123  0.00  0.00    +0.152 HD
BRANCH   8  25
ATOM     25  C   UNL     1      16.350   7.408   1.352  0.00  0.00    +0.107 C 
BRANCH  25  29
ATOM     29  C   UNL     1      15.213   8.000   2.176  0.00  0.00    +0.015 C 
ATOM     30  C   UNL     1      14.340   6.934   2.823  0.00  0.00    +0.005 C 
ENDBRANCH  25  29
ENDBRANCH   8  25
ENDBRANCH   1  22
ENDBRANCH  17   1
ENDBRANCH  11  17
TORSDOF 9
ENDMDL
MODEL 6
REMARK VINA RESULT:      -5.6     25.797     28.742
REMARK  Name = 25389536
REMARK  13 active torsions:
REMARK  status: ('A' for Active; 'I' for Inactive)
REMARK    1  A    between atoms: O_1  and  C_17
REMARK    2  A    between atoms: O_1  and  C_22
REMARK    3  A    between atoms: O_3  and  C_26
REMARK    4  A    between atoms: O_3  and  C_31
REMARK    5  A    between atoms: O_4  and  C_28
REMARK    6  A    between atoms: O_4  and  C_32
REMARK    7  A    between atoms: N_6  and  C_20
REMARK    8  A    between atoms: N_8  and  C_25
REMARK    9  A    between atoms: C_10  and  C_16
REMARK   10  A    between atoms: C_11  and  C_17
REMARK   11  A    between atoms: C_19  and  C_21
REMARK   12  A    between atoms: C_25  and  C_29
REMARK   13  A    between atoms: C_29  and  C_30
REMARK                            x       y       z     vdW  Elec       q    Type
REMARK                         _______ _______ _______ _____ _____    ______ ____
ROOT
ATOM      5  N   UNL     1       9.320   6.634   4.201  0.00  0.00    -0.296 NA
ATOM      9  C   UNL     1      10.144   7.183   6.610  0.00  0.00    +0.002 C 
ATOM     10  C   UNL     1      10.773   8.165   5.583  0.00  0.00    +0.055 C 
ATOM     11  C   UNL     1       9.810   5.398   4.864  0.00  0.00    +0.095 C 
ATOM     12  C   UNL     1      10.491   5.734   6.208  0.00  0.00    +0.026 C 
ATOM     13  C   UNL     1       8.612   7.333   6.487  0.00  0.00    +0.019 C 
ATOM     14  C   UNL     1      10.399   7.652   4.163  0.00  0.00    +0.094 C 
ATOM     15  C   UNL     1       8.203   7.174   5.013  0.00  0.00    +0.085 C 
ENDROOT
BRANCH  10  16
ATOM      6  N   UNL     1      12.752   9.365   6.624  0.00  0.00    -0.270 N 
ATOM      7  N   UNL     1      14.087   9.507   6.575  0.00  0.00    -0.171 NA
ATOM     16  C   UNL     1      12.256   8.484   5.709  0.00  0.00    +0.044 A 
ATOM     18  C   UNL     1      13.342   8.017   5.011  0.00  0.00    +0.053 A 
ATOM     19  C   UNL     1      14.442   8.681   5.587  0.00  0.00    +0.093 A 
ATOM     20  C   UNL     1      11.997  10.124   7.595  0.00  0.00    +0.172 C 
BRANCH  19  21
ATOM     21  C   UNL     1      15.825   8.542   5.210  0.00  0.00    +0.006 A 
ATOM     23  C   UNL     1      16.826   8.664   6.173  0.00  0.00    +0.059 A 
ATOM     24  C   UNL     1      16.163   8.287   3.881  0.00  0.00    +0.014 A 
ATOM     26  C   UNL     1      18.166   8.530   5.808  0.00  0.00    +0.162 A 
ATOM     27  C   UNL     1      17.503   8.152   3.517  0.00  0.00    +0.050 A 
ATOM     28  C   UNL     1      18.504   8.274   4.479  0.00  0.00    +0.162 A 
BRANCH  26   3
ATOM      3  O   UNL     1      19.135   8.650   6.758  0.00  0.00    -0.491 OA
ATOM     31  C   UNL     1      19.601   9.967   7.045  0.00  0.00    +0.277 C 
ENDBRANCH  26   3
BRANCH  28   4
ATOM      4  O   UNL     1      19.809   8.140   4.111  0.00  0.00    -0.491 OA
ATOM     32  C   UNL     1      20.078   8.019   2.716  0.00  0.00    +0.277 C 
ENDBRANCH  28   4
ENDBRANCH  19  21
ENDBRANCH  10  16
BRANCH  11  17
ATOM     17  C   UNL     1      10.721   4.570   3.955  0.00  0.00    +0.252 C 
BRANCH  17   1
ATOM      1  O   UNL     1      10.139   4.520   2.665  0.00  0.00    -0.449 OA
BRANCH   1  22
ATOM      2  O   UNL     1      10.603   4.036   0.468  0.00  0.00    -0.226 OA
ATOM      8  N   UNL     1      12.174   3.690   2.140  0.00  0.00    -0.281 N 
ATOM     22  C   UNL     1      10.946   4.075   1.646  0.00  0.00    +0.400 C 
ATOM     33  H   UNL     1      12.335   3.776   3.139  0.00  0.00    +0.152 HD
BRANCH   8  25
ATOM     25  C   UNL     1      13.244   3.175   1.318  0.00  0.00    +0.107 C 
BRANCH  25  29
ATOM     29  C   UNL     1      14.601   3.753   1.702  0.00  0.00    +0.015 C 
ATOM     30  C   UNL     1      14.572   5.266   1.861  0.00  0.00    +0.005 C 
ENDBRANCH  25  29
ENDBRANCH   8  25
ENDBRANCH   1  22
ENDBRANCH  17   1
ENDBRANCH  11  17
TORSDOF 9
ENDMDL
MODEL 7
REMARK VINA RESULT:      -5.6     24.175     26.061
REMARK  Name = 25389536
REMARK  13 active torsions:
REMARK  status: ('A' for Active; 'I' for Inactive)
REMARK    1  A    between atoms: O_1  and  C_17
REMARK    2  A    between atoms: O_1  and  C_22
REMARK    3  A    between atoms: O_3  and  C_26
REMARK    4  A    between atoms: O_3  and  C_31
REMARK    5  A    between atoms: O_4  and  C_28
REMARK    6  A    between atoms: O_4  and  C_32
REMARK    7  A    between atoms: N_6  and  C_20
REMARK    8  A    between atoms: N_8  and  C_25
REMARK    9  A    between atoms: C_10  and  C_16
REMARK   10  A    between atoms: C_11  and  C_17
REMARK   11  A    between atoms: C_19  and  C_21
REMARK   12  A    between atoms: C_25  and  C_29
REMARK   13  A    between atoms: C_29  and  C_30
REMARK                            x       y       z     vdW  Elec       q    Type
REMARK                         _______ _______ _______ _____ _____    ______ ____
ROOT
ATOM      5  N   UNL     1       9.568   8.146   6.991  0.00  0.00    -0.296 NA
ATOM      9  C   UNL     1       9.402   5.673   6.192  0.00  0.00    +0.002 C 
ATOM     10  C   UNL     1      10.785   6.274   5.818  0.00  0.00    +0.055 C 
ATOM     11  C   UNL     1       8.305   7.941   6.234  0.00  0.00    +0.095 C 
ATOM     12  C   UNL     1       8.285   6.543   5.578  0.00  0.00    +0.026 C 
ATOM     13  C   UNL     1       9.270   5.782   7.726  0.00  0.00    +0.019 C 
ATOM     14  C   UNL     1      10.733   7.794   6.141  0.00  0.00    +0.094 C 
ATOM     15  C   UNL     1       9.553   7.231   8.157  0.00  0.00    +0.085 C 
ENDROOT
BRANCH  10  16
ATOM      6  N   UNL     1      12.430   6.634   3.919  0.00  0.00    -0.270 N 
ATOM      7  N   UNL     1      12.754   6.250   2.672  0.00  0.00    -0.171 NA
ATOM     16  C   UNL     1      11.335   5.999   4.424  0.00  0.00    +0.044 A 
ATOM     18  C   UNL     1      10.911   5.139   3.441  0.00  0.00    +0.053 A 
ATOM     19  C   UNL     1      11.822   5.337   2.386  0.00  0.00    +0.093 A 
ATOM     20  C   UNL     1      13.231   7.639   4.578  0.00  0.00    +0.172 C 
BRANCH  19  21
ATOM     21  C   UNL     1      11.819   4.671   1.109  0.00  0.00    +0.006 A 
ATOM     23  C   UNL     1      10.772   4.885   0.213  0.00  0.00    +0.059 A 
ATOM     24  C   UNL     1      12.863   3.810   0.769  0.00  0.00    +0.014 A 
ATOM     26  C   UNL     1      10.769   4.239  -1.023  0.00  0.00    +0.162 A 
ATOM     27  C   UNL     1      12.859   3.165  -0.468  0.00  0.00    +0.050 A 
ATOM     28  C   UNL     1      11.813   3.379  -1.363  0.00  0.00    +0.162 A 
BRANCH  26   3
ATOM      3  O   UNL     1       9.741   4.457  -1.890  0.00  0.00    -0.491 OA
ATOM     31  C   UNL     1       9.146   5.753  -1.879  0.00  0.00    +0.277 C 
ENDBRANCH  26   3
BRANCH  28   4
ATOM      4  O   UNL     1      11.820   2.743  -2.568  0.00  0.00    -0.491 OA
ATOM     32  C   UNL     1      12.761   3.203  -3.537  0.00  0.00    +0.277 C 
ENDBRANCH  28   4
ENDBRANCH  19  21
ENDBRANCH  10  16
BRANCH  11  17
ATOM     17  C   UNL     1       8.048   9.053   5.216  0.00  0.00    +0.252 C 
BRANCH  17   1
ATOM      1  O   UNL     1       7.904   8.463   3.937  0.00  0.00    -0.449 OA
BRANCH   1  22
ATOM      2  O   UNL     1       7.270   9.135   1.834  0.00  0.00    -0.226 OA
ATOM      8  N   UNL     1       6.056   9.745   3.715  0.00  0.00    -0.281 N 
ATOM     22  C   UNL     1       7.088   9.120   3.047  0.00  0.00    +0.400 C 
ATOM     33  H   UNL     1       6.016   9.652   4.725  0.00  0.00    +0.152 HD
BRANCH   8  25
ATOM     25  C   UNL     1       5.028  10.518   3.059  0.00  0.00    +0.107 C 
BRANCH  25  29
ATOM     29  C   UNL     1       4.803  11.870   3.726  0.00  0.00    +0.015 C 
ATOM     30  C   UNL     1       5.827  12.167   4.812  0.00  0.00    +0.005 C 
ENDBRANCH  25  29
ENDBRANCH   8  25
ENDBRANCH   1  22
ENDBRANCH  17   1
ENDBRANCH  11  17
TORSDOF 9
ENDMDL
MODEL 8
REMARK VINA RESULT:      -5.4     26.005     28.951
REMARK  Name = 25389536
REMARK  13 active torsions:
REMARK  status: ('A' for Active; 'I' for Inactive)
REMARK    1  A    between atoms: O_1  and  C_17
REMARK    2  A    between atoms: O_1  and  C_22
REMARK    3  A    between atoms: O_3  and  C_26
REMARK    4  A    between atoms: O_3  and  C_31
REMARK    5  A    between atoms: O_4  and  C_28
REMARK    6  A    between atoms: O_4  and  C_32
REMARK    7  A    between atoms: N_6  and  C_20
REMARK    8  A    between atoms: N_8  and  C_25
REMARK    9  A    between atoms: C_10  and  C_16
REMARK   10  A    between atoms: C_11  and  C_17
REMARK   11  A    between atoms: C_19  and  C_21
REMARK   12  A    between atoms: C_25  and  C_29
REMARK   13  A    between atoms: C_29  and  C_30
REMARK                            x       y       z     vdW  Elec       q    Type
REMARK                         _______ _______ _______ _____ _____    ______ ____
ROOT
ATOM      5  N   UNL     1      10.948   4.172   2.120  0.00  0.00    -0.296 NA
ATOM      9  C   UNL     1      11.241   6.577   1.162  0.00  0.00    +0.002 C 
ATOM     10  C   UNL     1      12.595   5.815   1.145  0.00  0.00    +0.055 C 
ATOM     11  C   UNL     1      10.346   5.166   3.048  0.00  0.00    +0.095 C 
ATOM     12  C   UNL     1      10.690   6.604   2.603  0.00  0.00    +0.026 C 
ATOM     13  C   UNL     1      10.254   5.746   0.314  0.00  0.00    +0.019 C 
ATOM     14  C   UNL     1      12.385   4.478   1.911  0.00  0.00    +0.094 C 
ATOM     15  C   UNL     1      10.255   4.291   0.815  0.00  0.00    +0.085 C 
ENDROOT
BRANCH  10  16
ATOM      6  N   UNL     1      14.734   7.123   0.747  0.00  0.00    -0.270 N 
ATOM      7  N   UNL     1      15.767   7.730   1.356  0.00  0.00    -0.171 NA
ATOM     16  C   UNL     1      13.842   6.556   1.609  0.00  0.00    +0.044 A 
ATOM     18  C   UNL     1      14.325   6.808   2.869  0.00  0.00    +0.053 A 
ATOM     19  C   UNL     1      15.512   7.533   2.652  0.00  0.00    +0.093 A 
ATOM     20  C   UNL     1      14.665   7.125  -0.695  0.00  0.00    +0.172 C 
BRANCH  19  21
ATOM     21  C   UNL     1      16.407   8.042   3.659  0.00  0.00    +0.006 A 
ATOM     23  C   UNL     1      17.694   8.448   3.308  0.00  0.00    +0.059 A 
ATOM     24  C   UNL     1      15.987   8.127   4.986  0.00  0.00    +0.014 A 
ATOM     26  C   UNL     1      18.561   8.940   4.284  0.00  0.00    +0.162 A 
ATOM     27  C   UNL     1      16.854   8.619   5.962  0.00  0.00    +0.050 A 
ATOM     28  C   UNL     1      18.141   9.025   5.611  0.00  0.00    +0.162 A 
BRANCH  26   3
ATOM      3  O   UNL     1      19.816   9.334   3.929  0.00  0.00    -0.491 OA
ATOM     31  C   UNL     1      19.922  10.486   3.095  0.00  0.00    +0.277 C 
ENDBRANCH  26   3
BRANCH  28   4
ATOM      4  O   UNL     1      18.978   9.504   6.573  0.00  0.00    -0.491 OA
ATOM     32  C   UNL     1      19.936   8.593   7.109  0.00  0.00    +0.277 C 
ENDBRANCH  28   4
ENDBRANCH  19  21
ENDBRANCH  10  16
BRANCH  11  17
ATOM     17  C   UNL     1      10.734   4.912   4.506  0.00  0.00    +0.252 C 
BRANCH  17   1
ATOM      1  O   UNL     1      11.438   6.042   4.985  0.00  0.00    -0.449 OA
BRANCH   1  22
ATOM      2  O   UNL     1      11.900   7.210   6.909  0.00  0.00    -0.226 OA
ATOM      8  N   UNL     1      10.159   5.679   6.812  0.00  0.00    -0.281 N 
ATOM     22  C   UNL     1      11.225   6.386   6.298  0.00  0.00    +0.400 C 
ATOM     33  H   UNL     1       9.679   5.028   6.198  0.00  0.00    +0.152 HD
BRANCH   8  25
ATOM     25  C   UNL     1       9.684   5.817   8.169  0.00  0.00    +0.107 C 
BRANCH  25  29
ATOM     29  C   UNL     1       9.520   4.472   8.866  0.00  0.00    +0.015 C 
ATOM     30  C   UNL     1       8.989   4.607  10.286  0.00  0.00    +0.005 C 
ENDBRANCH  25  29
ENDBRANCH   8  25
ENDBRANCH   1  22
ENDBRANCH  17   1
ENDBRANCH  11  17
TORSDOF 9
ENDMDL
MODEL 9
REMARK VINA RESULT:      -5.4     22.094     26.064
REMARK  Name = 25389536
REMARK  13 active torsions:
REMARK  status: ('A' for Active; 'I' for Inactive)
REMARK    1  A    between atoms: O_1  and  C_17
REMARK    2  A    between atoms: O_1  and  C_22
REMARK    3  A    between atoms: O_3  and  C_26
REMARK    4  A    between atoms: O_3  and  C_31
REMARK    5  A    between atoms: O_4  and  C_28
REMARK    6  A    between atoms: O_4  and  C_32
REMARK    7  A    between atoms: N_6  and  C_20
REMARK    8  A    between atoms: N_8  and  C_25
REMARK    9  A    between atoms: C_10  and  C_16
REMARK   10  A    between atoms: C_11  and  C_17
REMARK   11  A    between atoms: C_19  and  C_21
REMARK   12  A    between atoms: C_25  and  C_29
REMARK   13  A    between atoms: C_29  and  C_30
REMARK                            x       y       z     vdW  Elec       q    Type
REMARK                         _______ _______ _______ _____ _____    ______ ____
ROOT
ATOM      5  N   UNL     1       7.219 -10.274  32.925  0.00  0.00    -0.296 NA
ATOM      9  C   UNL     1       6.776  -7.842  32.106  0.00  0.00    +0.002 C 
ATOM     10  C   UNL     1       8.144  -7.929  32.837  0.00  0.00    +0.055 C 
ATOM     11  C   UNL     1       5.862  -9.836  33.345  0.00  0.00    +0.095 C 
ATOM     12  C   UNL     1       5.660  -8.333  33.051  0.00  0.00    +0.026 C 
ATOM     13  C   UNL     1       6.840  -8.834  30.925  0.00  0.00    +0.019 C 
ATOM     14  C   UNL     1       8.243  -9.347  33.468  0.00  0.00    +0.094 C 
ATOM     15  C   UNL     1       7.279 -10.214  31.445  0.00  0.00    +0.085 C 
ENDROOT
BRANCH  10  16
ATOM      6  N   UNL     1       9.740  -6.271  33.907  0.00  0.00    -0.270 N 
ATOM      7  N   UNL     1       9.850  -5.318  34.848  0.00  0.00    -0.171 NA
ATOM     16  C   UNL     1       8.499  -6.830  33.830  0.00  0.00    +0.044 A 
ATOM     18  C   UNL     1       7.743  -6.200  34.787  0.00  0.00    +0.053 A 
ATOM     19  C   UNL     1       8.627  -5.279  35.383  0.00  0.00    +0.093 A 
ATOM     20  C   UNL     1      10.893  -6.603  33.102  0.00  0.00    +0.172 C 
BRANCH  19  21
ATOM     21  C   UNL     1       8.324  -4.364  36.453  0.00  0.00    +0.006 A 
ATOM     23  C   UNL     1       6.999  -4.040  36.739  0.00  0.00    +0.059 A 
ATOM     24  C   UNL     1       9.357  -3.802  37.203  0.00  0.00    +0.014 A 
ATOM     26  C   UNL     1       6.705  -3.154  37.776  0.00  0.00    +0.162 A 
ATOM     27  C   UNL     1       9.064  -2.916  38.239  0.00  0.00    +0.050 A 
ATOM     28  C   UNL     1       7.739  -2.592  38.526  0.00  0.00    +0.162 A 
BRANCH  26   3
ATOM      3  O   UNL     1       5.406  -2.845  38.047  0.00  0.00    -0.491 OA
ATOM     31  C   UNL     1       4.504  -2.811  36.942  0.00  0.00    +0.277 C 
ENDBRANCH  26   3
BRANCH  28   4
ATOM      4  O   UNL     1       7.464  -1.725  39.541  0.00  0.00    -0.491 OA
ATOM     32  C   UNL     1       8.495  -0.808  39.905  0.00  0.00    +0.277 C 
ENDBRANCH  28   4
ENDBRANCH  19  21
ENDBRANCH  10  16
BRANCH  11  17
ATOM     17  C   UNL     1       5.566 -10.176  34.807  0.00  0.00    +0.252 C 
BRANCH  17   1
ATOM      1  O   UNL     1       4.750  -9.154  35.347  0.00  0.00    -0.449 OA
BRANCH   1  22
ATOM      2  O   UNL     1       4.710  -9.783  37.556  0.00  0.00    -0.226 OA
ATOM      8  N   UNL     1       5.189  -7.601  36.929  0.00  0.00    -0.281 N 
ATOM     22  C   UNL     1       4.869  -8.922  36.697  0.00  0.00    +0.400 C 
ATOM     33  H   UNL     1       5.297  -6.988  36.127  0.00  0.00    +0.152 HD
BRANCH   8  25
ATOM     25  C   UNL     1       5.383  -7.043  38.247  0.00  0.00    +0.107 C 
BRANCH  25  29
ATOM     29  C   UNL     1       4.168  -6.263  38.733  0.00  0.00    +0.015 C 
ATOM     30  C   UNL     1       4.449  -5.465  39.998  0.00  0.00    +0.005 C 
ENDBRANCH  25  29
ENDBRANCH   8  25
ENDBRANCH   1  22
ENDBRANCH  17   1
ENDBRANCH  11  17
TORSDOF 9
ENDMDL
MODEL 10
REMARK VINA RESULT:      -5.4      5.435      8.882
REMARK  Name = 25389536
REMARK  13 active torsions:
REMARK  status: ('A' for Active; 'I' for Inactive)
REMARK    1  A    between atoms: O_1  and  C_17
REMARK    2  A    between atoms: O_1  and  C_22
REMARK    3  A    between atoms: O_3  and  C_26
REMARK    4  A    between atoms: O_3  and  C_31
REMARK    5  A    between atoms: O_4  and  C_28
REMARK    6  A    between atoms: O_4  and  C_32
REMARK    7  A    between atoms: N_6  and  C_20
REMARK    8  A    between atoms: N_8  and  C_25
REMARK    9  A    between atoms: C_10  and  C_16
REMARK   10  A    between atoms: C_11  and  C_17
REMARK   11  A    between atoms: C_19  and  C_21
REMARK   12  A    between atoms: C_25  and  C_29
REMARK   13  A    between atoms: C_29  and  C_30
REMARK                            x       y       z     vdW  Elec       q    Type
REMARK                         _______ _______ _______ _____ _____    ______ ____
ROOT
ATOM      5  N   UNL     1     -10.422  -8.511   6.673  0.00  0.00    -0.296 NA
ATOM      9  C   UNL     1      -8.134  -7.635   5.788  0.00  0.00    +0.002 C 
ATOM     10  C   UNL     1      -8.075  -9.169   6.025  0.00  0.00    +0.055 C 
ATOM     11  C   UNL     1      -9.985  -7.336   7.471  0.00  0.00    +0.095 C 
ATOM     12  C   UNL     1      -8.542  -6.932   7.100  0.00  0.00    +0.026 C 
ATOM     13  C   UNL     1      -9.268  -7.386   4.770  0.00  0.00    +0.019 C 
ATOM     14  C   UNL     1      -9.395  -9.580   6.737  0.00  0.00    +0.094 C 
ATOM     15  C   UNL     1     -10.551  -8.078   5.261  0.00  0.00    +0.085 C 
ENDROOT
BRANCH  10  16
ATOM      6  N   UNL     1      -5.955 -10.564   6.088  0.00  0.00    -0.270 N 
ATOM      7  N   UNL     1      -4.937 -10.961   6.871  0.00  0.00    -0.171 NA
ATOM     16  C   UNL     1      -6.845  -9.742   6.715  0.00  0.00    +0.044 A 
ATOM     18  C   UNL     1      -6.378  -9.592   7.998  0.00  0.00    +0.053 A 
ATOM     19  C   UNL     1      -5.201 -10.365   8.036  0.00  0.00    +0.093 A 
ATOM     20  C   UNL     1      -6.013 -11.021   4.719  0.00  0.00    +0.172 C 
BRANCH  19  21
ATOM     21  C   UNL     1      -4.326 -10.545   9.165  0.00  0.00    +0.006 A 
ATOM     23  C   UNL     1      -4.169 -11.810   9.731  0.00  0.00    +0.059 A 
ATOM     24  C   UNL     1      -3.636  -9.454   9.693  0.00  0.00    +0.014 A 
ATOM     26  C   UNL     1      -3.320 -11.984  10.825  0.00  0.00    +0.162 A 
ATOM     27  C   UNL     1      -2.788  -9.629  10.787  0.00  0.00    +0.050 A 
ATOM     28  C   UNL     1      -2.630 -10.893  11.353  0.00  0.00    +0.162 A 
BRANCH  26   3
ATOM      3  O   UNL     1      -3.175 -13.225  11.369  0.00  0.00    -0.491 OA
ATOM     31  C   UNL     1      -4.229 -13.693  12.207  0.00  0.00    +0.277 C 
ENDBRANCH  26   3
BRANCH  28   4
ATOM      4  O   UNL     1      -1.799 -11.051  12.421  0.00  0.00    -0.491 OA
ATOM     32  C   UNL     1      -2.153 -10.369  13.623  0.00  0.00    +0.277 C 
ENDBRANCH  28   4
ENDBRANCH  19  21
ENDBRANCH  10  16
BRANCH  11  17
ATOM     17  C   UNL     1     -10.145  -7.562   8.976  0.00  0.00    +0.252 C 
BRANCH  17   1
ATOM      1  O   UNL     1     -11.479  -7.961   9.229  0.00  0.00    -0.449 OA
BRANCH   1  22
ATOM      2  O   UNL     1     -13.544  -6.975   9.424  0.00  0.00    -0.226 OA
ATOM      8  N   UNL     1     -11.657  -6.028  10.386  0.00  0.00    -0.281 N 
ATOM     22  C   UNL     1     -12.340  -6.981   9.661  0.00  0.00    +0.400 C 
ATOM     33  H   UNL     1     -10.658  -6.152  10.514  0.00  0.00    +0.152 HD
BRANCH   8  25
ATOM     25  C   UNL     1     -12.283  -4.868  10.976  0.00  0.00    +0.107 C 
BRANCH  25  29
ATOM     29  C   UNL     1     -12.151  -3.628  10.101  0.00  0.00    +0.015 C 
ATOM     30  C   UNL     1     -10.895  -3.646   9.242  0.00  0.00    +0.005 C 
ENDBRANCH  25  29
ENDBRANCH   8  25
ENDBRANCH   1  22
ENDBRANCH  17   1
ENDBRANCH  11  17
TORSDOF 9
ENDMDL
