MODEL 1
REMARK VINA RESULT:      -7.3      0.000      0.000
REMARK  Name = 75536560
REMARK  7 active torsions:
REMARK  status: ('A' for Active; 'I' for Inactive)
REMARK    1  A    between atoms: O_3  and  C_8
REMARK    2  A    between atoms: N_5  and  C_16
REMARK    3  A    between atoms: N_6  and  C_10
REMARK    4  A    between atoms: N_6  and  C_18
REMARK    5  A    between atoms: C_7  and  C_16
REMARK    6  A    between atoms: C_9  and  C_17
REMARK    7  A    between atoms: C_18  and  C_19
REMARK                            x       y       z     vdW  Elec       q    Type
REMARK                         _______ _______ _______ _____ _____    ______ ____
ROOT
ATOM      2  O   UNL     1      11.793   9.777  20.517  0.00  0.00    -0.371 OA
ATOM      7  C   UNL     1      10.896   8.875  21.186  0.00  0.00    +0.165 C 
ATOM      8  C   UNL     1      11.623   7.539  21.262  0.00  0.00    +0.164 C 
ATOM     10  C   UNL     1      12.391   7.549  19.954  0.00  0.00    +0.111 C 
ATOM     15  C   UNL     1      12.817   9.005  19.866  0.00  0.00    +0.181 C 
ENDROOT
BRANCH   8   3
ATOM      3  O   UNL     1      10.721   6.453  21.359  0.00  0.00    -0.388 OA
ATOM     27  H   UNL     1       9.935   6.751  21.848  0.00  0.00    +0.210 HD
ENDBRANCH   8   3
BRANCH  10   6
ATOM      6  N   UNL     1      13.515   6.627  19.930  0.00  0.00    -0.305 NA
ATOM     26  H   UNL     1      13.188   5.712  19.620  0.00  0.00    +0.123 HD
BRANCH   6  18
ATOM     18  C   UNL     1      14.556   7.091  19.020  0.00  0.00    +0.116 C 
BRANCH  18  19
ATOM      1  F   UNL     1      19.715   6.066  21.039  0.00  0.00    -0.205 F 
ATOM     19  C   UNL     1      15.935   6.817  19.560  0.00  0.00    -0.033 A 
ATOM     20  C   UNL     1      16.364   7.447  20.728  0.00  0.00    +0.008 A 
ATOM     21  C   UNL     1      16.782   5.933  18.891  0.00  0.00    +0.008 A 
ATOM     22  C   UNL     1      17.641   7.194  21.228  0.00  0.00    +0.038 A 
ATOM     23  C   UNL     1      18.059   5.680  19.391  0.00  0.00    +0.038 A 
ATOM     24  C   UNL     1      18.489   6.310  20.559  0.00  0.00    +0.123 A 
ENDBRANCH  18  19
ENDBRANCH   6  18
ENDBRANCH  10   6
BRANCH   7  16
ATOM     16  C   UNL     1      10.524   9.435  22.547  0.00  0.00    +0.138 C 
BRANCH  16   5
ATOM      4  O   UNL     1      10.787  11.011  24.971  0.00  0.00    -0.276 OA
ATOM      5  N   UNL     1      10.864  10.825  22.651  0.00  0.00    -0.313 N 
ATOM     17  C   UNL     1      10.968  11.502  23.860  0.00  0.00    +0.216 C 
ATOM     25  H   UNL     1      11.038  11.329  21.786  0.00  0.00    +0.149 HD
BRANCH  17   9
ATOM      9  C   UNL     1      11.361  12.937  23.684  0.00  0.00    +0.075 C 
ATOM     11  C   UNL     1      10.976  13.749  24.926  0.00  0.00    +0.013 C 
ATOM     12  C   UNL     1      10.604  13.564  22.512  0.00  0.00    +0.013 C 
ATOM     13  C   UNL     1      10.090  14.884  24.424  0.00  0.00    +0.001 C 
ATOM     14  C   UNL     1       9.458  14.330  23.159  0.00  0.00    +0.001 C 
ENDBRANCH  17   9
ENDBRANCH  16   5
ENDBRANCH   7  16
TORSDOF 7
ENDMDL
MODEL 2
REMARK VINA RESULT:      -6.7     26.870     29.304
REMARK  Name = 75536560
REMARK  7 active torsions:
REMARK  status: ('A' for Active; 'I' for Inactive)
REMARK    1  A    between atoms: O_3  and  C_8
REMARK    2  A    between atoms: N_5  and  C_16
REMARK    3  A    between atoms: N_6  and  C_10
REMARK    4  A    between atoms: N_6  and  C_18
REMARK    5  A    between atoms: C_7  and  C_16
REMARK    6  A    between atoms: C_9  and  C_17
REMARK    7  A    between atoms: C_18  and  C_19
REMARK                            x       y       z     vdW  Elec       q    Type
REMARK                         _______ _______ _______ _____ _____    ______ ____
ROOT
ATOM      2  O   UNL     1     -17.404   5.259  25.018  0.00  0.00    -0.371 OA
ATOM      7  C   UNL     1     -16.913   4.058  25.636  0.00  0.00    +0.165 C 
ATOM      8  C   UNL     1     -15.725   3.608  24.795  0.00  0.00    +0.164 C 
ATOM     10  C   UNL     1     -16.179   4.018  23.406  0.00  0.00    +0.111 C 
ATOM     15  C   UNL     1     -16.856   5.348  23.691  0.00  0.00    +0.181 C 
ENDROOT
BRANCH   8   3
ATOM      3  O   UNL     1     -15.498   2.216  24.907  0.00  0.00    -0.388 OA
ATOM     27  H   UNL     1     -15.820   1.787  24.096  0.00  0.00    +0.210 HD
ENDBRANCH   8   3
BRANCH  10   6
ATOM      6  N   UNL     1     -15.092   4.129  22.447  0.00  0.00    -0.305 NA
ATOM     26  H   UNL     1     -15.472   4.418  21.546  0.00  0.00    +0.123 HD
BRANCH   6  18
ATOM     18  C   UNL     1     -14.106   5.112  22.882  0.00  0.00    +0.116 C 
BRANCH  18  19
ATOM      1  F   UNL     1     -12.427   8.418  18.639  0.00  0.00    -0.205 F 
ATOM     19  C   UNL     1     -13.657   5.995  21.748  0.00  0.00    -0.033 A 
ATOM     20  C   UNL     1     -14.601   6.684  20.985  0.00  0.00    +0.008 A 
ATOM     21  C   UNL     1     -12.299   6.125  21.461  0.00  0.00    +0.008 A 
ATOM     22  C   UNL     1     -14.186   7.502  19.935  0.00  0.00    +0.038 A 
ATOM     23  C   UNL     1     -11.883   6.943  20.410  0.00  0.00    +0.038 A 
ATOM     24  C   UNL     1     -12.827   7.632  19.647  0.00  0.00    +0.123 A 
ENDBRANCH  18  19
ENDBRANCH   6  18
ENDBRANCH  10   6
BRANCH   7  16
ATOM     16  C   UNL     1     -16.552   4.335  27.084  0.00  0.00    +0.138 C 
BRANCH  16   5
ATOM      4  O   UNL     1     -15.403   4.188  29.746  0.00  0.00    -0.276 OA
ATOM      5  N   UNL     1     -15.807   3.249  27.653  0.00  0.00    -0.313 N 
ATOM     17  C   UNL     1     -15.291   3.265  28.944  0.00  0.00    +0.216 C 
ATOM     25  H   UNL     1     -15.657   2.429  27.072  0.00  0.00    +0.149 HD
BRANCH  17   9
ATOM      9  C   UNL     1     -14.576   1.995  29.294  0.00  0.00    +0.075 C 
ATOM     11  C   UNL     1     -15.580   0.848  29.454  0.00  0.00    +0.013 C 
ATOM     12  C   UNL     1     -13.863   2.131  30.640  0.00  0.00    +0.013 C 
ATOM     13  C   UNL     1     -15.350   0.286  30.853  0.00  0.00    +0.001 C 
ATOM     14  C   UNL     1     -14.796   1.460  31.639  0.00  0.00    +0.001 C 
ENDBRANCH  17   9
ENDBRANCH  16   5
ENDBRANCH   7  16
TORSDOF 7
ENDMDL
MODEL 3
REMARK VINA RESULT:      -6.5     26.789     29.388
REMARK  Name = 75536560
REMARK  7 active torsions:
REMARK  status: ('A' for Active; 'I' for Inactive)
REMARK    1  A    between atoms: O_3  and  C_8
REMARK    2  A    between atoms: N_5  and  C_16
REMARK    3  A    between atoms: N_6  and  C_10
REMARK    4  A    between atoms: N_6  and  C_18
REMARK    5  A    between atoms: C_7  and  C_16
REMARK    6  A    between atoms: C_9  and  C_17
REMARK    7  A    between atoms: C_18  and  C_19
REMARK                            x       y       z     vdW  Elec       q    Type
REMARK                         _______ _______ _______ _____ _____    ______ ____
ROOT
ATOM      2  O   UNL     1     -17.453   5.524  24.063  0.00  0.00    -0.371 OA
ATOM      7  C   UNL     1     -16.098   5.396  23.601  0.00  0.00    +0.165 C 
ATOM      8  C   UNL     1     -15.590   4.071  24.154  0.00  0.00    +0.164 C 
ATOM     10  C   UNL     1     -16.299   4.022  25.495  0.00  0.00    +0.111 C 
ATOM     15  C   UNL     1     -17.661   4.588  25.135  0.00  0.00    +0.181 C 
ENDROOT
BRANCH   8   3
ATOM      3  O   UNL     1     -14.180   4.058  24.280  0.00  0.00    -0.388 OA
ATOM     27  H   UNL     1     -13.797   3.865  23.408  0.00  0.00    +0.210 HD
ENDBRANCH   8   3
BRANCH  10   6
ATOM      6  N   UNL     1     -16.372   2.688  26.068  0.00  0.00    -0.305 NA
ATOM     26  H   UNL     1     -15.427   2.324  26.187  0.00  0.00    +0.123 HD
BRANCH   6  18
ATOM     18  C   UNL     1     -17.038   2.709  27.365  0.00  0.00    +0.116 C 
BRANCH  18  19
ATOM      1  F   UNL     1     -13.474   1.544  31.571  0.00  0.00    -0.205 F 
ATOM     19  C   UNL     1     -16.085   2.398  28.489  0.00  0.00    -0.033 A 
ATOM     20  C   UNL     1     -15.350   3.423  29.083  0.00  0.00    +0.008 A 
ATOM     21  C   UNL     1     -15.939   1.084  28.935  0.00  0.00    +0.008 A 
ATOM     22  C   UNL     1     -14.467   3.135  30.124  0.00  0.00    +0.038 A 
ATOM     23  C   UNL     1     -15.057   0.796  29.976  0.00  0.00    +0.038 A 
ATOM     24  C   UNL     1     -14.320   1.821  30.571  0.00  0.00    +0.123 A 
ENDBRANCH  18  19
ENDBRANCH   6  18
ENDBRANCH  10   6
BRANCH   7  16
ATOM     16  C   UNL     1     -16.062   5.467  22.085  0.00  0.00    +0.138 C 
BRANCH  16   5
ATOM      4  O   UNL     1     -13.169   5.338  21.884  0.00  0.00    -0.276 OA
ATOM      5  N   UNL     1     -15.173   6.498  21.632  0.00  0.00    -0.313 N 
ATOM     17  C   UNL     1     -13.793   6.347  21.569  0.00  0.00    +0.216 C 
ATOM     25  H   UNL     1     -15.588   7.379  21.343  0.00  0.00    +0.149 HD
BRANCH  17   9
ATOM      9  C   UNL     1     -13.105   7.568  21.037  0.00  0.00    +0.075 C 
ATOM     11  C   UNL     1     -13.706   7.970  19.685  0.00  0.00    +0.013 C 
ATOM     12  C   UNL     1     -11.624   7.284  20.779  0.00  0.00    +0.013 C 
ATOM     13  C   UNL     1     -12.538   8.007  18.705  0.00  0.00    +0.001 C 
ATOM     14  C   UNL     1     -11.538   7.021  19.282  0.00  0.00    +0.001 C 
ENDBRANCH  17   9
ENDBRANCH  16   5
ENDBRANCH   7  16
TORSDOF 7
ENDMDL
MODEL 4
REMARK VINA RESULT:      -6.5     27.667     29.688
REMARK  Name = 75536560
REMARK  7 active torsions:
REMARK  status: ('A' for Active; 'I' for Inactive)
REMARK    1  A    between atoms: O_3  and  C_8
REMARK    2  A    between atoms: N_5  and  C_16
REMARK    3  A    between atoms: N_6  and  C_10
REMARK    4  A    between atoms: N_6  and  C_18
REMARK    5  A    between atoms: C_7  and  C_16
REMARK    6  A    between atoms: C_9  and  C_17
REMARK    7  A    between atoms: C_18  and  C_19
REMARK                            x       y       z     vdW  Elec       q    Type
REMARK                         _______ _______ _______ _____ _____    ______ ____
ROOT
ATOM      2  O   UNL     1     -11.967  -9.460  15.932  0.00  0.00    -0.371 OA
ATOM      7  C   UNL     1     -12.066  -8.033  15.787  0.00  0.00    +0.165 C 
ATOM      8  C   UNL     1     -10.745  -7.466  16.289  0.00  0.00    +0.164 C 
ATOM     10  C   UNL     1     -10.420  -8.433  17.413  0.00  0.00    +0.111 C 
ATOM     15  C   UNL     1     -10.868  -9.754  16.813  0.00  0.00    +0.181 C 
ENDROOT
BRANCH   8   3
ATOM      3  O   UNL     1     -10.880  -6.131  16.737  0.00  0.00    -0.388 OA
ATOM     27  H   UNL     1     -10.653  -6.101  17.682  0.00  0.00    +0.210 HD
ENDBRANCH   8   3
BRANCH  10   6
ATOM      6  N   UNL     1      -9.019  -8.431  17.798  0.00  0.00    -0.305 NA
ATOM     26  H   UNL     1      -8.911  -8.954  18.666  0.00  0.00    +0.123 HD
BRANCH   6  18
ATOM     18  C   UNL     1      -8.191  -9.048  16.768  0.00  0.00    +0.116 C 
BRANCH  18  19
ATOM      1  F   UNL     1      -3.699 -11.645  18.967  0.00  0.00    -0.205 F 
ATOM     19  C   UNL     1      -6.990  -9.742  17.356  0.00  0.00    -0.033 A 
ATOM     20  C   UNL     1      -5.813  -9.845  16.615  0.00  0.00    +0.008 A 
ATOM     21  C   UNL     1      -7.056 -10.281  18.641  0.00  0.00    +0.008 A 
ATOM     22  C   UNL     1      -4.701 -10.488  17.158  0.00  0.00    +0.038 A 
ATOM     23  C   UNL     1      -5.944 -10.924  19.184  0.00  0.00    +0.038 A 
ATOM     24  C   UNL     1      -4.767 -11.028  18.443  0.00  0.00    +0.123 A 
ENDBRANCH  18  19
ENDBRANCH   6  18
ENDBRANCH  10   6
BRANCH   7  16
ATOM     16  C   UNL     1     -12.359  -7.682  14.339  0.00  0.00    +0.138 C 
BRANCH  16   5
ATOM      4  O   UNL     1     -12.338  -6.134  11.883  0.00  0.00    -0.276 OA
ATOM      5  N   UNL     1     -12.641  -6.284  14.188  0.00  0.00    -0.313 N 
ATOM     17  C   UNL     1     -12.607  -5.622  12.966  0.00  0.00    +0.216 C 
ATOM     25  H   UNL     1     -12.879  -5.761  15.026  0.00  0.00    +0.149 HD
BRANCH  17   9
ATOM      9  C   UNL     1     -12.966  -4.172  13.087  0.00  0.00    +0.075 C 
ATOM     11  C   UNL     1     -14.489  -4.005  13.144  0.00  0.00    +0.013 C 
ATOM     12  C   UNL     1     -12.497  -3.395  11.856  0.00  0.00    +0.013 C 
ATOM     13  C   UNL     1     -14.847  -3.054  12.007  0.00  0.00    +0.001 C 
ATOM     14  C   UNL     1     -13.740  -3.261  10.988  0.00  0.00    +0.001 C 
ENDBRANCH  17   9
ENDBRANCH  16   5
ENDBRANCH   7  16
TORSDOF 7
ENDMDL
MODEL 5
REMARK VINA RESULT:      -6.4     26.920     29.445
REMARK  Name = 75536560
REMARK  7 active torsions:
REMARK  status: ('A' for Active; 'I' for Inactive)
REMARK    1  A    between atoms: O_3  and  C_8
REMARK    2  A    between atoms: N_5  and  C_16
REMARK    3  A    between atoms: N_6  and  C_10
REMARK    4  A    between atoms: N_6  and  C_18
REMARK    5  A    between atoms: C_7  and  C_16
REMARK    6  A    between atoms: C_9  and  C_17
REMARK    7  A    between atoms: C_18  and  C_19
REMARK                            x       y       z     vdW  Elec       q    Type
REMARK                         _______ _______ _______ _____ _____    ______ ____
ROOT
ATOM      2  O   UNL     1     -17.699   4.158  26.160  0.00  0.00    -0.371 OA
ATOM      7  C   UNL     1     -17.251   3.042  25.373  0.00  0.00    +0.165 C 
ATOM      8  C   UNL     1     -16.038   3.536  24.596  0.00  0.00    +0.164 C 
ATOM     10  C   UNL     1     -16.429   4.978  24.328  0.00  0.00    +0.111 C 
ATOM     15  C   UNL     1     -17.098   5.356  25.639  0.00  0.00    +0.181 C 
ENDROOT
BRANCH   8   3
ATOM      3  O   UNL     1     -15.835   2.795  23.408  0.00  0.00    -0.388 OA
ATOM     27  H   UNL     1     -16.241   1.918  23.521  0.00  0.00    +0.210 HD
ENDBRANCH   8   3
BRANCH  10   6
ATOM      6  N   UNL     1     -15.304   5.836  23.997  0.00  0.00    -0.305 NA
ATOM     26  H   UNL     1     -14.469   5.262  23.885  0.00  0.00    +0.123 HD
BRANCH   6  18
ATOM     18  C   UNL     1     -15.546   6.566  22.759  0.00  0.00    +0.116 C 
BRANCH  18  19
ATOM      1  F   UNL     1     -10.739   7.948  20.165  0.00  0.00    -0.205 F 
ATOM     19  C   UNL     1     -14.261   6.935  22.065  0.00  0.00    -0.033 A 
ATOM     20  C   UNL     1     -13.342   5.943  21.727  0.00  0.00    +0.008 A 
ATOM     21  C   UNL     1     -13.992   8.270  21.762  0.00  0.00    +0.008 A 
ATOM     22  C   UNL     1     -12.152   6.284  21.086  0.00  0.00    +0.038 A 
ATOM     23  C   UNL     1     -12.802   8.612  21.120  0.00  0.00    +0.038 A 
ATOM     24  C   UNL     1     -11.881   7.619  20.782  0.00  0.00    +0.123 A 
ENDBRANCH  18  19
ENDBRANCH   6  18
ENDBRANCH  10   6
BRANCH   7  16
ATOM     16  C   UNL     1     -16.944   1.863  26.279  0.00  0.00    +0.138 C 
BRANCH  16   5
ATOM      4  O   UNL     1     -15.979   0.237  28.483  0.00  0.00    -0.276 OA
ATOM      5  N   UNL     1     -16.631   2.297  27.611  0.00  0.00    -0.313 N 
ATOM     17  C   UNL     1     -16.173   1.444  28.608  0.00  0.00    +0.216 C 
ATOM     25  H   UNL     1     -16.754   3.283  27.822  0.00  0.00    +0.149 HD
BRANCH  17   9
ATOM      9  C   UNL     1     -15.900   2.159  29.896  0.00  0.00    +0.075 C 
ATOM     11  C   UNL     1     -14.943   3.332  29.660  0.00  0.00    +0.013 C 
ATOM     12  C   UNL     1     -15.202   1.231  30.891  0.00  0.00    +0.013 C 
ATOM     13  C   UNL     1     -13.764   3.104  30.600  0.00  0.00    +0.001 C 
ATOM     14  C   UNL     1     -13.728   1.598  30.791  0.00  0.00    +0.001 C 
ENDBRANCH  17   9
ENDBRANCH  16   5
ENDBRANCH   7  16
TORSDOF 7
ENDMDL
MODEL 6
REMARK VINA RESULT:      -6.3     26.110     28.724
REMARK  Name = 75536560
REMARK  7 active torsions:
REMARK  status: ('A' for Active; 'I' for Inactive)
REMARK    1  A    between atoms: O_3  and  C_8
REMARK    2  A    between atoms: N_5  and  C_16
REMARK    3  A    between atoms: N_6  and  C_10
REMARK    4  A    between atoms: N_6  and  C_18
REMARK    5  A    between atoms: C_7  and  C_16
REMARK    6  A    between atoms: C_9  and  C_17
REMARK    7  A    between atoms: C_18  and  C_19
REMARK                            x       y       z     vdW  Elec       q    Type
REMARK                         _______ _______ _______ _____ _____    ______ ____
ROOT
ATOM      2  O   UNL     1     -15.775   6.645  23.266  0.00  0.00    -0.371 OA
ATOM      7  C   UNL     1     -14.502   6.376  22.655  0.00  0.00    +0.165 C 
ATOM      8  C   UNL     1     -14.339   4.862  22.673  0.00  0.00    +0.164 C 
ATOM     10  C   UNL     1     -15.021   4.510  23.982  0.00  0.00    +0.111 C 
ATOM     15  C   UNL     1     -16.201   5.467  23.973  0.00  0.00    +0.181 C 
ENDROOT
BRANCH   8   3
ATOM      3  O   UNL     1     -12.977   4.479  22.646  0.00  0.00    -0.388 OA
ATOM     27  H   UNL     1     -12.796   3.936  23.433  0.00  0.00    +0.210 HD
ENDBRANCH   8   3
BRANCH  10   6
ATOM      6  N   UNL     1     -15.423   3.116  24.075  0.00  0.00    -0.305 NA
ATOM     26  H   UNL     1     -14.713   2.599  24.593  0.00  0.00    +0.123 HD
BRANCH   6  18
ATOM     18  C   UNL     1     -16.702   2.982  24.761  0.00  0.00    +0.116 C 
BRANCH  18  19
ATOM      1  F   UNL     1     -16.038   1.550  30.171  0.00  0.00    -0.205 F 
ATOM     19  C   UNL     1     -16.524   2.599  26.207  0.00  0.00    -0.033 A 
ATOM     20  C   UNL     1     -16.221   3.577  27.154  0.00  0.00    +0.008 A 
ATOM     21  C   UNL     1     -16.663   1.267  26.598  0.00  0.00    +0.008 A 
ATOM     22  C   UNL     1     -16.056   3.223  28.493  0.00  0.00    +0.038 A 
ATOM     23  C   UNL     1     -16.499   0.913  27.937  0.00  0.00    +0.038 A 
ATOM     24  C   UNL     1     -16.195   1.891  28.885  0.00  0.00    +0.123 A 
ENDBRANCH  18  19
ENDBRANCH   6  18
ENDBRANCH  10   6
BRANCH   7  16
ATOM     16  C   UNL     1     -14.467   6.966  21.257  0.00  0.00    +0.138 C 
BRANCH  16   5
ATOM      4  O   UNL     1     -13.474   8.761  19.202  0.00  0.00    -0.276 OA
ATOM      5  N   UNL     1     -13.122   7.073  20.769  0.00  0.00    -0.313 N 
ATOM     17  C   UNL     1     -12.735   7.966  19.777  0.00  0.00    +0.216 C 
ATOM     25  H   UNL     1     -12.426   6.459  21.180  0.00  0.00    +0.149 HD
BRANCH  17   9
ATOM      9  C   UNL     1     -11.269   7.888  19.473  0.00  0.00    +0.075 C 
ATOM     11  C   UNL     1     -10.614   9.261  19.659  0.00  0.00    +0.013 C 
ATOM     12  C   UNL     1     -11.041   7.500  18.011  0.00  0.00    +0.013 C 
ATOM     13  C   UNL     1      -9.938   9.584  18.331  0.00  0.00    +0.001 C 
ATOM     14  C   UNL     1     -10.752   8.817  17.304  0.00  0.00    +0.001 C 
ENDBRANCH  17   9
ENDBRANCH  16   5
ENDBRANCH   7  16
TORSDOF 7
ENDMDL
MODEL 7
REMARK VINA RESULT:      -6.3     26.515     28.600
REMARK  Name = 75536560
REMARK  7 active torsions:
REMARK  status: ('A' for Active; 'I' for Inactive)
REMARK    1  A    between atoms: O_3  and  C_8
REMARK    2  A    between atoms: N_5  and  C_16
REMARK    3  A    between atoms: N_6  and  C_10
REMARK    4  A    between atoms: N_6  and  C_18
REMARK    5  A    between atoms: C_7  and  C_16
REMARK    6  A    between atoms: C_9  and  C_17
REMARK    7  A    between atoms: C_18  and  C_19
REMARK                            x       y       z     vdW  Elec       q    Type
REMARK                         _______ _______ _______ _____ _____    ______ ____
ROOT
ATOM      2  O   UNL     1      -7.492 -12.974  18.766  0.00  0.00    -0.371 OA
ATOM      7  C   UNL     1      -7.721 -11.835  19.614  0.00  0.00    +0.165 C 
ATOM      8  C   UNL     1      -6.720 -10.776  19.173  0.00  0.00    +0.164 C 
ATOM     10  C   UNL     1      -5.529 -11.638  18.796  0.00  0.00    +0.111 C 
ATOM     15  C   UNL     1      -6.213 -12.819  18.128  0.00  0.00    +0.181 C 
ENDROOT
BRANCH   8   3
ATOM      3  O   UNL     1      -6.426  -9.863  20.214  0.00  0.00    -0.388 OA
ATOM     27  H   UNL     1      -5.465  -9.864  20.359  0.00  0.00    +0.210 HD
ENDBRANCH   8   3
BRANCH  10   6
ATOM      6  N   UNL     1      -4.577 -10.968  17.926  0.00  0.00    -0.305 NA
ATOM     26  H   UNL     1      -3.803 -11.602  17.729  0.00  0.00    +0.123 HD
BRANCH   6  18
ATOM     18  C   UNL     1      -5.200 -10.577  16.667  0.00  0.00    +0.116 C 
BRANCH  18  19
ATOM      1  F   UNL     1      -1.521 -10.634  12.399  0.00  0.00    -0.205 F 
ATOM     19  C   UNL     1      -4.217 -10.592  15.526  0.00  0.00    -0.033 A 
ATOM     20  C   UNL     1      -4.677 -10.570  14.209  0.00  0.00    +0.008 A 
ATOM     21  C   UNL     1      -2.847 -10.628  15.787  0.00  0.00    +0.008 A 
ATOM     22  C   UNL     1      -3.766 -10.584  13.153  0.00  0.00    +0.038 A 
ATOM     23  C   UNL     1      -1.937 -10.643  14.730  0.00  0.00    +0.038 A 
ATOM     24  C   UNL     1      -2.396 -10.621  13.413  0.00  0.00    +0.123 A 
ENDBRANCH  18  19
ENDBRANCH   6  18
ENDBRANCH  10   6
BRANCH   7  16
ATOM     16  C   UNL     1      -9.166 -11.384  19.490  0.00  0.00    +0.138 C 
BRANCH  16   5
ATOM      4  O   UNL     1     -11.580 -10.128  18.478  0.00  0.00    -0.276 OA
ATOM      5  N   UNL     1      -9.267 -10.154  18.758  0.00  0.00    -0.313 N 
ATOM     17  C   UNL     1     -10.472  -9.625  18.310  0.00  0.00    +0.216 C 
ATOM     25  H   UNL     1      -8.405  -9.652  18.565  0.00  0.00    +0.149 HD
BRANCH  17   9
ATOM      9  C   UNL     1     -10.296  -8.320  17.595  0.00  0.00    +0.075 C 
ATOM     11  C   UNL     1     -11.537  -8.006  16.750  0.00  0.00    +0.013 C 
ATOM     12  C   UNL     1      -9.121  -8.393  16.619  0.00  0.00    +0.013 C 
ATOM     13  C   UNL     1     -11.030  -7.806  15.326  0.00  0.00    +0.001 C 
ATOM     14  C   UNL     1      -9.764  -8.640  15.261  0.00  0.00    +0.001 C 
ENDBRANCH  17   9
ENDBRANCH  16   5
ENDBRANCH   7  16
TORSDOF 7
ENDMDL
MODEL 8
REMARK VINA RESULT:      -6.3     28.569     31.121
REMARK  Name = 75536560
REMARK  7 active torsions:
REMARK  status: ('A' for Active; 'I' for Inactive)
REMARK    1  A    between atoms: O_3  and  C_8
REMARK    2  A    between atoms: N_5  and  C_16
REMARK    3  A    between atoms: N_6  and  C_10
REMARK    4  A    between atoms: N_6  and  C_18
REMARK    5  A    between atoms: C_7  and  C_16
REMARK    6  A    between atoms: C_9  and  C_17
REMARK    7  A    between atoms: C_18  and  C_19
REMARK                            x       y       z     vdW  Elec       q    Type
REMARK                         _______ _______ _______ _____ _____    ______ ____
ROOT
ATOM      2  O   UNL     1      -9.599  -8.006   6.586  0.00  0.00    -0.371 OA
ATOM      7  C   UNL     1      -8.246  -7.627   6.893  0.00  0.00    +0.165 C 
ATOM      8  C   UNL     1      -8.328  -6.747   8.133  0.00  0.00    +0.164 C 
ATOM     10  C   UNL     1      -9.640  -6.023   7.891  0.00  0.00    +0.111 C 
ATOM     15  C   UNL     1     -10.491  -7.133   7.299  0.00  0.00    +0.181 C 
ENDROOT
BRANCH   8   3
ATOM      3  O   UNL     1      -7.226  -5.865   8.226  0.00  0.00    -0.388 OA
ATOM     27  H   UNL     1      -6.850  -5.750   7.337  0.00  0.00    +0.210 HD
ENDBRANCH   8   3
BRANCH  10   6
ATOM      6  N   UNL     1     -10.217  -5.445   9.093  0.00  0.00    -0.305 NA
ATOM     26  H   UNL     1      -9.517  -5.448   9.834  0.00  0.00    +0.123 HD
BRANCH   6  18
ATOM     18  C   UNL     1     -10.653  -4.073   8.860  0.00  0.00    +0.116 C 
BRANCH  18  19
ATOM      1  F   UNL     1     -15.329  -2.837  11.751  0.00  0.00    -0.205 F 
ATOM     19  C   UNL     1     -11.903  -3.743   9.633  0.00  0.00    -0.033 A 
ATOM     20  C   UNL     1     -13.088  -3.464   8.953  0.00  0.00    +0.008 A 
ATOM     21  C   UNL     1     -11.873  -3.716  11.027  0.00  0.00    +0.008 A 
ATOM     22  C   UNL     1     -14.246  -3.157   9.669  0.00  0.00    +0.038 A 
ATOM     23  C   UNL     1     -13.031  -3.409  11.742  0.00  0.00    +0.038 A 
ATOM     24  C   UNL     1     -14.218  -3.130  11.063  0.00  0.00    +0.123 A 
ENDBRANCH  18  19
ENDBRANCH   6  18
ENDBRANCH  10   6
BRANCH   7  16
ATOM     16  C   UNL     1      -7.397  -8.870   7.094  0.00  0.00    +0.138 C 
BRANCH  16   5
ATOM      4  O   UNL     1      -4.986 -10.437   7.493  0.00  0.00    -0.276 OA
ATOM      5  N   UNL     1      -6.359  -8.642   8.058  0.00  0.00    -0.313 N 
ATOM     17  C   UNL     1      -5.233  -9.448   8.178  0.00  0.00    +0.216 C 
ATOM     25  H   UNL     1      -6.463  -7.844   8.678  0.00  0.00    +0.149 HD
BRANCH  17   9
ATOM      9  C   UNL     1      -4.296  -8.972   9.246  0.00  0.00    +0.075 C 
ATOM     11  C   UNL     1      -3.618 -10.166   9.928  0.00  0.00    +0.013 C 
ATOM     12  C   UNL     1      -5.060  -8.230  10.344  0.00  0.00    +0.013 C 
ATOM     13  C   UNL     1      -3.924 -10.025  11.416  0.00  0.00    +0.001 C 
ATOM     14  C   UNL     1      -5.233  -9.257  11.454  0.00  0.00    +0.001 C 
ENDBRANCH  17   9
ENDBRANCH  16   5
ENDBRANCH   7  16
TORSDOF 7
ENDMDL
MODEL 9
REMARK VINA RESULT:      -6.2     16.651     19.837
REMARK  Name = 75536560
REMARK  7 active torsions:
REMARK  status: ('A' for Active; 'I' for Inactive)
REMARK    1  A    between atoms: O_3  and  C_8
REMARK    2  A    between atoms: N_5  and  C_16
REMARK    3  A    between atoms: N_6  and  C_10
REMARK    4  A    between atoms: N_6  and  C_18
REMARK    5  A    between atoms: C_7  and  C_16
REMARK    6  A    between atoms: C_9  and  C_17
REMARK    7  A    between atoms: C_18  and  C_19
REMARK                            x       y       z     vdW  Elec       q    Type
REMARK                         _______ _______ _______ _____ _____    ______ ____
ROOT
ATOM      2  O   UNL     1      14.143   7.952   1.310  0.00  0.00    -0.371 OA
ATOM      7  C   UNL     1      15.173   7.108   1.852  0.00  0.00    +0.165 C 
ATOM      8  C   UNL     1      14.688   6.689   3.234  0.00  0.00    +0.164 C 
ATOM     10  C   UNL     1      13.950   7.939   3.677  0.00  0.00    +0.111 C 
ATOM     15  C   UNL     1      13.279   8.366   2.383  0.00  0.00    +0.181 C 
ENDROOT
BRANCH   8   3
ATOM      3  O   UNL     1      15.763   6.356   4.091  0.00  0.00    -0.388 OA
ATOM     27  H   UNL     1      15.905   7.096   4.705  0.00  0.00    +0.210 HD
ENDBRANCH   8   3
BRANCH  10   6
ATOM      6  N   UNL     1      13.004   7.706   4.755  0.00  0.00    -0.305 NA
ATOM     26  H   UNL     1      12.635   8.602   5.073  0.00  0.00    +0.123 HD
BRANCH   6  18
ATOM     18  C   UNL     1      11.896   6.869   4.311  0.00  0.00    +0.116 C 
BRANCH  18  19
ATOM      1  F   UNL     1       9.313   4.341   8.634  0.00  0.00    -0.205 F 
ATOM     19  C   UNL     1      11.205   6.193   5.467  0.00  0.00    -0.033 A 
ATOM     20  C   UNL     1      11.497   6.580   6.775  0.00  0.00    +0.008 A 
ATOM     21  C   UNL     1      10.275   5.181   5.228  0.00  0.00    +0.008 A 
ATOM     22  C   UNL     1      10.858   5.954   7.845  0.00  0.00    +0.038 A 
ATOM     23  C   UNL     1       9.637   4.556   6.298  0.00  0.00    +0.038 A 
ATOM     24  C   UNL     1       9.928   4.942   7.607  0.00  0.00    +0.123 A 
ENDBRANCH  18  19
ENDBRANCH   6  18
ENDBRANCH  10   6
BRANCH   7  16
ATOM     16  C   UNL     1      15.420   5.935   0.921  0.00  0.00    +0.138 C 
BRANCH  16   5
ATOM      4  O   UNL     1      15.078   3.242   1.951  0.00  0.00    -0.276 OA
ATOM      5  N   UNL     1      14.258   5.101   0.812  0.00  0.00    -0.313 N 
ATOM     17  C   UNL     1      14.182   3.817   1.338  0.00  0.00    +0.216 C 
ATOM     25  H   UNL     1      13.453   5.483   0.323  0.00  0.00    +0.149 HD
BRANCH  17   9
ATOM      9  C   UNL     1      12.847   3.177   1.104  0.00  0.00    +0.075 C 
ATOM     11  C   UNL     1      12.254   3.657  -0.226  0.00  0.00    +0.013 C 
ATOM     12  C   UNL     1      11.853   3.590   2.190  0.00  0.00    +0.013 C 
ATOM     13  C   UNL     1      10.888   4.242   0.115  0.00  0.00    +0.001 C 
ATOM     14  C   UNL     1      11.029   4.703   1.555  0.00  0.00    +0.001 C 
ENDBRANCH  17   9
ENDBRANCH  16   5
ENDBRANCH   7  16
TORSDOF 7
ENDMDL
MODEL 10
REMARK VINA RESULT:      -6.2     27.600     28.677
REMARK  Name = 75536560
REMARK  7 active torsions:
REMARK  status: ('A' for Active; 'I' for Inactive)
REMARK    1  A    between atoms: O_3  and  C_8
REMARK    2  A    between atoms: N_5  and  C_16
REMARK    3  A    between atoms: N_6  and  C_10
REMARK    4  A    between atoms: N_6  and  C_18
REMARK    5  A    between atoms: C_7  and  C_16
REMARK    6  A    between atoms: C_9  and  C_17
REMARK    7  A    between atoms: C_18  and  C_19
REMARK                            x       y       z     vdW  Elec       q    Type
REMARK                         _______ _______ _______ _____ _____    ______ ____
ROOT
ATOM      2  O   UNL     1      -3.382 -14.696  13.432  0.00  0.00    -0.371 OA
ATOM      7  C   UNL     1      -3.147 -14.004  14.670  0.00  0.00    +0.165 C 
ATOM      8  C   UNL     1      -2.698 -12.600  14.287  0.00  0.00    +0.164 C 
ATOM     10  C   UNL     1      -1.907 -12.881  13.023  0.00  0.00    +0.111 C 
ATOM     15  C   UNL     1      -2.758 -13.956  12.369  0.00  0.00    +0.181 C 
ENDROOT
BRANCH   8   3
ATOM      3  O   UNL     1      -1.912 -12.004  15.302  0.00  0.00    -0.388 OA
ATOM     27  H   UNL     1      -1.694 -12.686  15.960  0.00  0.00    +0.210 HD
ENDBRANCH   8   3
BRANCH  10   6
ATOM      6  N   UNL     1      -1.723 -11.712  12.179  0.00  0.00    -0.305 NA
ATOM     26  H   UNL     1      -1.635 -12.013  11.208  0.00  0.00    +0.123 HD
BRANCH   6  18
ATOM     18  C   UNL     1      -2.855 -10.800  12.290  0.00  0.00    +0.116 C 
BRANCH  18  19
ATOM      1  F   UNL     1      -5.128  -9.652   7.264  0.00  0.00    -0.205 F 
ATOM     19  C   UNL     1      -3.462 -10.493  10.947  0.00  0.00    -0.033 A 
ATOM     20  C   UNL     1      -3.484  -9.180  10.475  0.00  0.00    +0.008 A 
ATOM     21  C   UNL     1      -4.003 -11.521  10.175  0.00  0.00    +0.008 A 
ATOM     22  C   UNL     1      -4.046  -8.896   9.231  0.00  0.00    +0.038 A 
ATOM     23  C   UNL     1      -4.566 -11.237   8.931  0.00  0.00    +0.038 A 
ATOM     24  C   UNL     1      -4.588  -9.924   8.459  0.00  0.00    +0.123 A 
ENDBRANCH  18  19
ENDBRANCH   6  18
ENDBRANCH  10   6
BRANCH   7  16
ATOM     16  C   UNL     1      -4.408 -14.021  15.516  0.00  0.00    +0.138 C 
BRANCH  16   5
ATOM      4  O   UNL     1      -6.231 -11.764  15.620  0.00  0.00    -0.276 OA
ATOM      5  N   UNL     1      -4.412 -12.947  16.467  0.00  0.00    -0.313 N 
ATOM     17  C   UNL     1      -5.328 -11.902  16.440  0.00  0.00    +0.216 C 
ATOM     25  H   UNL     1      -3.704 -12.965  17.195  0.00  0.00    +0.149 HD
BRANCH  17   9
ATOM      9  C   UNL     1      -5.124 -10.929  17.562  0.00  0.00    +0.075 C 
ATOM     11  C   UNL     1      -4.575 -11.650  18.798  0.00  0.00    +0.013 C 
ATOM     12  C   UNL     1      -6.455 -10.307  17.986  0.00  0.00    +0.013 C 
ATOM     13  C   UNL     1      -5.550 -11.341  19.928  0.00  0.00    +0.001 C 
ATOM     14  C   UNL     1      -6.871 -11.094  19.221  0.00  0.00    +0.001 C 
ENDBRANCH  17   9
ENDBRANCH  16   5
ENDBRANCH   7  16
TORSDOF 7
ENDMDL
