MODEL 1
REMARK VINA RESULT:      -7.9      0.000      0.000
REMARK  Name = 40586261
REMARK  4 active torsions:
REMARK  status: ('A' for Active; 'I' for Inactive)
REMARK    1  A    between atoms: O_3  and  C_29
REMARK    2  A    between atoms: O_3  and  C_30
REMARK    3  A    between atoms: C_13  and  C_14
REMARK    4  A    between atoms: C_22  and  C_24
REMARK                            x       y       z     vdW  Elec       q    Type
REMARK                         _______ _______ _______ _____ _____    ______ ____
ROOT
ATOM      1  O   UNL     1      11.763   7.638  17.869  0.00  0.00    -0.275 OA
ATOM      2  O   UNL     1      15.320   6.237  21.611  0.00  0.00    -0.267 OA
ATOM      4  N   UNL     1      11.661   9.086  19.684  0.00  0.00    -0.300 N 
ATOM      5  N   UNL     1      13.971   8.139  21.675  0.00  0.00    -0.311 N 
ATOM      6  C   UNL     1      11.426   8.016  21.928  0.00  0.00    +0.027 C 
ATOM      7  C   UNL     1      12.530  10.204  21.729  0.00  0.00    +0.054 C 
ATOM      8  C   UNL     1      11.565   9.385  22.583  0.00  0.00    +0.018 C 
ATOM      9  C   UNL     1      10.877   8.155  20.498  0.00  0.00    +0.113 C 
ATOM     10  C   UNL     1      11.945  10.383  20.315  0.00  0.00    +0.117 C 
ATOM     11  C   UNL     1      12.789   7.313  21.956  0.00  0.00    +0.130 C 
ATOM     12  C   UNL     1      13.888   9.534  21.641  0.00  0.00    +0.027 A 
ATOM     14  C   UNL     1      12.010   8.734  18.380  0.00  0.00    +0.219 C 
ATOM     17  C   UNL     1      15.001  10.271  21.504  0.00  0.00    +0.022 A 
ATOM     20  C   UNL     1      15.201   7.462  21.553  0.00  0.00    +0.259 A 
ATOM     22  C   UNL     1      16.426   8.315  21.363  0.00  0.00    +0.047 A 
ATOM     23  C   UNL     1      16.286   9.649  21.357  0.00  0.00    +0.015 A 
ENDROOT
BRANCH  14  13
ATOM     13  C   UNL     1      12.735   9.769  17.577  0.00  0.00    +0.075 C 
ATOM     15  C   UNL     1      14.223   9.755  17.932  0.00  0.00    +0.013 C 
ATOM     16  C   UNL     1      12.513   9.500  16.087  0.00  0.00    +0.013 C 
ATOM     18  C   UNL     1      15.016  10.726  17.061  0.00  0.00    +0.001 C 
ATOM     19  C   UNL     1      13.310  10.468  15.217  0.00  0.00    +0.001 C 
ATOM     21  C   UNL     1      14.794  10.456  15.576  0.00  0.00    +0.000 C 
ENDBRANCH  14  13
BRANCH  22  24
ATOM     24  C   UNL     1      17.757   7.710  21.177  0.00  0.00    -0.012 A 
ATOM     25  C   UNL     1      17.914   6.622  20.318  0.00  0.00    +0.012 A 
ATOM     26  C   UNL     1      18.858   8.225  21.860  0.00  0.00    +0.012 A 
ATOM     27  C   UNL     1      19.174   6.049  20.143  0.00  0.00    +0.046 A 
ATOM     28  C   UNL     1      20.118   7.651  21.686  0.00  0.00    +0.046 A 
ATOM     29  C   UNL     1      20.275   6.563  20.826  0.00  0.00    +0.120 A 
BRANCH  29   3
ATOM      3  O   UNL     1      21.504   6.003  20.657  0.00  0.00    -0.495 OA
ATOM     30  C   UNL     1      21.610   4.594  20.850  0.00  0.00    +0.277 C 
ENDBRANCH  29   3
ENDBRANCH  22  24
TORSDOF 3
ENDMDL
MODEL 2
REMARK VINA RESULT:      -7.6      3.281      7.359
REMARK  Name = 40586261
REMARK  4 active torsions:
REMARK  status: ('A' for Active; 'I' for Inactive)
REMARK    1  A    between atoms: O_3  and  C_29
REMARK    2  A    between atoms: O_3  and  C_30
REMARK    3  A    between atoms: C_13  and  C_14
REMARK    4  A    between atoms: C_22  and  C_24
REMARK                            x       y       z     vdW  Elec       q    Type
REMARK                         _______ _______ _______ _____ _____    ______ ____
ROOT
ATOM      1  O   UNL     1      15.096   6.725  21.021  0.00  0.00    -0.275 OA
ATOM      2  O   UNL     1      10.796   9.706  22.138  0.00  0.00    -0.267 OA
ATOM      4  N   UNL     1      14.438   7.950  19.159  0.00  0.00    -0.300 N 
ATOM      5  N   UNL     1      11.984   9.748  20.131  0.00  0.00    -0.311 N 
ATOM      6  C   UNL     1      12.032   7.762  18.516  0.00  0.00    +0.027 C 
ATOM      7  C   UNL     1      13.283   9.808  17.974  0.00  0.00    +0.054 C 
ATOM      8  C   UNL     1      12.248   8.820  17.441  0.00  0.00    +0.018 C 
ATOM      9  C   UNL     1      13.349   7.030  18.825  0.00  0.00    +0.113 C 
ATOM     10  C   UNL     1      14.615   9.075  18.228  0.00  0.00    +0.117 C 
ATOM     11  C   UNL     1      11.441   8.434  19.762  0.00  0.00    +0.130 C 
ATOM     12  C   UNL     1      12.805  10.463  19.255  0.00  0.00    +0.027 A 
ATOM     14  C   UNL     1      15.262   7.674  20.251  0.00  0.00    +0.219 C 
ATOM     17  C   UNL     1      13.190  11.712  19.563  0.00  0.00    +0.022 A 
ATOM     20  C   UNL     1      11.547  10.291  21.355  0.00  0.00    +0.259 A 
ATOM     22  C   UNL     1      12.026  11.678  21.688  0.00  0.00    +0.047 A 
ATOM     23  C   UNL     1      12.797  12.323  20.800  0.00  0.00    +0.015 A 
ENDROOT
BRANCH  14  13
ATOM     13  C   UNL     1      16.407   8.611  20.480  0.00  0.00    +0.075 C 
ATOM     15  C   UNL     1      16.023   9.656  21.529  0.00  0.00    +0.013 C 
ATOM     16  C   UNL     1      17.636   7.810  20.912  0.00  0.00    +0.013 C 
ATOM     18  C   UNL     1      17.199  10.569  21.867  0.00  0.00    +0.001 C 
ATOM     19  C   UNL     1      18.810   8.723  21.255  0.00  0.00    +0.001 C 
ATOM     21  C   UNL     1      18.424   9.768  22.299  0.00  0.00    +0.000 C 
ENDBRANCH  14  13
BRANCH  22  24
ATOM     24  C   UNL     1      11.668  12.324  22.964  0.00  0.00    -0.012 A 
ATOM     25  C   UNL     1      10.612  13.235  23.013  0.00  0.00    +0.012 A 
ATOM     26  C   UNL     1      12.385  12.025  24.122  0.00  0.00    +0.012 A 
ATOM     27  C   UNL     1      10.275  13.847  24.220  0.00  0.00    +0.046 A 
ATOM     28  C   UNL     1      12.048  12.637  25.329  0.00  0.00    +0.046 A 
ATOM     29  C   UNL     1      10.992  13.549  25.377  0.00  0.00    +0.120 A 
BRANCH  29   3
ATOM      3  O   UNL     1      10.663  14.146  26.556  0.00  0.00    -0.495 OA
ATOM     30  C   UNL     1      11.501  15.212  27.000  0.00  0.00    +0.277 C 
ENDBRANCH  29   3
ENDBRANCH  22  24
TORSDOF 3
ENDMDL
MODEL 3
REMARK VINA RESULT:      -7.2     17.056     20.802
REMARK  Name = 40586261
REMARK  4 active torsions:
REMARK  status: ('A' for Active; 'I' for Inactive)
REMARK    1  A    between atoms: O_3  and  C_29
REMARK    2  A    between atoms: O_3  and  C_30
REMARK    3  A    between atoms: C_13  and  C_14
REMARK    4  A    between atoms: C_22  and  C_24
REMARK                            x       y       z     vdW  Elec       q    Type
REMARK                         _______ _______ _______ _____ _____    ______ ____
ROOT
ATOM      1  O   UNL     1      12.961   5.941  -2.364  0.00  0.00    -0.275 OA
ATOM      2  O   UNL     1      12.188   7.792   2.595  0.00  0.00    -0.267 OA
ATOM      4  N   UNL     1      13.409   4.290  -0.791  0.00  0.00    -0.300 N 
ATOM      5  N   UNL     1      12.717   5.588   2.044  0.00  0.00    -0.311 N 
ATOM      6  C   UNL     1      14.979   4.923   1.045  0.00  0.00    +0.027 C 
ATOM      7  C   UNL     1      13.266   3.205   1.443  0.00  0.00    +0.054 C 
ATOM      8  C   UNL     1      14.722   3.578   1.714  0.00  0.00    +0.018 C 
ATOM      9  C   UNL     1      14.733   4.828  -0.470  0.00  0.00    +0.113 C 
ATOM     10  C   UNL     1      13.044   3.059  -0.075  0.00  0.00    +0.117 C 
ATOM     11  C   UNL     1      14.092   5.984   1.708  0.00  0.00    +0.130 C 
ATOM     12  C   UNL     1      12.320   4.249   2.002  0.00  0.00    +0.027 A 
ATOM     14  C   UNL     1      12.636   4.907  -1.776  0.00  0.00    +0.219 C 
ATOM     17  C   UNL     1      11.097   3.897   2.429  0.00  0.00    +0.022 A 
ATOM     20  C   UNL     1      11.863   6.606   2.511  0.00  0.00    +0.259 A 
ATOM     22  C   UNL     1      10.486   6.184   2.948  0.00  0.00    +0.047 A 
ATOM     23  C   UNL     1      10.167   4.882   2.903  0.00  0.00    +0.015 A 
ENDROOT
BRANCH  14  13
ATOM     13  C   UNL     1      11.333   4.251  -2.112  0.00  0.00    +0.075 C 
ATOM     15  C   UNL     1      10.358   5.288  -2.673  0.00  0.00    +0.013 C 
ATOM     16  C   UNL     1      11.580   3.118  -3.111  0.00  0.00    +0.013 C 
ATOM     18  C   UNL     1       9.051   4.642  -3.126  0.00  0.00    +0.001 C 
ATOM     19  C   UNL     1      10.273   2.476  -3.567  0.00  0.00    +0.001 C 
ATOM     21  C   UNL     1       9.300   3.513  -4.122  0.00  0.00    +0.000 C 
ENDBRANCH  14  13
BRANCH  22  24
ATOM     24  C   UNL     1       9.495   7.173   3.411  0.00  0.00    -0.012 A 
ATOM     25  C   UNL     1       9.267   7.345   4.776  0.00  0.00    +0.012 A 
ATOM     26  C   UNL     1       8.786   7.936   2.483  0.00  0.00    +0.012 A 
ATOM     27  C   UNL     1       8.328   8.280   5.213  0.00  0.00    +0.046 A 
ATOM     28  C   UNL     1       7.847   8.870   2.921  0.00  0.00    +0.046 A 
ATOM     29  C   UNL     1       7.619   9.042   4.287  0.00  0.00    +0.120 A 
BRANCH  29   3
ATOM      3  O   UNL     1       6.702   9.953   4.713  0.00  0.00    -0.495 OA
ATOM     30  C   UNL     1       5.720  10.378   3.769  0.00  0.00    +0.277 C 
ENDBRANCH  29   3
ENDBRANCH  22  24
TORSDOF 3
ENDMDL
MODEL 4
REMARK VINA RESULT:      -7.0     27.051     29.709
REMARK  Name = 40586261
REMARK  4 active torsions:
REMARK  status: ('A' for Active; 'I' for Inactive)
REMARK    1  A    between atoms: O_3  and  C_29
REMARK    2  A    between atoms: O_3  and  C_30
REMARK    3  A    between atoms: C_13  and  C_14
REMARK    4  A    between atoms: C_22  and  C_24
REMARK                            x       y       z     vdW  Elec       q    Type
REMARK                         _______ _______ _______ _____ _____    ______ ____
ROOT
ATOM      1  O   UNL     1      -3.960 -14.711  12.250  0.00  0.00    -0.275 OA
ATOM      2  O   UNL     1      -6.595 -10.689  14.594  0.00  0.00    -0.267 OA
ATOM      4  N   UNL     1      -2.552 -12.894  12.589  0.00  0.00    -0.300 N 
ATOM      5  N   UNL     1      -4.308 -10.719  14.135  0.00  0.00    -0.311 N 
ATOM      6  C   UNL     1      -3.381 -10.693  11.748  0.00  0.00    +0.027 C 
ATOM      7  C   UNL     1      -1.835 -10.765  13.658  0.00  0.00    +0.054 C 
ATOM      8  C   UNL     1      -2.171 -10.010  12.374  0.00  0.00    +0.018 C 
ATOM      9  C   UNL     1      -3.065 -12.164  11.428  0.00  0.00    +0.113 C 
ATOM     10  C   UNL     1      -1.467 -12.223  13.320  0.00  0.00    +0.117 C 
ATOM     11  C   UNL     1      -4.576 -10.555  12.700  0.00  0.00    +0.130 C 
ATOM     12  C   UNL     1      -3.000 -10.741  14.628  0.00  0.00    +0.027 A 
ATOM     14  C   UNL     1      -3.047 -14.166  12.875  0.00  0.00    +0.219 C 
ATOM     17  C   UNL     1      -2.782 -10.770  15.952  0.00  0.00    +0.022 A 
ATOM     20  C   UNL     1      -5.428 -10.741  14.988  0.00  0.00    +0.259 A 
ATOM     22  C   UNL     1      -5.150 -10.811  16.466  0.00  0.00    +0.047 A 
ATOM     23  C   UNL     1      -3.875 -10.811  16.881  0.00  0.00    +0.015 A 
ENDROOT
BRANCH  14  13
ATOM     13  C   UNL     1      -2.414 -14.888  14.025  0.00  0.00    +0.075 C 
ATOM     15  C   UNL     1      -3.483 -15.644  14.817  0.00  0.00    +0.013 C 
ATOM     16  C   UNL     1      -1.337 -15.836  13.494  0.00  0.00    +0.013 C 
ATOM     18  C   UNL     1      -2.866 -16.477  15.937  0.00  0.00    +0.001 C 
ATOM     19  C   UNL     1      -0.724 -16.672  14.614  0.00  0.00    +0.001 C 
ATOM     21  C   UNL     1      -1.791 -17.422  15.406  0.00  0.00    +0.000 C 
ENDBRANCH  14  13
BRANCH  22  24
ATOM     24  C   UNL     1      -6.248 -10.886  17.447  0.00  0.00    -0.012 A 
ATOM     25  C   UNL     1      -7.311  -9.986  17.374  0.00  0.00    +0.012 A 
ATOM     26  C   UNL     1      -6.223 -11.857  18.448  0.00  0.00    +0.012 A 
ATOM     27  C   UNL     1      -8.349 -10.057  18.303  0.00  0.00    +0.046 A 
ATOM     28  C   UNL     1      -7.261 -11.927  19.377  0.00  0.00    +0.046 A 
ATOM     29  C   UNL     1      -8.324 -11.027  19.304  0.00  0.00    +0.120 A 
BRANCH  29   3
ATOM      3  O   UNL     1      -9.336 -11.096  20.211  0.00  0.00    -0.495 OA
ATOM     30  C   UNL     1     -10.532 -10.380  19.908  0.00  0.00    +0.277 C 
ENDBRANCH  29   3
ENDBRANCH  22  24
TORSDOF 3
ENDMDL
MODEL 5
REMARK VINA RESULT:      -6.9     22.397     26.327
REMARK  Name = 40586261
REMARK  4 active torsions:
REMARK  status: ('A' for Active; 'I' for Inactive)
REMARK    1  A    between atoms: O_3  and  C_29
REMARK    2  A    between atoms: O_3  and  C_30
REMARK    3  A    between atoms: C_13  and  C_14
REMARK    4  A    between atoms: C_22  and  C_24
REMARK                            x       y       z     vdW  Elec       q    Type
REMARK                         _______ _______ _______ _____ _____    ______ ____
ROOT
ATOM      1  O   UNL     1      -3.153  12.157   2.717  0.00  0.00    -0.275 OA
ATOM      2  O   UNL     1      -6.647   9.567   5.833  0.00  0.00    -0.267 OA
ATOM      4  N   UNL     1      -2.046  10.786   4.232  0.00  0.00    -0.300 N 
ATOM      5  N   UNL     1      -4.337   9.246   5.839  0.00  0.00    -0.311 N 
ATOM      6  C   UNL     1      -2.697  11.048   6.629  0.00  0.00    +0.027 C 
ATOM      7  C   UNL     1      -1.844   8.886   5.826  0.00  0.00    +0.054 C 
ATOM      8  C   UNL     1      -1.797   9.873   6.990  0.00  0.00    +0.018 C 
ATOM      9  C   UNL     1      -2.204  11.729   5.341  0.00  0.00    +0.113 C 
ATOM     10  C   UNL     1      -1.297   9.562   4.554  0.00  0.00    +0.117 C 
ATOM     11  C   UNL     1      -4.140  10.545   6.498  0.00  0.00    +0.130 C 
ATOM     12  C   UNL     1      -3.258   8.397   5.580  0.00  0.00    +0.027 A 
ATOM     14  C   UNL     1      -2.526  11.125   2.967  0.00  0.00    +0.219 C 
ATOM     17  C   UNL     1      -3.474   7.166   5.089  0.00  0.00    +0.022 A 
ATOM     20  C   UNL     1      -5.668   8.861   5.587  0.00  0.00    +0.259 A 
ATOM     22  C   UNL     1      -5.875   7.490   5.002  0.00  0.00    +0.047 A 
ATOM     23  C   UNL     1      -4.802   6.712   4.792  0.00  0.00    +0.015 A 
ENDROOT
BRANCH  14  13
ATOM     13  C   UNL     1      -2.251  10.150   1.863  0.00  0.00    +0.075 C 
ATOM     15  C   UNL     1      -3.383  10.197   0.834  0.00  0.00    +0.013 C 
ATOM     16  C   UNL     1      -0.900  10.479   1.224  0.00  0.00    +0.013 C 
ATOM     18  C   UNL     1      -3.091   9.293  -0.361  0.00  0.00    +0.001 C 
ATOM     19  C   UNL     1      -0.612   9.578   0.026  0.00  0.00    +0.001 C 
ATOM     21  C   UNL     1      -1.743   9.622  -0.997  0.00  0.00    +0.000 C 
ENDBRANCH  14  13
BRANCH  22  24
ATOM     24  C   UNL     1      -7.222   7.002   4.655  0.00  0.00    -0.012 A 
ATOM     25  C   UNL     1      -7.901   7.548   3.565  0.00  0.00    +0.012 A 
ATOM     26  C   UNL     1      -7.816   5.996   5.416  0.00  0.00    +0.012 A 
ATOM     27  C   UNL     1      -9.177   7.086   3.238  0.00  0.00    +0.046 A 
ATOM     28  C   UNL     1      -9.092   5.536   5.089  0.00  0.00    +0.046 A 
ATOM     29  C   UNL     1      -9.772   6.082   3.999  0.00  0.00    +0.120 A 
BRANCH  29   3
ATOM      3  O   UNL     1     -11.016   5.632   3.680  0.00  0.00    -0.495 OA
ATOM     30  C   UNL     1     -11.798   5.078   4.737  0.00  0.00    +0.277 C 
ENDBRANCH  29   3
ENDBRANCH  22  24
TORSDOF 3
ENDMDL
MODEL 6
REMARK VINA RESULT:      -6.8     27.312     30.286
REMARK  Name = 40586261
REMARK  4 active torsions:
REMARK  status: ('A' for Active; 'I' for Inactive)
REMARK    1  A    between atoms: O_3  and  C_29
REMARK    2  A    between atoms: O_3  and  C_30
REMARK    3  A    between atoms: C_13  and  C_14
REMARK    4  A    between atoms: C_22  and  C_24
REMARK                            x       y       z     vdW  Elec       q    Type
REMARK                         _______ _______ _______ _____ _____    ______ ____
ROOT
ATOM      1  O   UNL     1     -11.284 -12.009  16.215  0.00  0.00    -0.275 OA
ATOM      2  O   UNL     1      -6.161 -13.540  16.035  0.00  0.00    -0.267 OA
ATOM      4  N   UNL     1     -10.445 -12.329  18.359  0.00  0.00    -0.300 N 
ATOM      5  N   UNL     1      -7.361 -13.066  17.978  0.00  0.00    -0.311 N 
ATOM      6  C   UNL     1      -9.314 -14.516  18.779  0.00  0.00    +0.027 C 
ATOM      7  C   UNL     1      -8.653 -12.533  20.073  0.00  0.00    +0.054 C 
ATOM      8  C   UNL     1      -8.921 -14.033  20.169  0.00  0.00    +0.018 C 
ATOM      9  C   UNL     1     -10.577 -13.786  18.292  0.00  0.00    +0.113 C 
ATOM     10  C   UNL     1      -9.940 -11.805  19.637  0.00  0.00    +0.117 C 
ATOM     11  C   UNL     1      -8.128 -14.311  17.829  0.00  0.00    +0.130 C 
ATOM     12  C   UNL     1      -7.538 -12.237  19.089  0.00  0.00    +0.027 A 
ATOM     14  C   UNL     1     -10.864 -11.549  17.280  0.00  0.00    +0.219 C 
ATOM     17  C   UNL     1      -6.742 -11.171  19.266  0.00  0.00    +0.022 A 
ATOM     20  C   UNL     1      -6.370 -12.814  17.009  0.00  0.00    +0.259 A 
ATOM     22  C   UNL     1      -5.519 -11.591  17.216  0.00  0.00    +0.047 A 
ATOM     23  C   UNL     1      -5.723 -10.843  18.310  0.00  0.00    +0.015 A 
ENDROOT
BRANCH  14  13
ATOM     13  C   UNL     1     -10.780 -10.064  17.455  0.00  0.00    +0.075 C 
ATOM     15  C   UNL     1      -9.405  -9.564  17.006  0.00  0.00    +0.013 C 
ATOM     16  C   UNL     1     -11.904  -9.398  16.659  0.00  0.00    +0.013 C 
ATOM     18  C   UNL     1      -9.314  -8.042  17.071  0.00  0.00    +0.001 C 
ATOM     19  C   UNL     1     -11.810  -7.877  16.720  0.00  0.00    +0.001 C 
ATOM     21  C   UNL     1     -10.437  -7.379  16.277  0.00  0.00    +0.000 C 
ENDBRANCH  14  13
BRANCH  22  24
ATOM     24  C   UNL     1      -4.484 -11.206  16.239  0.00  0.00    -0.012 A 
ATOM     25  C   UNL     1      -3.164 -11.030  16.655  0.00  0.00    +0.012 A 
ATOM     26  C   UNL     1      -4.825 -11.019  14.900  0.00  0.00    +0.012 A 
ATOM     27  C   UNL     1      -2.185 -10.664  15.730  0.00  0.00    +0.046 A 
ATOM     28  C   UNL     1      -3.846 -10.653  13.976  0.00  0.00    +0.046 A 
ATOM     29  C   UNL     1      -2.525 -10.476  14.392  0.00  0.00    +0.120 A 
BRANCH  29   3
ATOM      3  O   UNL     1      -1.571 -10.119  13.490  0.00  0.00    -0.495 OA
ATOM     30  C   UNL     1      -1.876 -10.311  12.110  0.00  0.00    +0.277 C 
ENDBRANCH  29   3
ENDBRANCH  22  24
TORSDOF 3
ENDMDL
MODEL 7
REMARK VINA RESULT:      -6.6     31.122     32.975
REMARK  Name = 40586261
REMARK  4 active torsions:
REMARK  status: ('A' for Active; 'I' for Inactive)
REMARK    1  A    between atoms: O_3  and  C_29
REMARK    2  A    between atoms: O_3  and  C_30
REMARK    3  A    between atoms: C_13  and  C_14
REMARK    4  A    between atoms: C_22  and  C_24
REMARK                            x       y       z     vdW  Elec       q    Type
REMARK                         _______ _______ _______ _____ _____    ______ ____
ROOT
ATOM      1  O   UNL     1     -16.664  -5.765  10.405  0.00  0.00    -0.275 OA
ATOM      2  O   UNL     1     -11.646  -7.582  10.032  0.00  0.00    -0.267 OA
ATOM      4  N   UNL     1     -15.225  -4.479  11.699  0.00  0.00    -0.300 N 
ATOM      5  N   UNL     1     -12.304  -5.657  11.173  0.00  0.00    -0.311 N 
ATOM      6  C   UNL     1     -13.755  -5.733  13.281  0.00  0.00    +0.027 C 
ATOM      7  C   UNL     1     -13.014  -3.566  12.385  0.00  0.00    +0.054 C 
ATOM      8  C   UNL     1     -13.052  -4.430  13.643  0.00  0.00    +0.018 C 
ATOM      9  C   UNL     1     -15.186  -5.455  12.790  0.00  0.00    +0.113 C 
ATOM     10  C   UNL     1     -14.453  -3.249  11.932  0.00  0.00    +0.117 C 
ATOM     11  C   UNL     1     -12.918  -6.472  12.230  0.00  0.00    +0.130 C 
ATOM     12  C   UNL     1     -12.266  -4.263  11.265  0.00  0.00    +0.027 A 
ATOM     14  C   UNL     1     -16.024  -4.726  10.583  0.00  0.00    +0.219 C 
ATOM     17  C   UNL     1     -11.594  -3.547  10.349  0.00  0.00    +0.022 A 
ATOM     20  C   UNL     1     -11.664  -6.354  10.129  0.00  0.00    +0.259 A 
ATOM     22  C   UNL     1     -10.951  -5.521   9.098  0.00  0.00    +0.047 A 
ATOM     23  C   UNL     1     -10.933  -4.188   9.249  0.00  0.00    +0.015 A 
ENDROOT
BRANCH  14  13
ATOM     13  C   UNL     1     -16.084  -3.644   9.549  0.00  0.00    +0.075 C 
ATOM     15  C   UNL     1     -14.902  -3.780   8.586  0.00  0.00    +0.013 C 
ATOM     16  C   UNL     1     -17.421  -3.726   8.809  0.00  0.00    +0.013 C 
ATOM     18  C   UNL     1     -14.982  -2.758   7.454  0.00  0.00    +0.001 C 
ATOM     19  C   UNL     1     -17.497  -2.708   7.675  0.00  0.00    +0.001 C 
ATOM     21  C   UNL     1     -16.317  -2.841   6.717  0.00  0.00    +0.000 C 
ENDBRANCH  14  13
BRANCH  22  24
ATOM     24  C   UNL     1     -10.289  -6.143   7.938  0.00  0.00    -0.012 A 
ATOM     25  C   UNL     1     -11.044  -6.541   6.834  0.00  0.00    +0.012 A 
ATOM     26  C   UNL     1      -8.908  -6.334   7.943  0.00  0.00    +0.012 A 
ATOM     27  C   UNL     1     -10.417  -7.130   5.737  0.00  0.00    +0.046 A 
ATOM     28  C   UNL     1      -8.281  -6.925   6.846  0.00  0.00    +0.046 A 
ATOM     29  C   UNL     1      -9.037  -7.322   5.742  0.00  0.00    +0.120 A 
BRANCH  29   3
ATOM      3  O   UNL     1      -8.425  -7.899   4.672  0.00  0.00    -0.495 OA
ATOM     30  C   UNL     1      -7.146  -8.491   4.894  0.00  0.00    +0.277 C 
ENDBRANCH  29   3
ENDBRANCH  22  24
TORSDOF 3
ENDMDL
MODEL 8
REMARK VINA RESULT:      -6.6     22.119     24.906
REMARK  Name = 40586261
REMARK  4 active torsions:
REMARK  status: ('A' for Active; 'I' for Inactive)
REMARK    1  A    between atoms: O_3  and  C_29
REMARK    2  A    between atoms: O_3  and  C_30
REMARK    3  A    between atoms: C_13  and  C_14
REMARK    4  A    between atoms: C_22  and  C_24
REMARK                            x       y       z     vdW  Elec       q    Type
REMARK                         _______ _______ _______ _____ _____    ______ ____
ROOT
ATOM      1  O   UNL     1       6.881 -10.704  36.391  0.00  0.00    -0.275 OA
ATOM      2  O   UNL     1       9.342 -11.523  31.712  0.00  0.00    -0.267 OA
ATOM      4  N   UNL     1       7.095  -8.712  35.214  0.00  0.00    -0.300 N 
ATOM      5  N   UNL     1       8.429  -9.497  32.421  0.00  0.00    -0.311 N 
ATOM      6  C   UNL     1       9.388  -8.167  34.388  0.00  0.00    +0.027 C 
ATOM      7  C   UNL     1       7.422  -7.317  33.180  0.00  0.00    +0.054 C 
ATOM      8  C   UNL     1       8.825  -6.953  33.660  0.00  0.00    +0.018 C 
ATOM      9  C   UNL     1       8.500  -8.536  35.588  0.00  0.00    +0.113 C 
ATOM     10  C   UNL     1       6.526  -7.632  34.394  0.00  0.00    +0.117 C 
ATOM     11  C   UNL     1       9.519  -9.325  33.391  0.00  0.00    +0.130 C 
ATOM     12  C   UNL     1       7.456  -8.510  32.244  0.00  0.00    +0.027 A 
ATOM     14  C   UNL     1       6.385  -9.808  35.705  0.00  0.00    +0.219 C 
ATOM     17  C   UNL     1       6.541  -8.634  31.270  0.00  0.00    +0.022 A 
ATOM     20  C   UNL     1       8.480 -10.648  31.610  0.00  0.00    +0.259 A 
ATOM     22  C   UNL     1       7.419 -10.775  30.550  0.00  0.00    +0.047 A 
ATOM     23  C   UNL     1       6.523  -9.787  30.416  0.00  0.00    +0.015 A 
ENDROOT
BRANCH  14  13
ATOM     13  C   UNL     1       4.930  -9.875  35.353  0.00  0.00    +0.075 C 
ATOM     15  C   UNL     1       4.550 -11.311  34.986  0.00  0.00    +0.013 C 
ATOM     16  C   UNL     1       4.101  -9.360  36.531  0.00  0.00    +0.013 C 
ATOM     18  C   UNL     1       3.053 -11.443  34.721  0.00  0.00    +0.001 C 
ATOM     19  C   UNL     1       2.605  -9.497  36.266  0.00  0.00    +0.001 C 
ATOM     21  C   UNL     1       2.227 -10.929  35.897  0.00  0.00    +0.000 C 
ENDBRANCH  14  13
BRANCH  22  24
ATOM     24  C   UNL     1       7.350 -11.961  29.677  0.00  0.00    -0.012 A 
ATOM     25  C   UNL     1       8.232 -12.088  28.603  0.00  0.00    +0.012 A 
ATOM     26  C   UNL     1       6.404 -12.955  29.924  0.00  0.00    +0.012 A 
ATOM     27  C   UNL     1       8.166 -13.209  27.776  0.00  0.00    +0.046 A 
ATOM     28  C   UNL     1       6.338 -14.076  29.096  0.00  0.00    +0.046 A 
ATOM     29  C   UNL     1       7.220 -14.203  28.022  0.00  0.00    +0.120 A 
BRANCH  29   3
ATOM      3  O   UNL     1       7.154 -15.296  27.215  0.00  0.00    -0.495 OA
ATOM     30  C   UNL     1       5.998 -15.427  26.390  0.00  0.00    +0.277 C 
ENDBRANCH  29   3
ENDBRANCH  22  24
TORSDOF 3
ENDMDL
MODEL 9
REMARK VINA RESULT:      -6.5     21.150     24.198
REMARK  Name = 40586261
REMARK  4 active torsions:
REMARK  status: ('A' for Active; 'I' for Inactive)
REMARK    1  A    between atoms: O_3  and  C_29
REMARK    2  A    between atoms: O_3  and  C_30
REMARK    3  A    between atoms: C_13  and  C_14
REMARK    4  A    between atoms: C_22  and  C_24
REMARK                            x       y       z     vdW  Elec       q    Type
REMARK                         _______ _______ _______ _____ _____    ______ ____
ROOT
ATOM      1  O   UNL     1       8.852  -7.702  37.777  0.00  0.00    -0.275 OA
ATOM      2  O   UNL     1       9.419  -9.415  32.740  0.00  0.00    -0.267 OA
ATOM      4  N   UNL     1       8.452  -5.977  36.271  0.00  0.00    -0.300 N 
ATOM      5  N   UNL     1       8.689  -7.291  33.370  0.00  0.00    -0.311 N 
ATOM      6  C   UNL     1      10.214  -5.601  34.542  0.00  0.00    +0.027 C 
ATOM      7  C   UNL     1       7.879  -5.006  34.054  0.00  0.00    +0.054 C 
ATOM      8  C   UNL     1       9.327  -4.553  33.882  0.00  0.00    +0.018 C 
ATOM      9  C   UNL     1       9.876  -5.730  36.037  0.00  0.00    +0.113 C 
ATOM     10  C   UNL     1       7.535  -5.079  35.554  0.00  0.00    +0.117 C 
ATOM     11  C   UNL     1      10.048  -6.931  33.797  0.00  0.00    +0.130 C 
ATOM     12  C   UNL     1       7.649  -6.359  33.408  0.00  0.00    +0.027 A 
ATOM     14  C   UNL     1       8.066  -6.958  37.186  0.00  0.00    +0.219 C 
ATOM     17  C   UNL     1       6.446  -6.672  32.900  0.00  0.00    +0.022 A 
ATOM     20  C   UNL     1       8.518  -8.578  32.823  0.00  0.00    +0.259 A 
ATOM     22  C   UNL     1       7.149  -8.911  32.295  0.00  0.00    +0.047 A 
ATOM     23  C   UNL     1       6.195  -7.970  32.342  0.00  0.00    +0.015 A 
ENDROOT
BRANCH  14  13
ATOM     13  C   UNL     1       6.596  -7.095  37.439  0.00  0.00    +0.075 C 
ATOM     15  C   UNL     1       6.047  -8.302  36.676  0.00  0.00    +0.013 C 
ATOM     16  C   UNL     1       6.354  -7.227  38.944  0.00  0.00    +0.013 C 
ATOM     18  C   UNL     1       4.572  -8.539  36.989  0.00  0.00    +0.001 C 
ATOM     19  C   UNL     1       4.880  -7.469  39.256  0.00  0.00    +0.001 C 
ATOM     21  C   UNL     1       4.332  -8.671  38.491  0.00  0.00    +0.000 C 
ENDBRANCH  14  13
BRANCH  22  24
ATOM     24  C   UNL     1       6.847 -10.245  31.744  0.00  0.00    -0.012 A 
ATOM     25  C   UNL     1       7.001 -10.486  30.378  0.00  0.00    +0.012 A 
ATOM     26  C   UNL     1       6.406 -11.264  32.587  0.00  0.00    +0.012 A 
ATOM     27  C   UNL     1       6.714 -11.747  29.857  0.00  0.00    +0.046 A 
ATOM     28  C   UNL     1       6.118 -12.525  32.065  0.00  0.00    +0.046 A 
ATOM     29  C   UNL     1       6.273 -12.766  30.699  0.00  0.00    +0.120 A 
BRANCH  29   3
ATOM      3  O   UNL     1       5.991 -13.997  30.191  0.00  0.00    -0.495 OA
ATOM     30  C   UNL     1       4.729 -14.162  29.548  0.00  0.00    +0.277 C 
ENDBRANCH  29   3
ENDBRANCH  22  24
TORSDOF 3
ENDMDL
MODEL 10
REMARK VINA RESULT:      -6.3     27.751     30.008
REMARK  Name = 40586261
REMARK  4 active torsions:
REMARK  status: ('A' for Active; 'I' for Inactive)
REMARK    1  A    between atoms: O_3  and  C_29
REMARK    2  A    between atoms: O_3  and  C_30
REMARK    3  A    between atoms: C_13  and  C_14
REMARK    4  A    between atoms: C_22  and  C_24
REMARK                            x       y       z     vdW  Elec       q    Type
REMARK                         _______ _______ _______ _____ _____    ______ ____
ROOT
ATOM      1  O   UNL     1      -6.618 -13.038   9.869  0.00  0.00    -0.275 OA
ATOM      2  O   UNL     1      -6.930  -9.909  14.198  0.00  0.00    -0.267 OA
ATOM      4  N   UNL     1      -4.798 -11.596   9.975  0.00  0.00    -0.300 N 
ATOM      5  N   UNL     1      -5.137  -9.976  12.706  0.00  0.00    -0.311 N 
ATOM      6  C   UNL     1      -5.333  -9.176  10.281  0.00  0.00    +0.027 C 
ATOM      7  C   UNL     1      -3.194 -10.067  11.106  0.00  0.00    +0.054 C 
ATOM      8  C   UNL     1      -3.844  -8.875  10.408  0.00  0.00    +0.018 C 
ATOM      9  C   UNL     1      -5.556 -10.455   9.457  0.00  0.00    +0.113 C 
ATOM     10  C   UNL     1      -3.377 -11.332  10.245  0.00  0.00    +0.117 C 
ATOM     11  C   UNL     1      -5.937  -9.283  11.687  0.00  0.00    +0.130 C 
ATOM     12  C   UNL     1      -3.795 -10.290  12.481  0.00  0.00    +0.027 A 
ATOM     14  C   UNL     1      -5.423 -12.837  10.100  0.00  0.00    +0.219 C 
ATOM     17  C   UNL     1      -3.051 -10.813  13.469  0.00  0.00    +0.022 A 
ATOM     20  C   UNL     1      -5.759 -10.204  13.950  0.00  0.00    +0.259 A 
ATOM     22  C   UNL     1      -4.909 -10.824  15.026  0.00  0.00    +0.047 A 
ATOM     23  C   UNL     1      -3.621 -11.087  14.757  0.00  0.00    +0.015 A 
ENDROOT
BRANCH  14  13
ATOM     13  C   UNL     1      -4.564 -13.977  10.553  0.00  0.00    +0.075 C 
ATOM     15  C   UNL     1      -4.611 -14.091  12.078  0.00  0.00    +0.013 C 
ATOM     16  C   UNL     1      -5.040 -15.266   9.880  0.00  0.00    +0.013 C 
ATOM     18  C   UNL     1      -3.830 -15.306  12.573  0.00  0.00    +0.001 C 
ATOM     19  C   UNL     1      -4.262 -16.480  10.380  0.00  0.00    +0.001 C 
ATOM     21  C   UNL     1      -4.306 -16.591  11.901  0.00  0.00    +0.000 C 
ENDBRANCH  14  13
BRANCH  22  24
ATOM     24  C   UNL     1      -5.470 -11.149  16.349  0.00  0.00    -0.012 A 
ATOM     25  C   UNL     1      -5.241 -10.298  17.431  0.00  0.00    +0.012 A 
ATOM     26  C   UNL     1      -6.228 -12.307  16.520  0.00  0.00    +0.012 A 
ATOM     27  C   UNL     1      -5.771 -10.607  18.685  0.00  0.00    +0.046 A 
ATOM     28  C   UNL     1      -6.757 -12.616  17.774  0.00  0.00    +0.046 A 
ATOM     29  C   UNL     1      -6.528 -11.765  18.856  0.00  0.00    +0.120 A 
BRANCH  29   3
ATOM      3  O   UNL     1      -7.045 -12.067  20.078  0.00  0.00    -0.495 OA
ATOM     30  C   UNL     1      -8.207 -12.893  20.108  0.00  0.00    +0.277 C 
ENDBRANCH  29   3
ENDBRANCH  22  24
TORSDOF 3
ENDMDL
