MODEL 1
REMARK VINA RESULT:      -7.4      0.000      0.000
REMARK  Name = 25389028
REMARK  8 active torsions:
REMARK  status: ('A' for Active; 'I' for Inactive)
REMARK    1  A    between atoms: O_3  and  C_32
REMARK    2  A    between atoms: O_3  and  C_33
REMARK    3  A    between atoms: N_5  and  C_19
REMARK    4  A    between atoms: N_6  and  C_16
REMARK    5  A    between atoms: C_9  and  C_15
REMARK    6  A    between atoms: C_10  and  C_16
REMARK    7  A    between atoms: C_18  and  C_21
REMARK    8  A    between atoms: C_20  and  C_22
REMARK                            x       y       z     vdW  Elec       q    Type
REMARK                         _______ _______ _______ _____ _____    ______ ____
ROOT
ATOM      4  N   UNL     1      11.860  11.616  25.214  0.00  0.00    -0.297 NA
ATOM      8  C   UNL     1      11.313  12.805  22.963  0.00  0.00    +0.002 C 
ATOM      9  C   UNL     1      11.048  11.278  22.850  0.00  0.00    +0.055 C 
ATOM     10  C   UNL     1      12.994  12.489  24.811  0.00  0.00    +0.074 C 
ATOM     11  C   UNL     1      12.778  13.039  23.386  0.00  0.00    +0.024 C 
ATOM     12  C   UNL     1      10.421  13.327  24.110  0.00  0.00    +0.019 C 
ATOM     13  C   UNL     1      11.585  10.617  24.151  0.00  0.00    +0.094 C 
ATOM     14  C   UNL     1      10.659  12.472  25.366  0.00  0.00    +0.085 C 
ENDROOT
BRANCH   9  15
ATOM      5  N   UNL     1      11.246   9.247  21.340  0.00  0.00    -0.270 N 
ATOM      7  N   UNL     1      11.759   8.799  20.183  0.00  0.00    -0.171 NA
ATOM     15  C   UNL     1      11.526  10.557  21.597  0.00  0.00    +0.044 A 
ATOM     17  C   UNL     1      12.275  10.996  20.533  0.00  0.00    +0.053 A 
ATOM     18  C   UNL     1      12.386   9.871  19.693  0.00  0.00    +0.093 A 
ATOM     19  C   UNL     1      10.483   8.344  22.171  0.00  0.00    +0.172 C 
BRANCH  18  21
ATOM      1  F   UNL     1      15.077   9.605  14.825  0.00  0.00    -0.205 F 
ATOM     21  C   UNL     1      13.082   9.802  18.435  0.00  0.00    +0.002 A 
ATOM     23  C   UNL     1      13.068   8.621  17.693  0.00  0.00    +0.013 A 
ATOM     24  C   UNL     1      13.772  10.917  17.956  0.00  0.00    +0.013 A 
ATOM     27  C   UNL     1      13.741   8.555  16.474  0.00  0.00    +0.039 A 
ATOM     28  C   UNL     1      14.445  10.850  16.737  0.00  0.00    +0.039 A 
ATOM     29  C   UNL     1      14.430   9.670  15.996  0.00  0.00    +0.123 A 
ENDBRANCH  18  21
ENDBRANCH   9  15
BRANCH  10  16
ATOM     16  C   UNL     1      14.348  11.790  24.954  0.00  0.00    +0.123 C 
BRANCH  16   6
ATOM      2  O   UNL     1      16.120  11.758  22.695  0.00  0.00    -0.270 OA
ATOM      6  N   UNL     1      14.484  10.742  23.991  0.00  0.00    -0.310 N 
ATOM     20  C   UNL     1      15.374  10.808  22.919  0.00  0.00    +0.244 C 
ATOM     34  H   UNL     1      13.853   9.954  24.081  0.00  0.00    +0.149 HD
BRANCH  20  22
ATOM     22  C   UNL     1      15.377   9.649  21.991  0.00  0.00    +0.037 A 
ATOM     25  C   UNL     1      16.071   9.723  20.784  0.00  0.00    +0.016 A 
ATOM     26  C   UNL     1      14.684   8.485  22.326  0.00  0.00    +0.016 A 
ATOM     30  C   UNL     1      16.072   8.635  19.911  0.00  0.00    +0.046 A 
ATOM     31  C   UNL     1      14.685   7.397  21.455  0.00  0.00    +0.046 A 
ATOM     32  C   UNL     1      15.379   7.471  20.247  0.00  0.00    +0.120 A 
BRANCH  32   3
ATOM      3  O   UNL     1      15.380   6.409  19.396  0.00  0.00    -0.495 OA
ATOM     33  C   UNL     1      16.650   5.943  18.940  0.00  0.00    +0.277 C 
ENDBRANCH  32   3
ENDBRANCH  20  22
ENDBRANCH  16   6
ENDBRANCH  10  16
TORSDOF 6
ENDMDL
MODEL 2
REMARK VINA RESULT:      -6.8     26.744     29.433
REMARK  Name = 25389028
REMARK  8 active torsions:
REMARK  status: ('A' for Active; 'I' for Inactive)
REMARK    1  A    between atoms: O_3  and  C_32
REMARK    2  A    between atoms: O_3  and  C_33
REMARK    3  A    between atoms: N_5  and  C_19
REMARK    4  A    between atoms: N_6  and  C_16
REMARK    5  A    between atoms: C_9  and  C_15
REMARK    6  A    between atoms: C_10  and  C_16
REMARK    7  A    between atoms: C_18  and  C_21
REMARK    8  A    between atoms: C_20  and  C_22
REMARK                            x       y       z     vdW  Elec       q    Type
REMARK                         _______ _______ _______ _____ _____    ______ ____
ROOT
ATOM      4  N   UNL     1      -5.326 -10.524  18.237  0.00  0.00    -0.297 NA
ATOM      8  C   UNL     1      -4.980 -12.534  16.617  0.00  0.00    +0.002 C 
ATOM      9  C   UNL     1      -3.906 -11.441  16.365  0.00  0.00    +0.055 C 
ATOM     10  C   UNL     1      -6.610 -10.867  17.571  0.00  0.00    +0.074 C 
ATOM     11  C   UNL     1      -6.385 -11.914  16.460  0.00  0.00    +0.024 C 
ATOM     12  C   UNL     1      -4.838 -12.966  18.093  0.00  0.00    +0.019 C 
ATOM     13  C   UNL     1      -4.296 -10.201  17.219  0.00  0.00    +0.094 C 
ATOM     14  C   UNL     1      -4.872 -11.718  18.991  0.00  0.00    +0.085 C 
ENDROOT
BRANCH   9  15
ATOM      5  N   UNL     1      -2.355 -10.623  14.528  0.00  0.00    -0.270 N 
ATOM      7  N   UNL     1      -2.275 -10.349  13.216  0.00  0.00    -0.171 NA
ATOM     15  C   UNL     1      -3.582 -11.071  14.924  0.00  0.00    +0.044 A 
ATOM     17  C   UNL     1      -4.357 -11.092  13.790  0.00  0.00    +0.053 A 
ATOM     18  C   UNL     1      -3.500 -10.639  12.769  0.00  0.00    +0.093 A 
ATOM     19  C   UNL     1      -1.194 -10.424  15.364  0.00  0.00    +0.172 C 
BRANCH  18  21
ATOM      1  F   UNL     1      -4.778 -10.004   7.387  0.00  0.00    -0.205 F 
ATOM     21  C   UNL     1      -3.830 -10.474  11.378  0.00  0.00    +0.002 A 
ATOM     23  C   UNL     1      -3.531  -9.278  10.726  0.00  0.00    +0.013 A 
ATOM     24  C   UNL     1      -4.450 -11.512  10.681  0.00  0.00    +0.013 A 
ATOM     27  C   UNL     1      -3.851  -9.119   9.378  0.00  0.00    +0.039 A 
ATOM     28  C   UNL     1      -4.769 -11.353   9.333  0.00  0.00    +0.039 A 
ATOM     29  C   UNL     1      -4.471 -10.157   8.682  0.00  0.00    +0.123 A 
ENDBRANCH  18  21
ENDBRANCH   9  15
BRANCH  10  16
ATOM     16  C   UNL     1      -7.345  -9.630  17.050  0.00  0.00    +0.123 C 
BRANCH  16   6
ATOM      2  O   UNL     1      -9.688  -9.749  15.394  0.00  0.00    -0.270 OA
ATOM      6  N   UNL     1      -7.381  -9.624  15.620  0.00  0.00    -0.310 N 
ATOM     20  C   UNL     1      -8.569  -9.685  14.892  0.00  0.00    +0.244 C 
ATOM     34  H   UNL     1      -6.488  -9.635  15.141  0.00  0.00    +0.149 HD
BRANCH  20  22
ATOM     22  C   UNL     1      -8.436  -9.696  13.413  0.00  0.00    +0.037 A 
ATOM     25  C   UNL     1      -7.257  -9.255  12.814  0.00  0.00    +0.016 A 
ATOM     26  C   UNL     1      -9.492 -10.147  12.621  0.00  0.00    +0.016 A 
ATOM     30  C   UNL     1      -7.133  -9.263  11.424  0.00  0.00    +0.046 A 
ATOM     31  C   UNL     1      -9.370 -10.157  11.233  0.00  0.00    +0.046 A 
ATOM     32  C   UNL     1      -8.190  -9.715  10.634  0.00  0.00    +0.120 A 
BRANCH  32   3
ATOM      3  O   UNL     1      -8.070  -9.724   9.278  0.00  0.00    -0.495 OA
ATOM     33  C   UNL     1      -7.773  -8.481   8.644  0.00  0.00    +0.277 C 
ENDBRANCH  32   3
ENDBRANCH  20  22
ENDBRANCH  16   6
ENDBRANCH  10  16
TORSDOF 6
ENDMDL
MODEL 3
REMARK VINA RESULT:      -6.7     26.720     29.269
REMARK  Name = 25389028
REMARK  8 active torsions:
REMARK  status: ('A' for Active; 'I' for Inactive)
REMARK    1  A    between atoms: O_3  and  C_32
REMARK    2  A    between atoms: O_3  and  C_33
REMARK    3  A    between atoms: N_5  and  C_19
REMARK    4  A    between atoms: N_6  and  C_16
REMARK    5  A    between atoms: C_9  and  C_15
REMARK    6  A    between atoms: C_10  and  C_16
REMARK    7  A    between atoms: C_18  and  C_21
REMARK    8  A    between atoms: C_20  and  C_22
REMARK                            x       y       z     vdW  Elec       q    Type
REMARK                         _______ _______ _______ _____ _____    ______ ____
ROOT
ATOM      4  N   UNL     1      -6.841 -12.890  18.263  0.00  0.00    -0.297 NA
ATOM      8  C   UNL     1      -6.711 -10.312  17.920  0.00  0.00    +0.002 C 
ATOM      9  C   UNL     1      -7.709 -10.946  16.911  0.00  0.00    +0.055 C 
ATOM     10  C   UNL     1      -5.420 -12.462  18.163  0.00  0.00    +0.074 C 
ATOM     11  C   UNL     1      -5.328 -10.977  17.755  0.00  0.00    +0.024 C 
ATOM     12  C   UNL     1      -7.220 -10.670  19.333  0.00  0.00    +0.019 C 
ATOM     13  C   UNL     1      -7.580 -12.491  17.040  0.00  0.00    +0.094 C 
ATOM     14  C   UNL     1      -7.447 -12.188  19.420  0.00  0.00    +0.085 C 
ENDROOT
BRANCH   9  15
ATOM      5  N   UNL     1      -8.706  -9.867  14.841  0.00  0.00    -0.270 N 
ATOM      7  N   UNL     1      -8.460  -9.536  13.562  0.00  0.00    -0.171 NA
ATOM     15  C   UNL     1      -7.658 -10.481  15.462  0.00  0.00    +0.044 A 
ATOM     17  C   UNL     1      -6.658 -10.558  14.524  0.00  0.00    +0.053 A 
ATOM     18  C   UNL     1      -7.208  -9.960  13.374  0.00  0.00    +0.093 A 
ATOM     19  C   UNL     1      -9.995  -9.560  15.415  0.00  0.00    +0.172 C 
BRANCH  18  21
ATOM      1  F   UNL     1      -4.703  -9.295   8.445  0.00  0.00    -0.205 F 
ATOM     21  C   UNL     1      -6.560  -9.788  12.100  0.00  0.00    +0.002 A 
ATOM     23  C   UNL     1      -6.742 -10.734  11.091  0.00  0.00    +0.013 A 
ATOM     24  C   UNL     1      -5.750  -8.675  11.873  0.00  0.00    +0.013 A 
ATOM     27  C   UNL     1      -6.115 -10.568   9.857  0.00  0.00    +0.039 A 
ATOM     28  C   UNL     1      -5.123  -8.509  10.639  0.00  0.00    +0.039 A 
ATOM     29  C   UNL     1      -5.305  -9.455   9.631  0.00  0.00    +0.123 A 
ENDBRANCH  18  21
ENDBRANCH   9  15
BRANCH  10  16
ATOM     16  C   UNL     1      -4.604 -13.361  17.233  0.00  0.00    +0.123 C 
BRANCH  16   6
ATOM      2  O   UNL     1      -4.585 -14.156  14.473  0.00  0.00    -0.270 OA
ATOM      6  N   UNL     1      -4.078 -12.614  16.132  0.00  0.00    -0.310 N 
ATOM     20  C   UNL     1      -4.110 -13.077  14.818  0.00  0.00    +0.244 C 
ATOM     34  H   UNL     1      -3.615 -11.740  16.355  0.00  0.00    +0.149 HD
BRANCH  20  22
ATOM     22  C   UNL     1      -3.498 -12.194  13.793  0.00  0.00    +0.037 A 
ATOM     25  C   UNL     1      -3.622 -12.505  12.439  0.00  0.00    +0.016 A 
ATOM     26  C   UNL     1      -2.797 -11.053  14.183  0.00  0.00    +0.016 A 
ATOM     30  C   UNL     1      -3.045 -11.677  11.476  0.00  0.00    +0.046 A 
ATOM     31  C   UNL     1      -2.220 -10.225  13.222  0.00  0.00    +0.046 A 
ATOM     32  C   UNL     1      -2.344 -10.536  11.868  0.00  0.00    +0.120 A 
BRANCH  32   3
ATOM      3  O   UNL     1      -1.782  -9.728  10.929  0.00  0.00    -0.495 OA
ATOM     33  C   UNL     1      -0.632  -8.978  11.321  0.00  0.00    +0.277 C 
ENDBRANCH  32   3
ENDBRANCH  20  22
ENDBRANCH  16   6
ENDBRANCH  10  16
TORSDOF 6
ENDMDL
MODEL 4
REMARK VINA RESULT:      -6.6     14.683     18.682
REMARK  Name = 25389028
REMARK  8 active torsions:
REMARK  status: ('A' for Active; 'I' for Inactive)
REMARK    1  A    between atoms: O_3  and  C_32
REMARK    2  A    between atoms: O_3  and  C_33
REMARK    3  A    between atoms: N_5  and  C_19
REMARK    4  A    between atoms: N_6  and  C_16
REMARK    5  A    between atoms: C_9  and  C_15
REMARK    6  A    between atoms: C_10  and  C_16
REMARK    7  A    between atoms: C_18  and  C_21
REMARK    8  A    between atoms: C_20  and  C_22
REMARK                            x       y       z     vdW  Elec       q    Type
REMARK                         _______ _______ _______ _____ _____    ______ ____
ROOT
ATOM      4  N   UNL     1      12.995   5.721  -0.025  0.00  0.00    -0.297 NA
ATOM      8  C   UNL     1      11.170   4.092   0.870  0.00  0.00    +0.002 C 
ATOM      9  C   UNL     1      10.795   5.563   1.199  0.00  0.00    +0.055 C 
ATOM     10  C   UNL     1      13.629   4.628   0.760  0.00  0.00    +0.074 C 
ATOM     11  C   UNL     1      12.557   3.774   1.468  0.00  0.00    +0.024 C 
ATOM     12  C   UNL     1      11.307   4.000  -0.665  0.00  0.00    +0.019 C 
ATOM     13  C   UNL     1      12.015   6.450   0.818  0.00  0.00    +0.094 C 
ATOM     14  C   UNL     1      12.262   5.102  -1.155  0.00  0.00    +0.085 C 
ENDROOT
BRANCH   9  15
ATOM      5  N   UNL     1       9.429   6.921   2.853  0.00  0.00    -0.270 N 
ATOM      7  N   UNL     1       9.078   7.027   4.145  0.00  0.00    -0.171 NA
ATOM     15  C   UNL     1      10.266   5.876   2.592  0.00  0.00    +0.044 A 
ATOM     17  C   UNL     1      10.478   5.255   3.798  0.00  0.00    +0.053 A 
ATOM     18  C   UNL     1       9.721   6.006   4.718  0.00  0.00    +0.093 A 
ATOM     19  C   UNL     1       8.916   7.879   1.901  0.00  0.00    +0.172 C 
BRANCH  18  21
ATOM      1  F   UNL     1       9.264   5.085  10.191  0.00  0.00    -0.205 F 
ATOM     21  C   UNL     1       9.603   5.768   6.133  0.00  0.00    +0.002 A 
ATOM     23  C   UNL     1       9.906   4.511   6.657  0.00  0.00    +0.013 A 
ATOM     24  C   UNL     1       9.184   6.794   6.981  0.00  0.00    +0.013 A 
ATOM     27  C   UNL     1       9.793   4.281   8.028  0.00  0.00    +0.039 A 
ATOM     28  C   UNL     1       9.071   6.563   8.351  0.00  0.00    +0.039 A 
ATOM     29  C   UNL     1       9.374   5.307   8.875  0.00  0.00    +0.123 A 
ENDBRANCH  18  21
ENDBRANCH   9  15
BRANCH  10  16
ATOM     16  C   UNL     1      14.682   5.150   1.740  0.00  0.00    +0.123 C 
BRANCH  16   6
ATOM      2  O   UNL     1      15.638   7.521   3.047  0.00  0.00    -0.270 OA
ATOM      6  N   UNL     1      14.065   5.827   2.838  0.00  0.00    -0.310 N 
ATOM     20  C   UNL     1      14.599   6.978   3.416  0.00  0.00    +0.244 C 
ATOM     34  H   UNL     1      13.237   5.396   3.233  0.00  0.00    +0.149 HD
BRANCH  20  22
ATOM     22  C   UNL     1      13.853   7.547   4.567  0.00  0.00    +0.037 A 
ATOM     25  C   UNL     1      12.686   8.279   4.350  0.00  0.00    +0.016 A 
ATOM     26  C   UNL     1      14.320   7.350   5.866  0.00  0.00    +0.016 A 
ATOM     30  C   UNL     1      11.987   8.815   5.431  0.00  0.00    +0.046 A 
ATOM     31  C   UNL     1      13.622   7.885   6.948  0.00  0.00    +0.046 A 
ATOM     32  C   UNL     1      12.455   8.617   6.731  0.00  0.00    +0.120 A 
BRANCH  32   3
ATOM      3  O   UNL     1      11.772   9.139   7.786  0.00  0.00    -0.495 OA
ATOM     33  C   UNL     1      10.904  10.240   7.518  0.00  0.00    +0.277 C 
ENDBRANCH  32   3
ENDBRANCH  20  22
ENDBRANCH  16   6
ENDBRANCH  10  16
TORSDOF 6
ENDMDL
MODEL 5
REMARK VINA RESULT:      -6.6     27.600     30.603
REMARK  Name = 25389028
REMARK  8 active torsions:
REMARK  status: ('A' for Active; 'I' for Inactive)
REMARK    1  A    between atoms: O_3  and  C_32
REMARK    2  A    between atoms: O_3  and  C_33
REMARK    3  A    between atoms: N_5  and  C_19
REMARK    4  A    between atoms: N_6  and  C_16
REMARK    5  A    between atoms: C_9  and  C_15
REMARK    6  A    between atoms: C_10  and  C_16
REMARK    7  A    between atoms: C_18  and  C_21
REMARK    8  A    between atoms: C_20  and  C_22
REMARK                            x       y       z     vdW  Elec       q    Type
REMARK                         _______ _______ _______ _____ _____    ______ ____
ROOT
ATOM      4  N   UNL     1     -18.283   4.535  23.592  0.00  0.00    -0.297 NA
ATOM      8  C   UNL     1     -17.743   1.989  23.694  0.00  0.00    +0.002 C 
ATOM      9  C   UNL     1     -18.362   2.469  25.036  0.00  0.00    +0.055 C 
ATOM     10  C   UNL     1     -16.888   4.293  23.138  0.00  0.00    +0.074 C 
ATOM     11  C   UNL     1     -16.482   2.825  23.386  0.00  0.00    +0.024 C 
ATOM     12  C   UNL     1     -18.776   2.305  22.591  0.00  0.00    +0.019 C 
ATOM     13  C   UNL     1     -18.466   4.019  24.971  0.00  0.00    +0.094 C 
ATOM     14  C   UNL     1     -19.190   3.782  22.692  0.00  0.00    +0.085 C 
ENDROOT
BRANCH   9  15
ATOM      5  N   UNL     1     -18.082   0.823  26.949  0.00  0.00    -0.270 N 
ATOM      7  N   UNL     1     -17.404   0.579  28.082  0.00  0.00    -0.171 NA
ATOM     15  C   UNL     1     -17.725   1.987  26.333  0.00  0.00    +0.044 A 
ATOM     17  C   UNL     1     -16.745   2.542  27.118  0.00  0.00    +0.053 A 
ATOM     18  C   UNL     1     -16.588   1.632  28.181  0.00  0.00    +0.093 A 
ATOM     19  C   UNL     1     -19.083  -0.120  26.507  0.00  0.00    +0.172 C 
BRANCH  18  21
ATOM      1  F   UNL     1     -13.057   2.090  32.463  0.00  0.00    -0.205 F 
ATOM     21  C   UNL     1     -15.675   1.750  29.288  0.00  0.00    +0.002 A 
ATOM     23  C   UNL     1     -15.506   0.684  30.171  0.00  0.00    +0.013 A 
ATOM     24  C   UNL     1     -14.959   2.932  29.478  0.00  0.00    +0.013 A 
ATOM     27  C   UNL     1     -14.622   0.798  31.243  0.00  0.00    +0.039 A 
ATOM     28  C   UNL     1     -14.075   3.047  30.550  0.00  0.00    +0.039 A 
ATOM     29  C   UNL     1     -13.906   1.980  31.432  0.00  0.00    +0.123 A 
ENDBRANCH  18  21
ENDBRANCH   9  15
BRANCH  10  16
ATOM     16  C   UNL     1     -15.893   5.273  23.764  0.00  0.00    +0.123 C 
BRANCH  16   6
ATOM      2  O   UNL     1     -13.287   4.703  22.702  0.00  0.00    -0.270 OA
ATOM      6  N   UNL     1     -15.202   6.013  22.754  0.00  0.00    -0.310 N 
ATOM     20  C   UNL     1     -13.933   5.665  22.295  0.00  0.00    +0.244 C 
ATOM     34  H   UNL     1     -15.653   6.857  22.418  0.00  0.00    +0.149 HD
BRANCH  20  22
ATOM     22  C   UNL     1     -13.339   6.551  21.262  0.00  0.00    +0.037 A 
ATOM     25  C   UNL     1     -11.957   6.578  21.075  0.00  0.00    +0.016 A 
ATOM     26  C   UNL     1     -14.163   7.360  20.479  0.00  0.00    +0.016 A 
ATOM     30  C   UNL     1     -11.399   7.412  20.106  0.00  0.00    +0.046 A 
ATOM     31  C   UNL     1     -13.607   8.194  19.510  0.00  0.00    +0.046 A 
ATOM     32  C   UNL     1     -12.225   8.220  19.323  0.00  0.00    +0.120 A 
BRANCH  32   3
ATOM      3  O   UNL     1     -11.681   9.033  18.377  0.00  0.00    -0.495 OA
ATOM     33  C   UNL     1     -10.567   8.524  17.645  0.00  0.00    +0.277 C 
ENDBRANCH  32   3
ENDBRANCH  20  22
ENDBRANCH  16   6
ENDBRANCH  10  16
TORSDOF 6
ENDMDL
MODEL 6
REMARK VINA RESULT:      -6.6     27.215     30.316
REMARK  Name = 25389028
REMARK  8 active torsions:
REMARK  status: ('A' for Active; 'I' for Inactive)
REMARK    1  A    between atoms: O_3  and  C_32
REMARK    2  A    between atoms: O_3  and  C_33
REMARK    3  A    between atoms: N_5  and  C_19
REMARK    4  A    between atoms: N_6  and  C_16
REMARK    5  A    between atoms: C_9  and  C_15
REMARK    6  A    between atoms: C_10  and  C_16
REMARK    7  A    between atoms: C_18  and  C_21
REMARK    8  A    between atoms: C_20  and  C_22
REMARK                            x       y       z     vdW  Elec       q    Type
REMARK                         _______ _______ _______ _____ _____    ______ ____
ROOT
ATOM      4  N   UNL     1      -5.681 -10.917   9.338  0.00  0.00    -0.297 NA
ATOM      8  C   UNL     1      -4.714  -8.930  10.715  0.00  0.00    +0.002 C 
ATOM      9  C   UNL     1      -4.078 -10.271  11.174  0.00  0.00    +0.055 C 
ATOM     10  C   UNL     1      -6.789 -10.078   9.866  0.00  0.00    +0.074 C 
ATOM     11  C   UNL     1      -6.249  -9.021  10.852  0.00  0.00    +0.024 C 
ATOM     12  C   UNL     1      -4.401  -8.781   9.211  0.00  0.00    +0.019 C 
ATOM     13  C   UNL     1      -4.844 -11.419  10.456  0.00  0.00    +0.094 C 
ATOM     14  C   UNL     1      -4.834 -10.059   8.474  0.00  0.00    +0.085 C 
ENDROOT
BRANCH   9  15
ATOM      5  N   UNL     1      -2.738 -10.434  13.324  0.00  0.00    -0.270 N 
ATOM      7  N   UNL     1      -2.820 -10.694  14.639  0.00  0.00    -0.171 NA
ATOM     15  C   UNL     1      -3.931 -10.523  12.669  0.00  0.00    +0.044 A 
ATOM     17  C   UNL     1      -4.858 -10.864  13.622  0.00  0.00    +0.053 A 
ATOM     18  C   UNL     1      -4.118 -10.955  14.817  0.00  0.00    +0.093 A 
ATOM     19  C   UNL     1      -1.455 -10.103  12.748  0.00  0.00    +0.172 C 
BRANCH  18  21
ATOM      1  F   UNL     1      -6.084 -12.249  19.863  0.00  0.00    -0.205 F 
ATOM     21  C   UNL     1      -4.626 -11.289  16.121  0.00  0.00    +0.002 A 
ATOM     23  C   UNL     1      -4.715 -10.308  17.109  0.00  0.00    +0.013 A 
ATOM     24  C   UNL     1      -5.030 -12.596  16.399  0.00  0.00    +0.013 A 
ATOM     27  C   UNL     1      -5.208 -10.632  18.372  0.00  0.00    +0.039 A 
ATOM     28  C   UNL     1      -5.523 -12.920  17.662  0.00  0.00    +0.039 A 
ATOM     29  C   UNL     1      -5.611 -11.938  18.649  0.00  0.00    +0.123 A 
ENDBRANCH  18  21
ENDBRANCH   9  15
BRANCH  10  16
ATOM     16  C   UNL     1      -7.910 -10.917  10.486  0.00  0.00    +0.123 C 
BRANCH  16   6
ATOM      2  O   UNL     1      -8.384 -12.866  12.540  0.00  0.00    -0.270 OA
ATOM      6  N   UNL     1      -8.015 -10.669  11.890  0.00  0.00    -0.310 N 
ATOM     20  C   UNL     1      -8.248 -11.679  12.823  0.00  0.00    +0.244 C 
ATOM     34  H   UNL     1      -7.974  -9.700  12.187  0.00  0.00    +0.149 HD
BRANCH  20  22
ATOM     22  C   UNL     1      -8.358 -11.255  14.241  0.00  0.00    +0.037 A 
ATOM     25  C   UNL     1      -8.115  -9.928  14.594  0.00  0.00    +0.016 A 
ATOM     26  C   UNL     1      -8.703 -12.184  15.223  0.00  0.00    +0.016 A 
ATOM     30  C   UNL     1      -8.216  -9.530  15.928  0.00  0.00    +0.046 A 
ATOM     31  C   UNL     1      -8.804 -11.788  16.555  0.00  0.00    +0.046 A 
ATOM     32  C   UNL     1      -8.562 -10.460  16.908  0.00  0.00    +0.120 A 
BRANCH  32   3
ATOM      3  O   UNL     1      -8.661 -10.072  18.209  0.00  0.00    -0.495 OA
ATOM     33  C   UNL     1      -9.196 -11.022  19.131  0.00  0.00    +0.277 C 
ENDBRANCH  32   3
ENDBRANCH  20  22
ENDBRANCH  16   6
ENDBRANCH  10  16
TORSDOF 6
ENDMDL
MODEL 7
REMARK VINA RESULT:      -6.5     27.314     30.198
REMARK  Name = 25389028
REMARK  8 active torsions:
REMARK  status: ('A' for Active; 'I' for Inactive)
REMARK    1  A    between atoms: O_3  and  C_32
REMARK    2  A    between atoms: O_3  and  C_33
REMARK    3  A    between atoms: N_5  and  C_19
REMARK    4  A    between atoms: N_6  and  C_16
REMARK    5  A    between atoms: C_9  and  C_15
REMARK    6  A    between atoms: C_10  and  C_16
REMARK    7  A    between atoms: C_18  and  C_21
REMARK    8  A    between atoms: C_20  and  C_22
REMARK                            x       y       z     vdW  Elec       q    Type
REMARK                         _______ _______ _______ _____ _____    ______ ____
ROOT
ATOM      4  N   UNL     1      -6.170 -10.378  17.812  0.00  0.00    -0.297 NA
ATOM      8  C   UNL     1      -4.481 -12.165  16.954  0.00  0.00    +0.002 C 
ATOM      9  C   UNL     1      -4.123 -10.762  16.390  0.00  0.00    +0.055 C 
ATOM     10  C   UNL     1      -6.904 -11.547  17.257  0.00  0.00    +0.074 C 
ATOM     11  C   UNL     1      -5.930 -12.519  16.560  0.00  0.00    +0.024 C 
ATOM     12  C   UNL     1      -4.446 -12.046  18.493  0.00  0.00    +0.019 C 
ATOM     13  C   UNL     1      -5.280  -9.798  16.776  0.00  0.00    +0.094 C 
ATOM     14  C   UNL     1      -5.324 -10.862  18.930  0.00  0.00    +0.085 C 
ENDROOT
BRANCH   9  15
ATOM      5  N   UNL     1      -2.457 -10.606  14.480  0.00  0.00    -0.270 N 
ATOM      7  N   UNL     1      -2.340 -10.510  13.146  0.00  0.00    -0.171 NA
ATOM     15  C   UNL     1      -3.749 -10.655  14.918  0.00  0.00    +0.044 A 
ATOM     17  C   UNL     1      -4.530 -10.587  13.790  0.00  0.00    +0.053 A 
ATOM     18  C   UNL     1      -3.609 -10.500  12.729  0.00  0.00    +0.093 A 
ATOM     19  C   UNL     1      -1.264 -10.642  15.294  0.00  0.00    +0.172 C 
BRANCH  18  21
ATOM      1  F   UNL     1      -4.807 -10.132   7.303  0.00  0.00    -0.205 F 
ATOM     21  C   UNL     1      -3.918 -10.405  11.326  0.00  0.00    +0.002 A 
ATOM     23  C   UNL     1      -3.842  -9.173  10.676  0.00  0.00    +0.013 A 
ATOM     24  C   UNL     1      -4.296 -11.545  10.616  0.00  0.00    +0.013 A 
ATOM     27  C   UNL     1      -4.141  -9.081   9.318  0.00  0.00    +0.039 A 
ATOM     28  C   UNL     1      -4.595 -11.453   9.257  0.00  0.00    +0.039 A 
ATOM     29  C   UNL     1      -4.519 -10.221   8.608  0.00  0.00    +0.123 A 
ENDBRANCH  18  21
ENDBRANCH   9  15
BRANCH  10  16
ATOM     16  C   UNL     1      -8.052 -11.129  16.336  0.00  0.00    +0.123 C 
BRANCH  16   6
ATOM      2  O   UNL     1      -9.107  -8.686  17.414  0.00  0.00    -0.270 OA
ATOM      6  N   UNL     1      -9.268 -10.976  17.073  0.00  0.00    -0.310 N 
ATOM     20  C   UNL     1      -9.708  -9.747  17.562  0.00  0.00    +0.244 C 
ATOM     34  H   UNL     1      -9.782 -11.824  17.284  0.00  0.00    +0.149 HD
BRANCH  20  22
ATOM     22  C   UNL     1     -10.978  -9.760  18.331  0.00  0.00    +0.037 A 
ATOM     25  C   UNL     1     -10.963 -10.027  19.700  0.00  0.00    +0.016 A 
ATOM     26  C   UNL     1     -12.188  -9.506  17.684  0.00  0.00    +0.016 A 
ATOM     30  C   UNL     1     -12.157 -10.041  20.422  0.00  0.00    +0.046 A 
ATOM     31  C   UNL     1     -13.381  -9.520  18.405  0.00  0.00    +0.046 A 
ATOM     32  C   UNL     1     -13.366  -9.787  19.774  0.00  0.00    +0.120 A 
BRANCH  32   3
ATOM      3  O   UNL     1     -14.531  -9.800  20.478  0.00  0.00    -0.495 OA
ATOM     33  C   UNL     1     -14.853 -11.000  21.179  0.00  0.00    +0.277 C 
ENDBRANCH  32   3
ENDBRANCH  20  22
ENDBRANCH  16   6
ENDBRANCH  10  16
TORSDOF 6
ENDMDL
MODEL 8
REMARK VINA RESULT:      -6.2     21.645     23.800
REMARK  Name = 25389028
REMARK  8 active torsions:
REMARK  status: ('A' for Active; 'I' for Inactive)
REMARK    1  A    between atoms: O_3  and  C_32
REMARK    2  A    between atoms: O_3  and  C_33
REMARK    3  A    between atoms: N_5  and  C_19
REMARK    4  A    between atoms: N_6  and  C_16
REMARK    5  A    between atoms: C_9  and  C_15
REMARK    6  A    between atoms: C_10  and  C_16
REMARK    7  A    between atoms: C_18  and  C_21
REMARK    8  A    between atoms: C_20  and  C_22
REMARK                            x       y       z     vdW  Elec       q    Type
REMARK                         _______ _______ _______ _____ _____    ______ ____
ROOT
ATOM      4  N   UNL     1       5.568  -3.608  38.609  0.00  0.00    -0.297 NA
ATOM      8  C   UNL     1       7.937  -4.687  38.677  0.00  0.00    +0.002 C 
ATOM      9  C   UNL     1       7.640  -4.116  37.263  0.00  0.00    +0.055 C 
ATOM     10  C   UNL     1       5.489  -4.971  39.197  0.00  0.00    +0.074 C 
ATOM     11  C   UNL     1       6.839  -5.704  39.057  0.00  0.00    +0.024 C 
ATOM     12  C   UNL     1       7.825  -3.507  39.666  0.00  0.00    +0.019 C 
ATOM     13  C   UNL     1       6.148  -3.675  37.244  0.00  0.00    +0.094 C 
ATOM     14  C   UNL     1       6.476  -2.798  39.458  0.00  0.00    +0.085 C 
ENDROOT
BRANCH   9  15
ATOM      5  N   UNL     1       9.265  -5.006  35.527  0.00  0.00    -0.270 N 
ATOM      7  N   UNL     1       9.381  -5.815  34.461  0.00  0.00    -0.171 NA
ATOM     15  C   UNL     1       8.007  -4.965  36.053  0.00  0.00    +0.044 A 
ATOM     17  C   UNL     1       7.247  -5.805  35.276  0.00  0.00    +0.053 A 
ATOM     18  C   UNL     1       8.146  -6.301  34.312  0.00  0.00    +0.093 A 
ATOM     19  C   UNL     1      10.425  -4.286  35.997  0.00  0.00    +0.172 C 
BRANCH  18  21
ATOM      1  F   UNL     1       6.986  -9.883  30.210  0.00  0.00    -0.205 F 
ATOM     21  C   UNL     1       7.846  -7.226  33.252  0.00  0.00    +0.002 A 
ATOM     23  C   UNL     1       6.565  -7.266  32.701  0.00  0.00    +0.013 A 
ATOM     24  C   UNL     1       8.836  -8.085  32.774  0.00  0.00    +0.013 A 
ATOM     27  C   UNL     1       6.274  -8.163  31.674  0.00  0.00    +0.039 A 
ATOM     28  C   UNL     1       8.546  -8.982  31.747  0.00  0.00    +0.039 A 
ATOM     29  C   UNL     1       7.265  -9.021  31.197  0.00  0.00    +0.123 A 
ENDBRANCH  18  21
ENDBRANCH   9  15
BRANCH  10  16
ATOM     16  C   UNL     1       4.333  -5.789  38.618  0.00  0.00    +0.123 C 
BRANCH  16   6
ATOM      2  O   UNL     1       3.537  -8.537  38.367  0.00  0.00    -0.270 OA
ATOM      6  N   UNL     1       4.808  -6.731  37.652  0.00  0.00    -0.310 N 
ATOM     20  C   UNL     1       4.367  -8.052  37.601  0.00  0.00    +0.244 C 
ATOM     34  H   UNL     1       5.541  -6.413  37.028  0.00  0.00    +0.149 HD
BRANCH  20  22
ATOM     22  C   UNL     1       4.977  -8.912  36.556  0.00  0.00    +0.037 A 
ATOM     25  C   UNL     1       4.177  -9.486  35.569  0.00  0.00    +0.016 A 
ATOM     26  C   UNL     1       6.352  -9.148  36.562  0.00  0.00    +0.016 A 
ATOM     30  C   UNL     1       4.750 -10.296  34.588  0.00  0.00    +0.046 A 
ATOM     31  C   UNL     1       6.926  -9.957  35.582  0.00  0.00    +0.046 A 
ATOM     32  C   UNL     1       6.125 -10.531  34.595  0.00  0.00    +0.120 A 
BRANCH  32   3
ATOM      3  O   UNL     1       6.685 -11.320  33.638  0.00  0.00    -0.495 OA
ATOM     33  C   UNL     1       5.800 -12.133  32.867  0.00  0.00    +0.277 C 
ENDBRANCH  32   3
ENDBRANCH  20  22
ENDBRANCH  16   6
ENDBRANCH  10  16
TORSDOF 6
ENDMDL
MODEL 9
REMARK VINA RESULT:      -6.1     27.821     29.820
REMARK  Name = 25389028
REMARK  8 active torsions:
REMARK  status: ('A' for Active; 'I' for Inactive)
REMARK    1  A    between atoms: O_3  and  C_32
REMARK    2  A    between atoms: O_3  and  C_33
REMARK    3  A    between atoms: N_5  and  C_19
REMARK    4  A    between atoms: N_6  and  C_16
REMARK    5  A    between atoms: C_9  and  C_15
REMARK    6  A    between atoms: C_10  and  C_16
REMARK    7  A    between atoms: C_18  and  C_21
REMARK    8  A    between atoms: C_20  and  C_22
REMARK                            x       y       z     vdW  Elec       q    Type
REMARK                         _______ _______ _______ _____ _____    ______ ____
ROOT
ATOM      4  N   UNL     1      -5.768  -8.720   9.214  0.00  0.00    -0.297 NA
ATOM      8  C   UNL     1      -7.628 -10.230  10.237  0.00  0.00    +0.002 C 
ATOM      9  C   UNL     1      -7.156  -9.171  11.272  0.00  0.00    +0.055 C 
ATOM     10  C   UNL     1      -5.437 -10.153   8.995  0.00  0.00    +0.074 C 
ATOM     11  C   UNL     1      -6.414 -11.062   9.770  0.00  0.00    +0.024 C 
ATOM     12  C   UNL     1      -8.143  -9.452   9.008  0.00  0.00    +0.019 C 
ATOM     13  C   UNL     1      -5.919  -8.449  10.665  0.00  0.00    +0.094 C 
ATOM     14  C   UNL     1      -7.069  -8.449   8.555  0.00  0.00    +0.085 C 
ENDROOT
BRANCH   9  15
ATOM      5  N   UNL     1      -7.924  -9.830  13.600  0.00  0.00    -0.270 N 
ATOM      7  N   UNL     1      -7.502 -10.227  14.812  0.00  0.00    -0.171 NA
ATOM     15  C   UNL     1      -6.915  -9.624  12.705  0.00  0.00    +0.044 A 
ATOM     17  C   UNL     1      -5.752  -9.906  13.379  0.00  0.00    +0.053 A 
ATOM     18  C   UNL     1      -6.175 -10.272  14.672  0.00  0.00    +0.093 A 
ATOM     19  C   UNL     1      -9.339  -9.662  13.364  0.00  0.00    +0.172 C 
BRANCH  18  21
ATOM      1  F   UNL     1      -2.926 -11.779  18.936  0.00  0.00    -0.205 F 
ATOM     21  C   UNL     1      -5.335 -10.662  15.774  0.00  0.00    +0.002 A 
ATOM     23  C   UNL     1      -3.948 -10.674  15.625  0.00  0.00    +0.013 A 
ATOM     24  C   UNL     1      -5.907 -11.028  16.992  0.00  0.00    +0.013 A 
ATOM     27  C   UNL     1      -3.134 -11.051  16.692  0.00  0.00    +0.039 A 
ATOM     28  C   UNL     1      -5.094 -11.405  18.060  0.00  0.00    +0.039 A 
ATOM     29  C   UNL     1      -3.708 -11.417  17.910  0.00  0.00    +0.123 A 
ENDBRANCH  18  21
ENDBRANCH   9  15
BRANCH  10  16
ATOM     16  C   UNL     1      -3.978 -10.471   9.328  0.00  0.00    +0.123 C 
BRANCH  16   6
ATOM      2  O   UNL     1      -2.243 -10.367  11.613  0.00  0.00    -0.270 OA
ATOM      6  N   UNL     1      -3.892 -11.436  10.379  0.00  0.00    -0.310 N 
ATOM     20  C   UNL     1      -3.018 -11.307  11.457  0.00  0.00    +0.244 C 
ATOM     34  H   UNL     1      -4.461 -12.270  10.281  0.00  0.00    +0.149 HD
BRANCH  20  22
ATOM     22  C   UNL     1      -3.030 -12.409  12.453  0.00  0.00    +0.037 A 
ATOM     25  C   UNL     1      -1.853 -12.772  13.108  0.00  0.00    +0.016 A 
ATOM     26  C   UNL     1      -4.219 -13.083  12.732  0.00  0.00    +0.016 A 
ATOM     30  C   UNL     1      -1.864 -13.809  14.041  0.00  0.00    +0.046 A 
ATOM     31  C   UNL     1      -4.231 -14.119  13.665  0.00  0.00    +0.046 A 
ATOM     32  C   UNL     1      -3.054 -14.482  14.320  0.00  0.00    +0.120 A 
BRANCH  32   3
ATOM      3  O   UNL     1      -3.065 -15.493  15.231  0.00  0.00    -0.495 OA
ATOM     33  C   UNL     1      -2.166 -16.579  15.008  0.00  0.00    +0.277 C 
ENDBRANCH  32   3
ENDBRANCH  20  22
ENDBRANCH  16   6
ENDBRANCH  10  16
TORSDOF 6
ENDMDL
MODEL 10
REMARK VINA RESULT:      -6.1     25.283     27.858
REMARK  Name = 25389028
REMARK  8 active torsions:
REMARK  status: ('A' for Active; 'I' for Inactive)
REMARK    1  A    between atoms: O_3  and  C_32
REMARK    2  A    between atoms: O_3  and  C_33
REMARK    3  A    between atoms: N_5  and  C_19
REMARK    4  A    between atoms: N_6  and  C_16
REMARK    5  A    between atoms: C_9  and  C_15
REMARK    6  A    between atoms: C_10  and  C_16
REMARK    7  A    between atoms: C_18  and  C_21
REMARK    8  A    between atoms: C_20  and  C_22
REMARK                            x       y       z     vdW  Elec       q    Type
REMARK                         _______ _______ _______ _____ _____    ______ ____
ROOT
ATOM      4  N   UNL     1     -17.112   6.238  22.617  0.00  0.00    -0.297 NA
ATOM      8  C   UNL     1     -14.553   5.757  22.598  0.00  0.00    +0.002 C 
ATOM      9  C   UNL     1     -14.825   7.237  22.986  0.00  0.00    +0.055 C 
ATOM     10  C   UNL     1     -16.730   5.569  21.345  0.00  0.00    +0.074 C 
ATOM     11  C   UNL     1     -15.195   5.463  21.226  0.00  0.00    +0.024 C 
ATOM     12  C   UNL     1     -15.285   4.883  23.638  0.00  0.00    +0.019 C 
ATOM     13  C   UNL     1     -16.345   7.498  22.779  0.00  0.00    +0.094 C 
ATOM     14  C   UNL     1     -16.753   5.331  23.733  0.00  0.00    +0.085 C 
ENDROOT
BRANCH   9  15
ATOM      5  N   UNL     1     -13.773   9.546  22.911  0.00  0.00    -0.270 N 
ATOM      7  N   UNL     1     -12.979  10.356  22.192  0.00  0.00    -0.171 NA
ATOM     15  C   UNL     1     -13.962   8.317  22.349  0.00  0.00    +0.044 A 
ATOM     17  C   UNL     1     -13.240   8.325  21.180  0.00  0.00    +0.053 A 
ATOM     18  C   UNL     1     -12.655   9.605  21.136  0.00  0.00    +0.093 A 
ATOM     19  C   UNL     1     -14.332  10.026  24.154  0.00  0.00    +0.172 C 
BRANCH  18  21
ATOM      1  F   UNL     1      -9.332  11.610  17.143  0.00  0.00    -0.205 F 
ATOM     21  C   UNL     1     -11.796  10.123  20.104  0.00  0.00    +0.002 A 
ATOM     23  C   UNL     1     -10.802   9.315  19.551  0.00  0.00    +0.013 A 
ATOM     24  C   UNL     1     -11.957  11.434  19.656  0.00  0.00    +0.013 A 
ATOM     27  C   UNL     1      -9.971   9.817  18.551  0.00  0.00    +0.039 A 
ATOM     28  C   UNL     1     -11.125  11.936  18.656  0.00  0.00    +0.039 A 
ATOM     29  C   UNL     1     -10.132  11.128  18.104  0.00  0.00    +0.123 A 
ENDBRANCH  18  21
ENDBRANCH   9  15
BRANCH  10  16
ATOM     16  C   UNL     1     -17.352   6.244  20.121  0.00  0.00    +0.123 C 
BRANCH  16   6
ATOM      2  O   UNL     1     -17.001   9.047  19.603  0.00  0.00    -0.270 OA
ATOM      6  N   UNL     1     -16.344   6.841  19.300  0.00  0.00    -0.310 N 
ATOM     20  C   UNL     1     -16.246   8.218  19.102  0.00  0.00    +0.244 C 
ATOM     34  H   UNL     1     -15.725   6.209  18.806  0.00  0.00    +0.149 HD
BRANCH  20  22
ATOM     22  C   UNL     1     -15.160   8.678  18.199  0.00  0.00    +0.037 A 
ATOM     25  C   UNL     1     -15.143   9.996  17.743  0.00  0.00    +0.016 A 
ATOM     26  C   UNL     1     -14.157   7.792  17.806  0.00  0.00    +0.016 A 
ATOM     30  C   UNL     1     -14.124  10.428  16.893  0.00  0.00    +0.046 A 
ATOM     31  C   UNL     1     -13.139   8.223  16.957  0.00  0.00    +0.046 A 
ATOM     32  C   UNL     1     -13.122   9.541  16.501  0.00  0.00    +0.120 A 
BRANCH  32   3
ATOM      3  O   UNL     1     -12.127   9.962  15.673  0.00  0.00    -0.495 OA
ATOM     33  C   UNL     1     -11.231   8.969  15.176  0.00  0.00    +0.277 C 
ENDBRANCH  32   3
ENDBRANCH  20  22
ENDBRANCH  16   6
ENDBRANCH  10  16
TORSDOF 6
ENDMDL
