MODEL 1
REMARK VINA RESULT:      -6.2      0.000      0.000
REMARK  Name = 44716346
REMARK  9 active torsions:
REMARK  status: ('A' for Active; 'I' for Inactive)
REMARK    1  A    between atoms: O_1  and  C_29
REMARK    2  A    between atoms: O_1  and  C_30
REMARK    3  A    between atoms: N_3  and  C_22
REMARK    4  A    between atoms: N_4  and  C_14
REMARK    5  A    between atoms: N_4  and  C_23
REMARK    6  A    between atoms: C_7  and  C_13
REMARK    7  A    between atoms: C_8  and  C_14
REMARK    8  A    between atoms: C_16  and  C_17
REMARK    9  A    between atoms: C_23  and  C_24
REMARK                            x       y       z     vdW  Elec       q    Type
REMARK                         _______ _______ _______ _____ _____    ______ ____
ROOT
ATOM      2  N   UNL     1      12.175  12.408  24.478  0.00  0.00    -0.298 NA
ATOM      6  C   UNL     1      11.074  12.781  22.147  0.00  0.00    +0.002 C 
ATOM      7  C   UNL     1      11.156  11.264  22.473  0.00  0.00    +0.055 C 
ATOM      8  C   UNL     1      13.014  13.324  23.660  0.00  0.00    +0.071 C 
ATOM      9  C   UNL     1      12.490  13.394  22.209  0.00  0.00    +0.024 C 
ATOM     10  C   UNL     1      11.999  11.115  23.772  0.00  0.00    +0.094 C 
ATOM     11  C   UNL     1      10.247  13.435  23.274  0.00  0.00    +0.019 C 
ATOM     12  C   UNL     1      10.840  13.035  24.635  0.00  0.00    +0.085 C 
ENDROOT
BRANCH   7  13
ATOM      3  N   UNL     1      11.320   8.985  21.369  0.00  0.00    -0.271 N 
ATOM      5  N   UNL     1      11.819   8.322  20.311  0.00  0.00    -0.176 NA
ATOM     13  C   UNL     1      11.616  10.317  21.374  0.00  0.00    +0.044 A 
ATOM     15  C   UNL     1      12.360  10.540  20.242  0.00  0.00    +0.048 A 
ATOM     17  C   UNL     1      12.453   9.278  19.627  0.00  0.00    +0.066 A 
ATOM     22  C   UNL     1      10.555   8.261  22.357  0.00  0.00    +0.172 C 
BRANCH  17  16
ATOM     16  C   UNL     1      13.163   8.932  18.336  0.00  0.00    +0.040 C 
ATOM     18  C   UNL     1      12.349   9.330  17.091  0.00  0.00    +0.010 C 
ATOM     19  C   UNL     1      14.541   9.603  18.165  0.00  0.00    +0.010 C 
ATOM     20  C   UNL     1      13.390   9.769  16.073  0.00  0.00    +0.001 C 
ATOM     21  C   UNL     1      14.423  10.484  16.927  0.00  0.00    +0.001 C 
ENDBRANCH  17  16
ENDBRANCH   7  13
BRANCH   8  14
ATOM     14  C   UNL     1      14.499  12.958  23.712  0.00  0.00    +0.100 C 
BRANCH  14   4
ATOM      4  N   UNL     1      14.949  12.444  22.429  0.00  0.00    -0.311 NA
ATOM     31  H   UNL     1      15.070  13.226  21.785  0.00  0.00    +0.122 HD
BRANCH   4  23
ATOM     23  C   UNL     1      16.217  11.738  22.564  0.00  0.00    +0.116 C 
BRANCH  23  24
ATOM     24  C   UNL     1      16.130  10.326  22.051  0.00  0.00    -0.033 A 
ATOM     25  C   UNL     1      17.113   9.832  21.194  0.00  0.00    +0.008 A 
ATOM     26  C   UNL     1      15.064   9.511  22.431  0.00  0.00    +0.008 A 
ATOM     27  C   UNL     1      17.032   8.523  20.718  0.00  0.00    +0.046 A 
ATOM     28  C   UNL     1      14.982   8.202  21.957  0.00  0.00    +0.046 A 
ATOM     29  C   UNL     1      15.966   7.708  21.100  0.00  0.00    +0.120 A 
BRANCH  29   1
ATOM      1  O   UNL     1      15.887   6.431  20.637  0.00  0.00    -0.495 OA
ATOM     30  C   UNL     1      16.210   6.217  19.264  0.00  0.00    +0.277 C 
ENDBRANCH  29   1
ENDBRANCH  23  24
ENDBRANCH   4  23
ENDBRANCH  14   4
ENDBRANCH   8  14
TORSDOF 7
ENDMDL
MODEL 2
REMARK VINA RESULT:      -6.1     27.131     29.874
REMARK  Name = 44716346
REMARK  9 active torsions:
REMARK  status: ('A' for Active; 'I' for Inactive)
REMARK    1  A    between atoms: O_1  and  C_29
REMARK    2  A    between atoms: O_1  and  C_30
REMARK    3  A    between atoms: N_3  and  C_22
REMARK    4  A    between atoms: N_4  and  C_14
REMARK    5  A    between atoms: N_4  and  C_23
REMARK    6  A    between atoms: C_7  and  C_13
REMARK    7  A    between atoms: C_8  and  C_14
REMARK    8  A    between atoms: C_16  and  C_17
REMARK    9  A    between atoms: C_23  and  C_24
REMARK                            x       y       z     vdW  Elec       q    Type
REMARK                         _______ _______ _______ _____ _____    ______ ____
ROOT
ATOM      2  N   UNL     1      -6.077 -10.565  18.359  0.00  0.00    -0.298 NA
ATOM      6  C   UNL     1      -4.959 -12.524  17.056  0.00  0.00    +0.002 C 
ATOM      7  C   UNL     1      -4.322 -11.166  16.649  0.00  0.00    +0.055 C 
ATOM      8  C   UNL     1      -7.121 -11.429  17.745  0.00  0.00    +0.071 C 
ATOM      9  C   UNL     1      -6.481 -12.470  16.801  0.00  0.00    +0.024 C 
ATOM     10  C   UNL     1      -5.171 -10.040  17.308  0.00  0.00    +0.094 C 
ATOM     11  C   UNL     1      -4.759 -12.670  18.580  0.00  0.00    +0.019 C 
ATOM     12  C   UNL     1      -5.278 -11.405  19.283  0.00  0.00    +0.085 C 
ENDROOT
BRANCH   7  13
ATOM      3  N   UNL     1      -2.818 -10.734  14.651  0.00  0.00    -0.271 N 
ATOM      5  N   UNL     1      -2.808 -10.516  13.324  0.00  0.00    -0.176 NA
ATOM     13  C   UNL     1      -4.067 -10.906  15.171  0.00  0.00    +0.044 A 
ATOM     15  C   UNL     1      -4.934 -10.794  14.112  0.00  0.00    +0.048 A 
ATOM     17  C   UNL     1      -4.103 -10.555  13.001  0.00  0.00    +0.066 A 
ATOM     22  C   UNL     1      -1.566 -10.760  15.370  0.00  0.00    +0.172 C 
BRANCH  17  16
ATOM     16  C   UNL     1      -4.524 -10.351  11.562  0.00  0.00    +0.040 C 
ATOM     18  C   UNL     1      -5.258  -9.015  11.347  0.00  0.00    +0.010 C 
ATOM     19  C   UNL     1      -3.361 -10.356  10.548  0.00  0.00    +0.010 C 
ATOM     20  C   UNL     1      -4.825  -8.555   9.964  0.00  0.00    +0.001 C 
ATOM     21  C   UNL     1      -3.366  -8.974   9.905  0.00  0.00    +0.001 C 
ENDBRANCH  17  16
ENDBRANCH   7  13
BRANCH   8  14
ATOM     14  C   UNL     1      -8.211 -10.617  17.042  0.00  0.00    +0.100 C 
BRANCH  14   4
ATOM      4  N   UNL     1      -8.697  -9.553  17.903  0.00  0.00    -0.311 NA
ATOM     31  H   UNL     1      -8.488  -8.654  17.467  0.00  0.00    +0.122 HD
BRANCH   4  23
ATOM     23  C   UNL     1     -10.137  -9.659  18.105  0.00  0.00    +0.116 C 
BRANCH  23  24
ATOM     24  C   UNL     1     -10.892  -8.617  17.323  0.00  0.00    -0.033 A 
ATOM     25  C   UNL     1     -12.210  -8.854  16.935  0.00  0.00    +0.008 A 
ATOM     26  C   UNL     1     -10.271  -7.415  16.985  0.00  0.00    +0.008 A 
ATOM     27  C   UNL     1     -12.909  -7.889  16.210  0.00  0.00    +0.046 A 
ATOM     28  C   UNL     1     -10.969  -6.449  16.261  0.00  0.00    +0.046 A 
ATOM     29  C   UNL     1     -12.288  -6.686  15.872  0.00  0.00    +0.120 A 
BRANCH  29   1
ATOM      1  O   UNL     1     -12.969  -5.743  15.166  0.00  0.00    -0.495 OA
ATOM     30  C   UNL     1     -12.435  -5.372  13.896  0.00  0.00    +0.277 C 
ENDBRANCH  29   1
ENDBRANCH  23  24
ENDBRANCH   4  23
ENDBRANCH  14   4
ENDBRANCH   8  14
TORSDOF 7
ENDMDL
MODEL 3
REMARK VINA RESULT:      -6.1     26.588     29.644
REMARK  Name = 44716346
REMARK  9 active torsions:
REMARK  status: ('A' for Active; 'I' for Inactive)
REMARK    1  A    between atoms: O_1  and  C_29
REMARK    2  A    between atoms: O_1  and  C_30
REMARK    3  A    between atoms: N_3  and  C_22
REMARK    4  A    between atoms: N_4  and  C_14
REMARK    5  A    between atoms: N_4  and  C_23
REMARK    6  A    between atoms: C_7  and  C_13
REMARK    7  A    between atoms: C_8  and  C_14
REMARK    8  A    between atoms: C_16  and  C_17
REMARK    9  A    between atoms: C_23  and  C_24
REMARK                            x       y       z     vdW  Elec       q    Type
REMARK                         _______ _______ _______ _____ _____    ______ ____
ROOT
ATOM      2  N   UNL     1      -6.466 -10.446  17.227  0.00  0.00    -0.298 NA
ATOM      6  C   UNL     1      -4.290 -11.870  17.085  0.00  0.00    +0.002 C 
ATOM      7  C   UNL     1      -4.113 -10.528  16.322  0.00  0.00    +0.055 C 
ATOM      8  C   UNL     1      -6.792 -11.831  16.796  0.00  0.00    +0.071 C 
ATOM      9  C   UNL     1      -5.503 -12.629  16.506  0.00  0.00    +0.024 C 
ATOM     10  C   UNL     1      -5.503  -9.832  16.279  0.00  0.00    +0.094 C 
ATOM     11  C   UNL     1      -4.636 -11.509  18.545  0.00  0.00    +0.019 C 
ATOM     12  C   UNL     1      -5.818 -10.526  18.558  0.00  0.00    +0.085 C 
ENDROOT
BRANCH   7  13
ATOM      3  N   UNL     1      -2.094 -10.433  14.786  0.00  0.00    -0.271 N 
ATOM      5  N   UNL     1      -1.702 -10.489  13.501  0.00  0.00    -0.176 NA
ATOM     13  C   UNL     1      -3.442 -10.561  14.956  0.00  0.00    +0.044 A 
ATOM     15  C   UNL     1      -3.966 -10.713  13.696  0.00  0.00    +0.048 A 
ATOM     17  C   UNL     1      -2.849 -10.661  12.841  0.00  0.00    +0.066 A 
ATOM     22  C   UNL     1      -1.102 -10.247  15.819  0.00  0.00    +0.172 C 
BRANCH  17  16
ATOM     16  C   UNL     1      -2.838 -10.777  11.333  0.00  0.00    +0.040 C 
ATOM     18  C   UNL     1      -4.163 -11.328  10.774  0.00  0.00    +0.010 C 
ATOM     19  C   UNL     1      -2.594  -9.447  10.590  0.00  0.00    +0.010 C 
ATOM     20  C   UNL     1      -4.361 -10.595   9.456  0.00  0.00    +0.001 C 
ATOM     21  C   UNL     1      -3.848  -9.198   9.761  0.00  0.00    +0.001 C 
ENDBRANCH  17  16
ENDBRANCH   7  13
BRANCH   8  14
ATOM     14  C   UNL     1      -7.759 -11.859  15.610  0.00  0.00    +0.100 C 
BRANCH  14   4
ATOM      4  N   UNL     1      -7.069 -12.250  14.392  0.00  0.00    -0.311 NA
ATOM     31  H   UNL     1      -6.605 -13.145  14.548  0.00  0.00    +0.122 HD
BRANCH   4  23
ATOM     23  C   UNL     1      -8.004 -12.387  13.281  0.00  0.00    +0.116 C 
BRANCH  23  24
ATOM     24  C   UNL     1      -7.833 -11.289  12.265  0.00  0.00    -0.033 A 
ATOM     25  C   UNL     1      -7.249 -10.079  12.637  0.00  0.00    +0.008 A 
ATOM     26  C   UNL     1      -8.260 -11.483  10.952  0.00  0.00    +0.008 A 
ATOM     27  C   UNL     1      -7.091  -9.062  11.696  0.00  0.00    +0.046 A 
ATOM     28  C   UNL     1      -8.102 -10.467  10.010  0.00  0.00    +0.046 A 
ATOM     29  C   UNL     1      -7.518  -9.256  10.382  0.00  0.00    +0.120 A 
BRANCH  29   1
ATOM      1  O   UNL     1      -7.362  -8.265   9.463  0.00  0.00    -0.495 OA
ATOM     30  C   UNL     1      -7.405  -8.642   8.087  0.00  0.00    +0.277 C 
ENDBRANCH  29   1
ENDBRANCH  23  24
ENDBRANCH   4  23
ENDBRANCH  14   4
ENDBRANCH   8  14
TORSDOF 7
ENDMDL
MODEL 4
REMARK VINA RESULT:      -5.9     14.341     17.190
REMARK  Name = 44716346
REMARK  9 active torsions:
REMARK  status: ('A' for Active; 'I' for Inactive)
REMARK    1  A    between atoms: O_1  and  C_29
REMARK    2  A    between atoms: O_1  and  C_30
REMARK    3  A    between atoms: N_3  and  C_22
REMARK    4  A    between atoms: N_4  and  C_14
REMARK    5  A    between atoms: N_4  and  C_23
REMARK    6  A    between atoms: C_7  and  C_13
REMARK    7  A    between atoms: C_8  and  C_14
REMARK    8  A    between atoms: C_16  and  C_17
REMARK    9  A    between atoms: C_23  and  C_24
REMARK                            x       y       z     vdW  Elec       q    Type
REMARK                         _______ _______ _______ _____ _____    ______ ____
ROOT
ATOM      2  N   UNL     1      15.642   9.956   4.234  0.00  0.00    -0.298 NA
ATOM      6  C   UNL     1      15.876   7.368   4.406  0.00  0.00    +0.002 C 
ATOM      7  C   UNL     1      14.933   7.752   3.233  0.00  0.00    +0.055 C 
ATOM      8  C   UNL     1      15.404   9.516   5.634  0.00  0.00    +0.071 C 
ATOM      9  C   UNL     1      15.333   7.976   5.717  0.00  0.00    +0.024 C 
ATOM     10  C   UNL     1      14.684   9.285   3.321  0.00  0.00    +0.094 C 
ATOM     11  C   UNL     1      17.235   8.041   4.123  0.00  0.00    +0.019 C 
ATOM     12  C   UNL     1      17.013   9.539   3.854  0.00  0.00    +0.085 C 
ENDROOT
BRANCH   7  13
ATOM      3  N   UNL     1      13.558   5.816   2.335  0.00  0.00    -0.271 N 
ATOM      5  N   UNL     1      12.328   5.276   2.309  0.00  0.00    -0.176 NA
ATOM     13  C   UNL     1      13.640   6.966   3.064  0.00  0.00    +0.044 A 
ATOM     15  C   UNL     1      12.375   7.194   3.548  0.00  0.00    +0.048 A 
ATOM     17  C   UNL     1      11.610   6.121   3.052  0.00  0.00    +0.066 A 
ATOM     22  C   UNL     1      14.630   5.163   1.620  0.00  0.00    +0.172 C 
BRANCH  17  16
ATOM     16  C   UNL     1      10.137   5.860   3.276  0.00  0.00    +0.040 C 
ATOM     18  C   UNL     1       9.857   5.188   4.633  0.00  0.00    +0.010 C 
ATOM     19  C   UNL     1       9.251   7.123   3.245  0.00  0.00    +0.010 C 
ATOM     20  C   UNL     1       8.532   5.777   5.090  0.00  0.00    +0.001 C 
ATOM     21  C   UNL     1       8.624   7.222   4.631  0.00  0.00    +0.001 C 
ENDBRANCH  17  16
ENDBRANCH   7  13
BRANCH   8  14
ATOM     14  C   UNL     1      14.169  10.177   6.251  0.00  0.00    +0.100 C 
BRANCH  14   4
ATOM      4  N   UNL     1      13.359   9.199   6.957  0.00  0.00    -0.311 NA
ATOM     31  H   UNL     1      13.459   9.352   7.962  0.00  0.00    +0.122 HD
BRANCH   4  23
ATOM     23  C   UNL     1      11.952   9.324   6.596  0.00  0.00    +0.116 C 
BRANCH  23  24
ATOM     24  C   UNL     1      11.109   8.261   7.248  0.00  0.00    -0.033 A 
ATOM     25  C   UNL     1      11.605   6.966   7.389  0.00  0.00    +0.008 A 
ATOM     26  C   UNL     1       9.831   8.573   7.711  0.00  0.00    +0.008 A 
ATOM     27  C   UNL     1      10.823   5.981   7.993  0.00  0.00    +0.046 A 
ATOM     28  C   UNL     1       9.050   7.589   8.316  0.00  0.00    +0.046 A 
ATOM     29  C   UNL     1       9.545   6.293   8.457  0.00  0.00    +0.120 A 
BRANCH  29   1
ATOM      1  O   UNL     1       8.783   5.333   9.048  0.00  0.00    -0.495 OA
ATOM     30  C   UNL     1       9.419   4.091   9.346  0.00  0.00    +0.277 C 
ENDBRANCH  29   1
ENDBRANCH  23  24
ENDBRANCH   4  23
ENDBRANCH  14   4
ENDBRANCH   8  14
TORSDOF 7
ENDMDL
MODEL 5
REMARK VINA RESULT:      -5.8     27.572     30.432
REMARK  Name = 44716346
REMARK  9 active torsions:
REMARK  status: ('A' for Active; 'I' for Inactive)
REMARK    1  A    between atoms: O_1  and  C_29
REMARK    2  A    between atoms: O_1  and  C_30
REMARK    3  A    between atoms: N_3  and  C_22
REMARK    4  A    between atoms: N_4  and  C_14
REMARK    5  A    between atoms: N_4  and  C_23
REMARK    6  A    between atoms: C_7  and  C_13
REMARK    7  A    between atoms: C_8  and  C_14
REMARK    8  A    between atoms: C_16  and  C_17
REMARK    9  A    between atoms: C_23  and  C_24
REMARK                            x       y       z     vdW  Elec       q    Type
REMARK                         _______ _______ _______ _____ _____    ______ ____
ROOT
ATOM      2  N   UNL     1     -10.511  -7.706  15.313  0.00  0.00    -0.298 NA
ATOM      6  C   UNL     1     -11.865  -9.410  16.744  0.00  0.00    +0.002 C 
ATOM      7  C   UNL     1     -10.653  -8.865  17.550  0.00  0.00    +0.055 C 
ATOM      8  C   UNL     1     -10.744  -8.952  14.535  0.00  0.00    +0.071 C 
ATOM      9  C   UNL     1     -11.360 -10.047  15.432  0.00  0.00    +0.024 C 
ATOM     10  C   UNL     1      -9.787  -8.021  16.570  0.00  0.00    +0.094 C 
ATOM     11  C   UNL     1     -12.724  -8.188  16.355  0.00  0.00    +0.019 C 
ATOM     12  C   UNL     1     -11.833  -7.139  15.670  0.00  0.00    +0.085 C 
ENDROOT
BRANCH   7  13
ATOM      3  N   UNL     1     -10.228 -10.385  19.538  0.00  0.00    -0.271 N 
ATOM      5  N   UNL     1      -9.346 -11.240  20.085  0.00  0.00    -0.176 NA
ATOM     13  C   UNL     1      -9.818  -9.856  18.349  0.00  0.00    +0.044 A 
ATOM     15  C   UNL     1      -8.583 -10.403  18.101  0.00  0.00    +0.048 A 
ATOM     17  C   UNL     1      -8.345 -11.247  19.202  0.00  0.00    +0.066 A 
ATOM     22  C   UNL     1     -11.468 -10.114  20.227  0.00  0.00    +0.172 C 
BRANCH  17  16
ATOM     16  C   UNL     1      -7.127 -12.109  19.455  0.00  0.00    +0.040 C 
ATOM     18  C   UNL     1      -6.573 -12.739  18.164  0.00  0.00    +0.010 C 
ATOM     19  C   UNL     1      -5.939 -11.365  20.100  0.00  0.00    +0.010 C 
ATOM     20  C   UNL     1      -5.065 -12.757  18.360  0.00  0.00    +0.001 C 
ATOM     21  C   UNL     1      -4.799 -11.453  19.091  0.00  0.00    +0.001 C 
ENDBRANCH  17  16
ENDBRANCH   7  13
BRANCH   8  14
ATOM     14  C   UNL     1      -9.480  -9.441  13.826  0.00  0.00    +0.100 C 
BRANCH  14   4
ATOM      4  N   UNL     1      -8.938 -10.615  14.489  0.00  0.00    -0.311 NA
ATOM     31  H   UNL     1      -9.682 -11.304  14.600  0.00  0.00    +0.122 HD
BRANCH   4  23
ATOM     23  C   UNL     1      -7.857 -11.206  13.709  0.00  0.00    +0.116 C 
BRANCH  23  24
ATOM     24  C   UNL     1      -6.517 -11.002  14.364  0.00  0.00    -0.033 A 
ATOM     25  C   UNL     1      -6.371 -10.053  15.375  0.00  0.00    +0.008 A 
ATOM     26  C   UNL     1      -5.421 -11.762  13.958  0.00  0.00    +0.008 A 
ATOM     27  C   UNL     1      -5.129  -9.864  15.982  0.00  0.00    +0.046 A 
ATOM     28  C   UNL     1      -4.179 -11.575  14.564  0.00  0.00    +0.046 A 
ATOM     29  C   UNL     1      -4.033 -10.626  15.576  0.00  0.00    +0.120 A 
BRANCH  29   1
ATOM      1  O   UNL     1      -2.822 -10.443  16.168  0.00  0.00    -0.495 OA
ATOM     30  C   UNL     1      -1.704 -11.105  15.578  0.00  0.00    +0.277 C 
ENDBRANCH  29   1
ENDBRANCH  23  24
ENDBRANCH   4  23
ENDBRANCH  14   4
ENDBRANCH   8  14
TORSDOF 7
ENDMDL
MODEL 6
REMARK VINA RESULT:      -5.6     27.844     29.639
REMARK  Name = 44716346
REMARK  9 active torsions:
REMARK  status: ('A' for Active; 'I' for Inactive)
REMARK    1  A    between atoms: O_1  and  C_29
REMARK    2  A    between atoms: O_1  and  C_30
REMARK    3  A    between atoms: N_3  and  C_22
REMARK    4  A    between atoms: N_4  and  C_14
REMARK    5  A    between atoms: N_4  and  C_23
REMARK    6  A    between atoms: C_7  and  C_13
REMARK    7  A    between atoms: C_8  and  C_14
REMARK    8  A    between atoms: C_16  and  C_17
REMARK    9  A    between atoms: C_23  and  C_24
REMARK                            x       y       z     vdW  Elec       q    Type
REMARK                         _______ _______ _______ _____ _____    ______ ____
ROOT
ATOM      2  N   UNL     1      -5.133 -12.939  17.189  0.00  0.00    -0.298 NA
ATOM      6  C   UNL     1      -5.257 -10.683  18.484  0.00  0.00    +0.002 C 
ATOM      7  C   UNL     1      -6.678 -11.283  18.300  0.00  0.00    +0.055 C 
ATOM      8  C   UNL     1      -4.364 -11.893  16.464  0.00  0.00    +0.071 C 
ATOM      9  C   UNL     1      -4.595 -10.506  17.101  0.00  0.00    +0.024 C 
ATOM     10  C   UNL     1      -6.544 -12.510  17.352  0.00  0.00    +0.094 C 
ATOM     11  C   UNL     1      -4.427 -11.732  19.254  0.00  0.00    +0.019 C 
ATOM     12  C   UNL     1      -4.535 -13.088  18.538  0.00  0.00    +0.085 C 
ENDROOT
BRANCH   7  13
ATOM      3  N   UNL     1      -9.014 -10.311  18.508  0.00  0.00    -0.271 N 
ATOM      5  N   UNL     1      -9.871  -9.418  17.984  0.00  0.00    -0.176 NA
ATOM     13  C   UNL     1      -7.804 -10.349  17.879  0.00  0.00    +0.044 A 
ATOM     15  C   UNL     1      -7.875  -9.417  16.874  0.00  0.00    +0.048 A 
ATOM     17  C   UNL     1      -9.169  -8.875  16.986  0.00  0.00    +0.066 A 
ATOM     22  C   UNL     1      -9.433 -11.112  19.635  0.00  0.00    +0.172 C 
BRANCH  17  16
ATOM     16  C   UNL     1      -9.794  -7.797  16.129  0.00  0.00    +0.040 C 
ATOM     18  C   UNL     1     -10.464  -8.364  14.864  0.00  0.00    +0.010 C 
ATOM     19  C   UNL     1     -10.881  -6.963  16.839  0.00  0.00    +0.010 C 
ATOM     20  C   UNL     1     -11.684  -7.483  14.645  0.00  0.00    +0.001 C 
ATOM     21  C   UNL     1     -12.167  -7.209  16.059  0.00  0.00    +0.001 C 
ENDBRANCH  17  16
ENDBRANCH   7  13
BRANCH   8  14
ATOM     14  C   UNL     1      -4.660 -11.886  14.963  0.00  0.00    +0.100 C 
BRANCH  14   4
ATOM      4  N   UNL     1      -3.447 -12.116  14.196  0.00  0.00    -0.311 NA
ATOM     31  H   UNL     1      -3.692 -12.584  13.323  0.00  0.00    +0.122 HD
BRANCH   4  23
ATOM     23  C   UNL     1      -2.776 -10.858  13.889  0.00  0.00    +0.116 C 
BRANCH  23  24
ATOM     24  C   UNL     1      -3.182 -10.321  12.542  0.00  0.00    -0.033 A 
ATOM     25  C   UNL     1      -2.207  -9.958  11.614  0.00  0.00    +0.008 A 
ATOM     26  C   UNL     1      -4.532 -10.187  12.223  0.00  0.00    +0.008 A 
ATOM     27  C   UNL     1      -2.582  -9.460  10.365  0.00  0.00    +0.046 A 
ATOM     28  C   UNL     1      -4.909  -9.690  10.976  0.00  0.00    +0.046 A 
ATOM     29  C   UNL     1      -3.934  -9.326  10.047  0.00  0.00    +0.120 A 
BRANCH  29   1
ATOM      1  O   UNL     1      -4.301  -8.842   8.829  0.00  0.00    -0.495 OA
ATOM     30  C   UNL     1      -5.059  -9.710   7.987  0.00  0.00    +0.277 C 
ENDBRANCH  29   1
ENDBRANCH  23  24
ENDBRANCH   4  23
ENDBRANCH  14   4
ENDBRANCH   8  14
TORSDOF 7
ENDMDL
MODEL 7
REMARK VINA RESULT:      -5.5     16.769     21.243
REMARK  Name = 44716346
REMARK  9 active torsions:
REMARK  status: ('A' for Active; 'I' for Inactive)
REMARK    1  A    between atoms: O_1  and  C_29
REMARK    2  A    between atoms: O_1  and  C_30
REMARK    3  A    between atoms: N_3  and  C_22
REMARK    4  A    between atoms: N_4  and  C_14
REMARK    5  A    between atoms: N_4  and  C_23
REMARK    6  A    between atoms: C_7  and  C_13
REMARK    7  A    between atoms: C_8  and  C_14
REMARK    8  A    between atoms: C_16  and  C_17
REMARK    9  A    between atoms: C_23  and  C_24
REMARK                            x       y       z     vdW  Elec       q    Type
REMARK                         _______ _______ _______ _____ _____    ______ ____
ROOT
ATOM      2  N   UNL     1      13.591   5.894   1.510  0.00  0.00    -0.298 NA
ATOM      6  C   UNL     1      12.487   3.587   1.022  0.00  0.00    +0.002 C 
ATOM      7  C   UNL     1      12.577   4.432  -0.279  0.00  0.00    +0.055 C 
ATOM      8  C   UNL     1      12.500   5.636   2.487  0.00  0.00    +0.071 C 
ATOM      9  C   UNL     1      11.700   4.376   2.090  0.00  0.00    +0.024 C 
ATOM     10  C   UNL     1      13.054   5.857   0.127  0.00  0.00    +0.094 C 
ATOM     11  C   UNL     1      13.928   3.424   1.547  0.00  0.00    +0.019 C 
ATOM     12  C   UNL     1      14.591   4.808   1.648  0.00  0.00    +0.085 C 
ENDROOT
BRANCH   7  13
ATOM      3  N   UNL     1      11.067   3.472  -2.079  0.00  0.00    -0.271 N 
ATOM      5  N   UNL     1       9.953   3.696  -2.798  0.00  0.00    -0.176 NA
ATOM     13  C   UNL     1      11.363   4.470  -1.197  0.00  0.00    +0.044 A 
ATOM     15  C   UNL     1      10.376   5.411  -1.350  0.00  0.00    +0.048 A 
ATOM     17  C   UNL     1       9.536   4.882  -2.348  0.00  0.00    +0.066 A 
ATOM     22  C   UNL     1      11.814   2.255  -2.297  0.00  0.00    +0.172 C 
BRANCH  17  16
ATOM     16  C   UNL     1       8.278   5.501  -2.917  0.00  0.00    +0.040 C 
ATOM     18  C   UNL     1       8.111   6.976  -2.508  0.00  0.00    +0.010 C 
ATOM     19  C   UNL     1       8.197   5.483  -4.458  0.00  0.00    +0.010 C 
ATOM     20  C   UNL     1       7.476   7.642  -3.719  0.00  0.00    +0.001 C 
ATOM     21  C   UNL     1       8.151   6.945  -4.887  0.00  0.00    +0.001 C 
ENDBRANCH  17  16
ENDBRANCH   7  13
BRANCH   8  14
ATOM     14  C   UNL     1      11.590   6.851   2.680  0.00  0.00    +0.100 C 
BRANCH  14   4
ATOM      4  N   UNL     1      10.197   6.445   2.759  0.00  0.00    -0.311 NA
ATOM     31  H   UNL     1      10.156   5.452   2.992  0.00  0.00    +0.122 HD
BRANCH   4  23
ATOM     23  C   UNL     1       9.488   7.202   3.783  0.00  0.00    +0.116 C 
BRANCH  23  24
ATOM     24  C   UNL     1       9.747   6.658   5.163  0.00  0.00    -0.033 A 
ATOM     25  C   UNL     1       9.545   5.305   5.429  0.00  0.00    +0.008 A 
ATOM     26  C   UNL     1      10.188   7.509   6.176  0.00  0.00    +0.008 A 
ATOM     27  C   UNL     1       9.784   4.801   6.707  0.00  0.00    +0.046 A 
ATOM     28  C   UNL     1      10.428   7.006   7.454  0.00  0.00    +0.046 A 
ATOM     29  C   UNL     1      10.226   5.652   7.720  0.00  0.00    +0.120 A 
BRANCH  29   1
ATOM      1  O   UNL     1      10.461   5.161   8.967  0.00  0.00    -0.495 OA
ATOM     30  C   UNL     1       9.357   4.571   9.652  0.00  0.00    +0.277 C 
ENDBRANCH  29   1
ENDBRANCH  23  24
ENDBRANCH   4  23
ENDBRANCH  14   4
ENDBRANCH   8  14
TORSDOF 7
ENDMDL
MODEL 8
REMARK VINA RESULT:      -5.5     15.580     19.329
REMARK  Name = 44716346
REMARK  9 active torsions:
REMARK  status: ('A' for Active; 'I' for Inactive)
REMARK    1  A    between atoms: O_1  and  C_29
REMARK    2  A    between atoms: O_1  and  C_30
REMARK    3  A    between atoms: N_3  and  C_22
REMARK    4  A    between atoms: N_4  and  C_14
REMARK    5  A    between atoms: N_4  and  C_23
REMARK    6  A    between atoms: C_7  and  C_13
REMARK    7  A    between atoms: C_8  and  C_14
REMARK    8  A    between atoms: C_16  and  C_17
REMARK    9  A    between atoms: C_23  and  C_24
REMARK                            x       y       z     vdW  Elec       q    Type
REMARK                         _______ _______ _______ _____ _____    ______ ____
ROOT
ATOM      2  N   UNL     1      13.863   5.507  -0.318  0.00  0.00    -0.298 NA
ATOM      6  C   UNL     1      12.532   3.600   0.855  0.00  0.00    +0.002 C 
ATOM      7  C   UNL     1      11.673   4.892   0.772  0.00  0.00    +0.055 C 
ATOM      8  C   UNL     1      14.690   4.897   0.757  0.00  0.00    +0.071 C 
ATOM      9  C   UNL     1      13.850   3.911   1.597  0.00  0.00    +0.024 C 
ATOM     10  C   UNL     1      12.597   6.031   0.250  0.00  0.00    +0.094 C 
ATOM     11  C   UNL     1      12.906   3.221  -0.594  0.00  0.00    +0.019 C 
ATOM     12  C   UNL     1      13.528   4.442  -1.293  0.00  0.00    +0.085 C 
ENDROOT
BRANCH   7  13
ATOM      3  N   UNL     1      10.094   6.423   2.040  0.00  0.00    -0.271 N 
ATOM      5  N   UNL     1       9.481   6.616   3.221  0.00  0.00    -0.176 NA
ATOM     13  C   UNL     1      10.883   5.310   2.004  0.00  0.00    +0.044 A 
ATOM     15  C   UNL     1      10.778   4.736   3.247  0.00  0.00    +0.048 A 
ATOM     17  C   UNL     1       9.902   5.582   3.953  0.00  0.00    +0.066 A 
ATOM     22  C   UNL     1       9.875   7.367   0.969  0.00  0.00    +0.172 C 
BRANCH  17  16
ATOM     16  C   UNL     1       9.427   5.430   5.381  0.00  0.00    +0.040 C 
ATOM     18  C   UNL     1      10.505   5.824   6.407  0.00  0.00    +0.010 C 
ATOM     19  C   UNL     1       8.185   6.275   5.736  0.00  0.00    +0.010 C 
ATOM     20  C   UNL     1       9.735   6.467   7.550  0.00  0.00    +0.001 C 
ATOM     21  C   UNL     1       8.635   7.232   6.834  0.00  0.00    +0.001 C 
ENDBRANCH  17  16
ENDBRANCH   7  13
BRANCH   8  14
ATOM     14  C   UNL     1      15.377   5.948   1.631  0.00  0.00    +0.100 C 
BRANCH  14   4
ATOM      4  N   UNL     1      14.938   5.838   3.012  0.00  0.00    -0.311 NA
ATOM     31  H   UNL     1      15.286   4.960   3.399  0.00  0.00    +0.122 HD
BRANCH   4  23
ATOM     23  C   UNL     1      15.446   6.944   3.813  0.00  0.00    +0.116 C 
BRANCH  23  24
ATOM     24  C   UNL     1      14.348   7.634   4.577  0.00  0.00    -0.033 A 
ATOM     25  C   UNL     1      13.160   7.978   3.933  0.00  0.00    +0.008 A 
ATOM     26  C   UNL     1      14.519   7.931   5.929  0.00  0.00    +0.008 A 
ATOM     27  C   UNL     1      12.142   8.618   4.640  0.00  0.00    +0.046 A 
ATOM     28  C   UNL     1      13.501   8.569   6.637  0.00  0.00    +0.046 A 
ATOM     29  C   UNL     1      12.313   8.913   5.993  0.00  0.00    +0.120 A 
BRANCH  29   1
ATOM      1  O   UNL     1      11.320   9.536   6.684  0.00  0.00    -0.495 OA
ATOM     30  C   UNL     1      10.410  10.339   5.932  0.00  0.00    +0.277 C 
ENDBRANCH  29   1
ENDBRANCH  23  24
ENDBRANCH   4  23
ENDBRANCH  14   4
ENDBRANCH   8  14
TORSDOF 7
ENDMDL
MODEL 9
REMARK VINA RESULT:      -5.4     25.510     28.671
REMARK  Name = 44716346
REMARK  9 active torsions:
REMARK  status: ('A' for Active; 'I' for Inactive)
REMARK    1  A    between atoms: O_1  and  C_29
REMARK    2  A    between atoms: O_1  and  C_30
REMARK    3  A    between atoms: N_3  and  C_22
REMARK    4  A    between atoms: N_4  and  C_14
REMARK    5  A    between atoms: N_4  and  C_23
REMARK    6  A    between atoms: C_7  and  C_13
REMARK    7  A    between atoms: C_8  and  C_14
REMARK    8  A    between atoms: C_16  and  C_17
REMARK    9  A    between atoms: C_23  and  C_24
REMARK                            x       y       z     vdW  Elec       q    Type
REMARK                         _______ _______ _______ _____ _____    ______ ____
ROOT
ATOM      2  N   UNL     1     -13.808  10.210  34.532  0.00  0.00    -0.298 NA
ATOM      6  C   UNL     1     -11.444   9.461  33.735  0.00  0.00    +0.002 C 
ATOM      7  C   UNL     1     -11.919  10.705  32.934  0.00  0.00    +0.055 C 
ATOM      8  C   UNL     1     -13.806   8.750  34.246  0.00  0.00    +0.071 C 
ATOM      9  C   UNL     1     -12.480   8.327  33.579  0.00  0.00    +0.024 C 
ATOM     10  C   UNL     1     -13.404  10.964  33.319  0.00  0.00    +0.094 C 
ATOM     11  C   UNL     1     -11.437   9.867  35.224  0.00  0.00    +0.019 C 
ATOM     12  C   UNL     1     -12.804  10.466  35.592  0.00  0.00    +0.085 C 
ENDROOT
BRANCH   7  13
ATOM      3  N   UNL     1     -11.037  11.710  30.777  0.00  0.00    -0.271 N 
ATOM      5  N   UNL     1     -10.956  11.531  29.447  0.00  0.00    -0.176 NA
ATOM     13  C   UNL     1     -11.704  10.713  31.427  0.00  0.00    +0.044 A 
ATOM     15  C   UNL     1     -12.085   9.822  30.455  0.00  0.00    +0.048 A 
ATOM     17  C   UNL     1     -11.597  10.376  29.257  0.00  0.00    +0.066 A 
ATOM     22  C   UNL     1     -10.441  12.886  31.368  0.00  0.00    +0.172 C 
BRANCH  17  16
ATOM     16  C   UNL     1     -11.728   9.810  27.860  0.00  0.00    +0.040 C 
ATOM     18  C   UNL     1     -12.944  10.378  27.106  0.00  0.00    +0.010 C 
ATOM     19  C   UNL     1     -10.511  10.071  26.947  0.00  0.00    +0.010 C 
ATOM     20  C   UNL     1     -12.486  10.485  25.659  0.00  0.00    +0.001 C 
ATOM     21  C   UNL     1     -11.035  10.914  25.790  0.00  0.00    +0.001 C 
ENDBRANCH  17  16
ENDBRANCH   7  13
BRANCH   8  14
ATOM     14  C   UNL     1     -15.022   8.315  33.425  0.00  0.00    +0.100 C 
BRANCH  14   4
ATOM      4  N   UNL     1     -14.634   7.368  32.393  0.00  0.00    -0.311 NA
ATOM     31  H   UNL     1     -13.743   6.944  32.652  0.00  0.00    +0.122 HD
BRANCH   4  23
ATOM     23  C   UNL     1     -15.635   6.318  32.244  0.00  0.00    +0.116 C 
BRANCH  23  24
ATOM     24  C   UNL     1     -15.036   5.045  31.707  0.00  0.00    -0.033 A 
ATOM     25  C   UNL     1     -13.849   4.551  32.246  0.00  0.00    +0.008 A 
ATOM     26  C   UNL     1     -15.668   4.362  30.669  0.00  0.00    +0.008 A 
ATOM     27  C   UNL     1     -13.294   3.372  31.749  0.00  0.00    +0.046 A 
ATOM     28  C   UNL     1     -15.114   3.183  30.171  0.00  0.00    +0.046 A 
ATOM     29  C   UNL     1     -13.927   2.688  30.710  0.00  0.00    +0.120 A 
BRANCH  29   1
ATOM      1  O   UNL     1     -13.387   1.537  30.225  0.00  0.00    -0.495 OA
ATOM     30  C   UNL     1     -14.295   0.531  29.779  0.00  0.00    +0.277 C 
ENDBRANCH  29   1
ENDBRANCH  23  24
ENDBRANCH   4  23
ENDBRANCH  14   4
ENDBRANCH   8  14
TORSDOF 7
ENDMDL
MODEL 10
REMARK VINA RESULT:      -5.4     28.128     30.320
REMARK  Name = 44716346
REMARK  9 active torsions:
REMARK  status: ('A' for Active; 'I' for Inactive)
REMARK    1  A    between atoms: O_1  and  C_29
REMARK    2  A    between atoms: O_1  and  C_30
REMARK    3  A    between atoms: N_3  and  C_22
REMARK    4  A    between atoms: N_4  and  C_14
REMARK    5  A    between atoms: N_4  and  C_23
REMARK    6  A    between atoms: C_7  and  C_13
REMARK    7  A    between atoms: C_8  and  C_14
REMARK    8  A    between atoms: C_16  and  C_17
REMARK    9  A    between atoms: C_23  and  C_24
REMARK                            x       y       z     vdW  Elec       q    Type
REMARK                         _______ _______ _______ _____ _____    ______ ____
ROOT
ATOM      2  N   UNL     1      -6.329 -10.967  10.382  0.00  0.00    -0.298 NA
ATOM      6  C   UNL     1      -4.555  -9.309  11.322  0.00  0.00    +0.002 C 
ATOM      7  C   UNL     1      -4.355 -10.724  11.933  0.00  0.00    +0.055 C 
ATOM      8  C   UNL     1      -6.996  -9.730  10.866  0.00  0.00    +0.071 C 
ATOM      9  C   UNL     1      -5.991  -8.826  11.613  0.00  0.00    +0.024 C 
ATOM     10  C   UNL     1      -5.563 -11.596  11.485  0.00  0.00    +0.094 C 
ATOM     11  C   UNL     1      -4.429  -9.464   9.791  0.00  0.00    +0.019 C 
ATOM     12  C   UNL     1      -5.374 -10.580   9.316  0.00  0.00    +0.085 C 
ENDROOT
BRANCH   7  13
ATOM      3  N   UNL     1      -3.000 -11.467  13.947  0.00  0.00    -0.271 N 
ATOM      5  N   UNL     1      -2.950 -11.449  15.290  0.00  0.00    -0.176 NA
ATOM     13  C   UNL     1      -4.090 -10.830  13.428  0.00  0.00    +0.044 A 
ATOM     15  C   UNL     1      -4.800 -10.363  14.506  0.00  0.00    +0.048 A 
ATOM     17  C   UNL     1      -4.051 -10.773  15.626  0.00  0.00    +0.066 A 
ATOM     22  C   UNL     1      -1.949 -12.130  13.210  0.00  0.00    +0.172 C 
BRANCH  17  16
ATOM     16  C   UNL     1      -4.366 -10.528  17.085  0.00  0.00    +0.040 C 
ATOM     18  C   UNL     1      -5.799 -10.008  17.298  0.00  0.00    +0.010 C 
ATOM     19  C   UNL     1      -4.236 -11.774  17.986  0.00  0.00    +0.010 C 
ATOM     20  C   UNL     1      -6.246 -10.635  18.610  0.00  0.00    +0.001 C 
ATOM     21  C   UNL     1      -5.628 -12.022  18.554  0.00  0.00    +0.001 C 
ENDBRANCH  17  16
ENDBRANCH   7  13
BRANCH   8  14
ATOM     14  C   UNL     1      -8.234 -10.029  11.716  0.00  0.00    +0.100 C 
BRANCH  14   4
ATOM      4  N   UNL     1      -7.970  -9.769  13.121  0.00  0.00    -0.311 NA
ATOM     31  H   UNL     1      -8.589  -9.022  13.440  0.00  0.00    +0.122 HD
BRANCH   4  23
ATOM     23  C   UNL     1      -8.207 -10.960  13.928  0.00  0.00    +0.116 C 
BRANCH  23  24
ATOM     24  C   UNL     1      -8.789 -10.618  15.274  0.00  0.00    -0.033 A 
ATOM     25  C   UNL     1      -9.121 -11.635  16.168  0.00  0.00    +0.008 A 
ATOM     26  C   UNL     1      -8.995  -9.285  15.625  0.00  0.00    +0.008 A 
ATOM     27  C   UNL     1      -9.660 -11.319  17.415  0.00  0.00    +0.046 A 
ATOM     28  C   UNL     1      -9.533  -8.968  16.872  0.00  0.00    +0.046 A 
ATOM     29  C   UNL     1      -9.866  -9.984  17.767  0.00  0.00    +0.120 A 
BRANCH  29   1
ATOM      1  O   UNL     1     -10.391  -9.675  18.984  0.00  0.00    -0.495 OA
ATOM     30  C   UNL     1     -10.334 -10.685  19.991  0.00  0.00    +0.277 C 
ENDBRANCH  29   1
ENDBRANCH  23  24
ENDBRANCH   4  23
ENDBRANCH  14   4
ENDBRANCH   8  14
TORSDOF 7
ENDMDL
