MODEL 1
REMARK VINA RESULT:      -6.3      0.000      0.000
REMARK  Name = 45784002
REMARK  13 active torsions:
REMARK  status: ('A' for Active; 'I' for Inactive)
REMARK    1  A    between atoms: N_2  and  C_13
REMARK    2  A    between atoms: N_2  and  C_19
REMARK    3  A    between atoms: C_6  and  C_10
REMARK    4  A    between atoms: C_7  and  C_13
REMARK    5  A    between atoms: C_9  and  C_14
REMARK    6  A    between atoms: C_10  and  C_15
REMARK    7  A    between atoms: C_10  and  C_16
REMARK    8  A    between atoms: C_11  and  C_17
REMARK    9  A    between atoms: C_14  and  C_18
REMARK   10  A    between atoms: C_19  and  C_20
REMARK   11  A    between atoms: C_21  and  C_22
REMARK   12  A    between atoms: C_22  and  C_25
REMARK   13  A    between atoms: C_25  and  C_27
REMARK                            x       y       z     vdW  Elec       q    Type
REMARK                         _______ _______ _______ _____ _____    ______ ____
ROOT
ATOM      6  C   UNL     1      13.341  10.179  21.762  0.00  0.00    +0.000 C 
ATOM      7  C   UNL     1      11.885   9.987  21.280  0.00  0.00    +0.029 C 
ATOM      8  C   UNL     1      14.079   8.833  21.795  0.00  0.00    +0.012 C 
ATOM      9  C   UNL     1      14.081   8.103  20.434  0.00  0.00    +0.024 C 
ATOM     11  C   UNL     1      12.758   8.222  19.693  0.00  0.00    -0.073 C 
ATOM     12  C   UNL     1      11.785   9.061  20.094  0.00  0.00    -0.023 C 
ATOM     17  C   UNL     1      12.586   7.405  18.443  0.00  0.00    +0.039 C 
ENDROOT
BRANCH   6  10
ATOM     10  C   UNL     1      14.088  11.200  20.893  0.00  0.00    -0.013 C 
ATOM     15  C   UNL     1      15.403  11.601  21.554  0.00  0.00    +0.007 C 
ATOM     16  C   UNL     1      13.214  12.425  20.642  0.00  0.00    +0.007 C 
ENDBRANCH   6  10
BRANCH   7  13
ATOM     13  C   UNL     1      10.982   9.466  22.403  0.00  0.00    +0.089 C 
BRANCH  13   2
ATOM      2  N   UNL     1      10.246  10.557  23.017  0.00  0.00    -0.311 NA
ATOM     29  H   UNL     1       9.326  10.216  23.300  0.00  0.00    +0.122 HD
BRANCH   2  19
ATOM     19  C   UNL     1      10.945  11.067  24.191  0.00  0.00    +0.117 C 
BRANCH  19  20
ATOM      5  N   UNL     1      10.639  14.489  25.781  0.00  0.00    -0.263 NA
ATOM     20  C   UNL     1      10.783  12.558  24.334  0.00  0.00    -0.016 A 
ATOM     23  C   UNL     1      10.631  13.373  23.219  0.00  0.00    +0.008 A 
ATOM     24  C   UNL     1      10.781  13.160  25.582  0.00  0.00    +0.115 A 
ATOM     26  C   UNL     1      10.484  14.746  23.382  0.00  0.00    +0.020 A 
ATOM     28  C   UNL     1      10.493  15.249  24.673  0.00  0.00    +0.111 A 
ENDBRANCH  19  20
ENDBRANCH   2  19
ENDBRANCH  13   2
ENDBRANCH   7  13
BRANCH   9  14
ATOM     14  C   UNL     1      14.509   6.647  20.660  0.00  0.00    +0.105 C 
BRANCH  14  18
ATOM      1  O   UNL     1      16.932   6.523  20.917  0.00  0.00    -0.425 OA
ATOM      3  N   UNL     1      16.203   6.018  18.864  0.00  0.00    -0.112 NA
ATOM      4  N   UNL     1      17.581   5.907  18.866  0.00  0.00    -0.112 NA
ATOM     18  C   UNL     1      15.869   6.379  20.081  0.00  0.00    +0.218 A 
ATOM     21  C   UNL     1      17.964   6.211  20.085  0.00  0.00    +0.217 A 
BRANCH  21  22
ATOM     22  C   UNL     1      19.315   6.256  20.657  0.00  0.00    +0.097 C 
BRANCH  22  25
ATOM     25  C   UNL     1      19.369   6.977  22.021  0.00  0.00    +0.006 C 
ATOM     27  C   UNL     1      20.001   8.358  21.931  0.00  0.00    +0.004 C 
ENDBRANCH  22  25
ENDBRANCH  21  22
ENDBRANCH  14  18
ENDBRANCH   9  14
TORSDOF 9
ENDMDL
MODEL 2
REMARK VINA RESULT:      -6.3      2.250      5.441
REMARK  Name = 45784002
REMARK  13 active torsions:
REMARK  status: ('A' for Active; 'I' for Inactive)
REMARK    1  A    between atoms: N_2  and  C_13
REMARK    2  A    between atoms: N_2  and  C_19
REMARK    3  A    between atoms: C_6  and  C_10
REMARK    4  A    between atoms: C_7  and  C_13
REMARK    5  A    between atoms: C_9  and  C_14
REMARK    6  A    between atoms: C_10  and  C_15
REMARK    7  A    between atoms: C_10  and  C_16
REMARK    8  A    between atoms: C_11  and  C_17
REMARK    9  A    between atoms: C_14  and  C_18
REMARK   10  A    between atoms: C_19  and  C_20
REMARK   11  A    between atoms: C_21  and  C_22
REMARK   12  A    between atoms: C_22  and  C_25
REMARK   13  A    between atoms: C_25  and  C_27
REMARK                            x       y       z     vdW  Elec       q    Type
REMARK                         _______ _______ _______ _____ _____    ______ ____
ROOT
ATOM      6  C   UNL     1      11.879  13.018  24.176  0.00  0.00    +0.000 C 
ATOM      7  C   UNL     1      10.971  12.150  23.275  0.00  0.00    +0.029 C 
ATOM      8  C   UNL     1      13.356  12.799  23.822  0.00  0.00    +0.012 C 
ATOM      9  C   UNL     1      13.679  13.086  22.339  0.00  0.00    +0.024 C 
ATOM     11  C   UNL     1      12.594  12.601  21.390  0.00  0.00    -0.073 C 
ATOM     12  C   UNL     1      11.395  12.176  21.828  0.00  0.00    -0.023 C 
ATOM     17  C   UNL     1      12.880  12.668  19.915  0.00  0.00    +0.039 C 
ENDROOT
BRANCH   6  10
ATOM     10  C   UNL     1      11.502  14.503  24.086  0.00  0.00    -0.013 C 
ATOM     15  C   UNL     1      12.199  15.298  25.185  0.00  0.00    +0.007 C 
ATOM     16  C   UNL     1       9.988  14.673  24.173  0.00  0.00    +0.007 C 
ENDBRANCH   6  10
BRANCH   7  13
ATOM     13  C   UNL     1      10.919  10.697  23.758  0.00  0.00    +0.089 C 
BRANCH  13   2
ATOM      2  N   UNL     1      11.732   9.844  22.909  0.00  0.00    -0.311 NA
ATOM     29  H   UNL     1      12.517   9.487  23.455  0.00  0.00    +0.122 HD
BRANCH   2  19
ATOM     19  C   UNL     1      10.957   8.718  22.400  0.00  0.00    +0.117 C 
BRANCH  19  20
ATOM      5  N   UNL     1      12.222   6.452  19.643  0.00  0.00    -0.263 NA
ATOM     20  C   UNL     1      11.454   8.259  21.054  0.00  0.00    -0.016 A 
ATOM     23  C   UNL     1      11.610   9.156  20.004  0.00  0.00    +0.008 A 
ATOM     24  C   UNL     1      11.770   6.929  20.825  0.00  0.00    +0.115 A 
ATOM     26  C   UNL     1      12.071   8.703  18.773  0.00  0.00    +0.020 A 
ATOM     28  C   UNL     1      12.361   7.355  18.646  0.00  0.00    +0.111 A 
ENDBRANCH  19  20
ENDBRANCH   2  19
ENDBRANCH  13   2
ENDBRANCH   7  13
BRANCH   9  14
ATOM     14  C   UNL     1      15.059  12.499  22.016  0.00  0.00    +0.105 C 
BRANCH  14  18
ATOM      1  O   UNL     1      15.403  10.413  20.800  0.00  0.00    -0.425 OA
ATOM      3  N   UNL     1      14.663  10.139  22.893  0.00  0.00    -0.112 NA
ATOM      4  N   UNL     1      14.812   8.887  22.326  0.00  0.00    -0.112 NA
ATOM     18  C   UNL     1      15.019  10.998  21.966  0.00  0.00    +0.218 A 
ATOM     21  C   UNL     1      15.247   9.095  21.104  0.00  0.00    +0.217 A 
BRANCH  21  22
ATOM     22  C   UNL     1      15.579   8.126  20.053  0.00  0.00    +0.097 C 
BRANCH  22  25
ATOM     25  C   UNL     1      16.632   7.089  20.500  0.00  0.00    +0.006 C 
ATOM     27  C   UNL     1      17.924   7.732  20.981  0.00  0.00    +0.004 C 
ENDBRANCH  22  25
ENDBRANCH  21  22
ENDBRANCH  14  18
ENDBRANCH   9  14
TORSDOF 9
ENDMDL
MODEL 3
REMARK VINA RESULT:      -6.2      2.384      4.016
REMARK  Name = 45784002
REMARK  13 active torsions:
REMARK  status: ('A' for Active; 'I' for Inactive)
REMARK    1  A    between atoms: N_2  and  C_13
REMARK    2  A    between atoms: N_2  and  C_19
REMARK    3  A    between atoms: C_6  and  C_10
REMARK    4  A    between atoms: C_7  and  C_13
REMARK    5  A    between atoms: C_9  and  C_14
REMARK    6  A    between atoms: C_10  and  C_15
REMARK    7  A    between atoms: C_10  and  C_16
REMARK    8  A    between atoms: C_11  and  C_17
REMARK    9  A    between atoms: C_14  and  C_18
REMARK   10  A    between atoms: C_19  and  C_20
REMARK   11  A    between atoms: C_21  and  C_22
REMARK   12  A    between atoms: C_22  and  C_25
REMARK   13  A    between atoms: C_25  and  C_27
REMARK                            x       y       z     vdW  Elec       q    Type
REMARK                         _______ _______ _______ _____ _____    ______ ____
ROOT
ATOM      6  C   UNL     1      14.997   8.781  20.491  0.00  0.00    +0.000 C 
ATOM      7  C   UNL     1      14.241   7.665  19.733  0.00  0.00    +0.029 C 
ATOM      8  C   UNL     1      16.159   8.189  21.301  0.00  0.00    +0.012 C 
ATOM      9  C   UNL     1      17.158   7.386  20.439  0.00  0.00    +0.024 C 
ATOM     11  C   UNL     1      16.478   6.548  19.367  0.00  0.00    -0.073 C 
ATOM     12  C   UNL     1      15.172   6.679  19.075  0.00  0.00    -0.023 C 
ATOM     17  C   UNL     1      17.336   5.591  18.586  0.00  0.00    +0.039 C 
ENDROOT
BRANCH   6  10
ATOM     10  C   UNL     1      15.488   9.875  19.533  0.00  0.00    -0.013 C 
ATOM     15  C   UNL     1      15.982  11.086  20.317  0.00  0.00    +0.007 C 
ATOM     16  C   UNL     1      14.377  10.272  18.566  0.00  0.00    +0.007 C 
ENDBRANCH   6  10
BRANCH   7  13
ATOM     13  C   UNL     1      13.276   6.910  20.653  0.00  0.00    +0.089 C 
BRANCH  13   2
ATOM      2  N   UNL     1      11.908   7.045  20.185  0.00  0.00    -0.311 NA
ATOM     29  H   UNL     1      11.616   6.163  19.761  0.00  0.00    +0.122 HD
BRANCH   2  19
ATOM     19  C   UNL     1      11.005   7.365  21.286  0.00  0.00    +0.117 C 
BRANCH  19  20
ATOM      5  N   UNL     1      10.934  10.462  23.463  0.00  0.00    -0.263 NA
ATOM     20  C   UNL     1      11.134   8.803  21.715  0.00  0.00    -0.016 A 
ATOM     23  C   UNL     1      11.553   9.782  20.823  0.00  0.00    +0.008 A 
ATOM     24  C   UNL     1      10.840   9.190  23.013  0.00  0.00    +0.115 A 
ATOM     26  C   UNL     1      11.663  11.102  21.248  0.00  0.00    +0.020 A 
ATOM     28  C   UNL     1      11.343  11.387  22.565  0.00  0.00    +0.111 A 
ENDBRANCH  19  20
ENDBRANCH   2  19
ENDBRANCH  13   2
ENDBRANCH   7  13
BRANCH   9  14
ATOM     14  C   UNL     1      18.049   6.555  21.371  0.00  0.00    +0.105 C 
BRANCH  14  18
ATOM      1  O   UNL     1      20.026   7.974  21.198  0.00  0.00    -0.425 OA
ATOM      3  N   UNL     1      20.374   5.846  20.604  0.00  0.00    -0.112 NA
ATOM      4  N   UNL     1      21.567   6.529  20.458  0.00  0.00    -0.112 NA
ATOM     18  C   UNL     1      19.504   6.728  21.037  0.00  0.00    +0.218 A 
ATOM     21  C   UNL     1      21.317   7.768  20.817  0.00  0.00    +0.217 A 
BRANCH  21  22
ATOM     22  C   UNL     1      22.216   8.927  20.863  0.00  0.00    +0.097 C 
BRANCH  22  25
ATOM     25  C   UNL     1      23.222   8.958  19.691  0.00  0.00    +0.006 C 
ATOM     27  C   UNL     1      22.904  10.042  18.673  0.00  0.00    +0.004 C 
ENDBRANCH  22  25
ENDBRANCH  21  22
ENDBRANCH  14  18
ENDBRANCH   9  14
TORSDOF 9
ENDMDL
MODEL 4
REMARK VINA RESULT:      -6.2      2.302      3.816
REMARK  Name = 45784002
REMARK  13 active torsions:
REMARK  status: ('A' for Active; 'I' for Inactive)
REMARK    1  A    between atoms: N_2  and  C_13
REMARK    2  A    between atoms: N_2  and  C_19
REMARK    3  A    between atoms: C_6  and  C_10
REMARK    4  A    between atoms: C_7  and  C_13
REMARK    5  A    between atoms: C_9  and  C_14
REMARK    6  A    between atoms: C_10  and  C_15
REMARK    7  A    between atoms: C_10  and  C_16
REMARK    8  A    between atoms: C_11  and  C_17
REMARK    9  A    between atoms: C_14  and  C_18
REMARK   10  A    between atoms: C_19  and  C_20
REMARK   11  A    between atoms: C_21  and  C_22
REMARK   12  A    between atoms: C_22  and  C_25
REMARK   13  A    between atoms: C_25  and  C_27
REMARK                            x       y       z     vdW  Elec       q    Type
REMARK                         _______ _______ _______ _____ _____    ______ ____
ROOT
ATOM      6  C   UNL     1      14.528   8.797  19.975  0.00  0.00    +0.000 C 
ATOM      7  C   UNL     1      13.994   7.720  19.002  0.00  0.00    +0.029 C 
ATOM      8  C   UNL     1      15.456   8.164  21.021  0.00  0.00    +0.012 C 
ATOM      9  C   UNL     1      16.645   7.398  20.401  0.00  0.00    +0.024 C 
ATOM     11  C   UNL     1      16.261   6.612  19.156  0.00  0.00    -0.073 C 
ATOM     12  C   UNL     1      15.068   6.762  18.553  0.00  0.00    -0.023 C 
ATOM     17  C   UNL     1      17.294   5.689  18.572  0.00  0.00    +0.039 C 
ENDROOT
BRANCH   6  10
ATOM     10  C   UNL     1      15.235   9.932  19.221  0.00  0.00    -0.013 C 
ATOM     15  C   UNL     1      15.618  11.052  20.182  0.00  0.00    +0.007 C 
ATOM     16  C   UNL     1      14.345  10.460  18.100  0.00  0.00    +0.007 C 
ENDBRANCH   6  10
BRANCH   7  13
ATOM     13  C   UNL     1      12.836   6.927  19.616  0.00  0.00    +0.089 C 
BRANCH  13   2
ATOM      2  N   UNL     1      11.619   7.719  19.624  0.00  0.00    -0.311 NA
ATOM     29  H   UNL     1      10.942   7.289  18.991  0.00  0.00    +0.122 HD
BRANCH   2  19
ATOM     19  C   UNL     1      11.042   7.784  20.962  0.00  0.00    +0.117 C 
BRANCH  19  20
ATOM      5  N   UNL     1      10.858  10.625  23.458  0.00  0.00    -0.263 NA
ATOM     20  C   UNL     1      11.165   9.162  21.558  0.00  0.00    -0.016 A 
ATOM     23  C   UNL     1      11.674  10.220  20.815  0.00  0.00    +0.008 A 
ATOM     24  C   UNL     1      10.775   9.413  22.863  0.00  0.00    +0.115 A 
ATOM     26  C   UNL     1      11.776  11.482  21.391  0.00  0.00    +0.020 A 
ATOM     28  C   UNL     1      11.357  11.630  22.704  0.00  0.00    +0.111 A 
ENDBRANCH  19  20
ENDBRANCH   2  19
ENDBRANCH  13   2
ENDBRANCH   7  13
BRANCH   9  14
ATOM     14  C   UNL     1      17.281   6.521  21.487  0.00  0.00    +0.105 C 
BRANCH  14  18
ATOM      1  O   UNL     1      19.412   6.145  22.615  0.00  0.00    -0.425 OA
ATOM      3  N   UNL     1      19.390   7.936  21.275  0.00  0.00    -0.112 NA
ATOM      4  N   UNL     1      20.647   7.843  21.844  0.00  0.00    -0.112 NA
ATOM     18  C   UNL     1      18.704   6.924  21.754  0.00  0.00    +0.218 A 
ATOM     21  C   UNL     1      20.614   6.783  22.618  0.00  0.00    +0.217 A 
BRANCH  21  22
ATOM     22  C   UNL     1      21.669   6.208  23.461  0.00  0.00    +0.097 C 
BRANCH  22  25
ATOM     25  C   UNL     1      21.981   7.067  24.706  0.00  0.00    +0.006 C 
ATOM     27  C   UNL     1      20.736   7.420  25.503  0.00  0.00    +0.004 C 
ENDBRANCH  22  25
ENDBRANCH  21  22
ENDBRANCH  14  18
ENDBRANCH   9  14
TORSDOF 9
ENDMDL
MODEL 5
REMARK VINA RESULT:      -6.1     26.938     29.607
REMARK  Name = 45784002
REMARK  13 active torsions:
REMARK  status: ('A' for Active; 'I' for Inactive)
REMARK    1  A    between atoms: N_2  and  C_13
REMARK    2  A    between atoms: N_2  and  C_19
REMARK    3  A    between atoms: C_6  and  C_10
REMARK    4  A    between atoms: C_7  and  C_13
REMARK    5  A    between atoms: C_9  and  C_14
REMARK    6  A    between atoms: C_10  and  C_15
REMARK    7  A    between atoms: C_10  and  C_16
REMARK    8  A    between atoms: C_11  and  C_17
REMARK    9  A    between atoms: C_14  and  C_18
REMARK   10  A    between atoms: C_19  and  C_20
REMARK   11  A    between atoms: C_21  and  C_22
REMARK   12  A    between atoms: C_22  and  C_25
REMARK   13  A    between atoms: C_25  and  C_27
REMARK                            x       y       z     vdW  Elec       q    Type
REMARK                         _______ _______ _______ _____ _____    ______ ____
ROOT
ATOM      6  C   UNL     1      -3.805 -12.058  12.274  0.00  0.00    +0.000 C 
ATOM      7  C   UNL     1      -2.890 -11.445  13.360  0.00  0.00    +0.029 C 
ATOM      8  C   UNL     1      -4.286 -10.973  11.302  0.00  0.00    +0.012 C 
ATOM      9  C   UNL     1      -3.132 -10.202  10.625  0.00  0.00    +0.024 C 
ATOM     11  C   UNL     1      -1.976  -9.912  11.570  0.00  0.00    -0.073 C 
ATOM     12  C   UNL     1      -1.892 -10.468  12.792  0.00  0.00    -0.023 C 
ATOM     17  C   UNL     1      -0.877  -9.015  11.070  0.00  0.00    +0.039 C 
ENDROOT
BRANCH   6  10
ATOM     10  C   UNL     1      -3.101 -13.199  11.528  0.00  0.00    -0.013 C 
ATOM     15  C   UNL     1      -4.060 -13.864  10.546  0.00  0.00    +0.007 C 
ATOM     16  C   UNL     1      -2.548 -14.220  12.518  0.00  0.00    +0.007 C 
ENDBRANCH   6  10
BRANCH   7  13
ATOM     13  C   UNL     1      -3.702 -10.754  14.460  0.00  0.00    +0.089 C 
BRANCH  13   2
ATOM      2  N   UNL     1      -3.982 -11.676  15.547  0.00  0.00    -0.311 NA
ATOM     29  H   UNL     1      -3.444 -12.531  15.401  0.00  0.00    +0.122 HD
BRANCH   2  19
ATOM     19  C   UNL     1      -3.614 -11.097  16.834  0.00  0.00    +0.117 C 
BRANCH  19  20
ATOM      5  N   UNL     1      -7.057 -10.183  18.117  0.00  0.00    -0.263 NA
ATOM     20  C   UNL     1      -4.801 -10.974  17.753  0.00  0.00    -0.016 A 
ATOM     23  C   UNL     1      -4.772 -11.504  19.037  0.00  0.00    +0.008 A 
ATOM     24  C   UNL     1      -5.957 -10.328  17.344  0.00  0.00    +0.115 A 
ATOM     26  C   UNL     1      -5.883 -11.376  19.863  0.00  0.00    +0.020 A 
ATOM     28  C   UNL     1      -6.990 -10.711  19.360  0.00  0.00    +0.111 A 
ENDBRANCH  19  20
ENDBRANCH   2  19
ENDBRANCH  13   2
ENDBRANCH   7  13
BRANCH   9  14
ATOM     14  C   UNL     1      -3.703  -8.935   9.975  0.00  0.00    +0.105 C 
BRANCH  14  18
ATOM      1  O   UNL     1      -4.359 -10.105   7.937  0.00  0.00    -0.425 OA
ATOM      3  N   UNL     1      -5.988  -8.872   8.849  0.00  0.00    -0.112 NA
ATOM      4  N   UNL     1      -6.494  -9.474   7.711  0.00  0.00    -0.112 NA
ATOM     18  C   UNL     1      -4.740  -9.269   8.941  0.00  0.00    +0.218 A 
ATOM     21  C   UNL     1      -5.509 -10.184   7.212  0.00  0.00    +0.217 A 
BRANCH  21  22
ATOM     22  C   UNL     1      -5.480 -11.030   6.012  0.00  0.00    +0.097 C 
BRANCH  22  25
ATOM     25  C   UNL     1      -4.396 -12.127   6.073  0.00  0.00    +0.006 C 
ATOM     27  C   UNL     1      -3.570 -12.209   4.799  0.00  0.00    +0.004 C 
ENDBRANCH  22  25
ENDBRANCH  21  22
ENDBRANCH  14  18
ENDBRANCH   9  14
TORSDOF 9
ENDMDL
MODEL 6
REMARK VINA RESULT:      -6.0     27.184     30.062
REMARK  Name = 45784002
REMARK  13 active torsions:
REMARK  status: ('A' for Active; 'I' for Inactive)
REMARK    1  A    between atoms: N_2  and  C_13
REMARK    2  A    between atoms: N_2  and  C_19
REMARK    3  A    between atoms: C_6  and  C_10
REMARK    4  A    between atoms: C_7  and  C_13
REMARK    5  A    between atoms: C_9  and  C_14
REMARK    6  A    between atoms: C_10  and  C_15
REMARK    7  A    between atoms: C_10  and  C_16
REMARK    8  A    between atoms: C_11  and  C_17
REMARK    9  A    between atoms: C_14  and  C_18
REMARK   10  A    between atoms: C_19  and  C_20
REMARK   11  A    between atoms: C_21  and  C_22
REMARK   12  A    between atoms: C_22  and  C_25
REMARK   13  A    between atoms: C_25  and  C_27
REMARK                            x       y       z     vdW  Elec       q    Type
REMARK                         _______ _______ _______ _____ _____    ______ ____
ROOT
ATOM      6  C   UNL     1      -4.474 -10.576  17.430  0.00  0.00    +0.000 C 
ATOM      7  C   UNL     1      -3.478 -11.417  16.599  0.00  0.00    +0.029 C 
ATOM      8  C   UNL     1      -5.548  -9.961  16.521  0.00  0.00    +0.012 C 
ATOM      9  C   UNL     1      -6.326 -11.011  15.697  0.00  0.00    +0.024 C 
ATOM     11  C   UNL     1      -5.439 -12.130  15.171  0.00  0.00    -0.073 C 
ATOM     12  C   UNL     1      -4.166 -12.287  15.577  0.00  0.00    -0.023 C 
ATOM     17  C   UNL     1      -6.054 -13.110  14.210  0.00  0.00    +0.039 C 
ENDROOT
BRANCH   6  10
ATOM     10  C   UNL     1      -5.108 -11.406  18.554  0.00  0.00    -0.013 C 
ATOM     15  C   UNL     1      -5.968 -10.522  19.450  0.00  0.00    +0.007 C 
ATOM     16  C   UNL     1      -4.026 -12.111  19.367  0.00  0.00    +0.007 C 
ENDBRANCH   6  10
BRANCH   7  13
ATOM     13  C   UNL     1      -2.443 -10.535  15.893  0.00  0.00    +0.089 C 
BRANCH  13   2
ATOM      2  N   UNL     1      -1.861 -11.232  14.760  0.00  0.00    -0.311 NA
ATOM     29  H   UNL     1      -2.394 -12.087  14.590  0.00  0.00    +0.122 HD
BRANCH   2  19
ATOM     19  C   UNL     1      -1.898 -10.404  13.559  0.00  0.00    +0.117 C 
BRANCH  19  20
ATOM      5  N   UNL     1      -3.600 -12.542  10.939  0.00  0.00    -0.263 NA
ATOM     20  C   UNL     1      -2.926 -10.893  12.573  0.00  0.00    -0.016 A 
ATOM     23  C   UNL     1      -4.113 -10.198  12.372  0.00  0.00    +0.008 A 
ATOM     24  C   UNL     1      -2.719 -12.049  11.839  0.00  0.00    +0.115 A 
ATOM     26  C   UNL     1      -5.045 -10.673  11.456  0.00  0.00    +0.020 A 
ATOM     28  C   UNL     1      -4.742 -11.838  10.770  0.00  0.00    +0.111 A 
ENDBRANCH  19  20
ENDBRANCH   2  19
ENDBRANCH  13   2
ENDBRANCH   7  13
BRANCH   9  14
ATOM     14  C   UNL     1      -7.097 -10.288  14.585  0.00  0.00    +0.105 C 
BRANCH  14  18
ATOM      1  O   UNL     1      -8.571  -9.016  16.055  0.00  0.00    -0.425 OA
ATOM      3  N   UNL     1      -9.644 -10.313  14.583  0.00  0.00    -0.112 NA
ATOM      4  N   UNL     1     -10.594  -9.656  15.344  0.00  0.00    -0.112 NA
ATOM     18  C   UNL     1      -8.480  -9.909  15.033  0.00  0.00    +0.218 A 
ATOM     21  C   UNL     1      -9.921  -8.910  16.190  0.00  0.00    +0.217 A 
BRANCH  21  22
ATOM     22  C   UNL     1     -10.415  -8.000  17.231  0.00  0.00    +0.097 C 
BRANCH  22  25
ATOM     25  C   UNL     1     -11.317  -6.878  16.673  0.00  0.00    +0.006 C 
ATOM     27  C   UNL     1     -10.663  -6.109  15.535  0.00  0.00    +0.004 C 
ENDBRANCH  22  25
ENDBRANCH  21  22
ENDBRANCH  14  18
ENDBRANCH   9  14
TORSDOF 9
ENDMDL
MODEL 7
REMARK VINA RESULT:      -6.0     26.667     29.488
REMARK  Name = 45784002
REMARK  13 active torsions:
REMARK  status: ('A' for Active; 'I' for Inactive)
REMARK    1  A    between atoms: N_2  and  C_13
REMARK    2  A    between atoms: N_2  and  C_19
REMARK    3  A    between atoms: C_6  and  C_10
REMARK    4  A    between atoms: C_7  and  C_13
REMARK    5  A    between atoms: C_9  and  C_14
REMARK    6  A    between atoms: C_10  and  C_15
REMARK    7  A    between atoms: C_10  and  C_16
REMARK    8  A    between atoms: C_11  and  C_17
REMARK    9  A    between atoms: C_14  and  C_18
REMARK   10  A    between atoms: C_19  and  C_20
REMARK   11  A    between atoms: C_21  and  C_22
REMARK   12  A    between atoms: C_22  and  C_25
REMARK   13  A    between atoms: C_25  and  C_27
REMARK                            x       y       z     vdW  Elec       q    Type
REMARK                         _______ _______ _______ _____ _____    ______ ____
ROOT
ATOM      6  C   UNL     1      -4.051 -11.963  12.054  0.00  0.00    +0.000 C 
ATOM      7  C   UNL     1      -3.260 -11.425  13.269  0.00  0.00    +0.029 C 
ATOM      8  C   UNL     1      -4.313 -10.837  11.043  0.00  0.00    +0.012 C 
ATOM      9  C   UNL     1      -3.024 -10.144  10.551  0.00  0.00    +0.024 C 
ATOM     11  C   UNL     1      -1.998  -9.944  11.656  0.00  0.00    -0.073 C 
ATOM     12  C   UNL     1      -2.127 -10.515  12.867  0.00  0.00    -0.023 C 
ATOM     17  C   UNL     1      -0.780  -9.123  11.332  0.00  0.00    +0.039 C 
ENDROOT
BRANCH   6  10
ATOM     10  C   UNL     1      -3.328 -13.144  11.394  0.00  0.00    -0.013 C 
ATOM     15  C   UNL     1      -4.222 -13.796  10.344  0.00  0.00    +0.007 C 
ATOM     16  C   UNL     1      -2.900 -14.161  12.448  0.00  0.00    +0.007 C 
ENDBRANCH   6  10
BRANCH   7  13
ATOM     13  C   UNL     1      -4.172 -10.688  14.256  0.00  0.00    +0.089 C 
BRANCH  13   2
ATOM      2  N   UNL     1      -3.434 -10.299  15.445  0.00  0.00    -0.311 NA
ATOM     29  H   UNL     1      -3.864  -9.461  15.840  0.00  0.00    +0.122 HD
BRANCH   2  19
ATOM     19  C   UNL     1      -3.453 -11.360  16.446  0.00  0.00    +0.117 C 
BRANCH  19  20
ATOM      5  N   UNL     1      -6.616 -10.109  18.109  0.00  0.00    -0.263 NA
ATOM     20  C   UNL     1      -4.509 -11.122  17.493  0.00  0.00    -0.016 A 
ATOM     23  C   UNL     1      -4.385 -11.658  18.770  0.00  0.00    +0.008 A 
ATOM     24  C   UNL     1      -5.633 -10.361  17.215  0.00  0.00    +0.115 A 
ATOM     26  C   UNL     1      -5.375 -11.421  19.717  0.00  0.00    +0.020 A 
ATOM     28  C   UNL     1      -6.460 -10.646  19.340  0.00  0.00    +0.111 A 
ENDBRANCH  19  20
ENDBRANCH   2  19
ENDBRANCH  13   2
ENDBRANCH   7  13
BRANCH   9  14
ATOM     14  C   UNL     1      -3.409  -8.835   9.850  0.00  0.00    +0.105 C 
BRANCH  14  18
ATOM      1  O   UNL     1      -5.739  -8.197   9.509  0.00  0.00    -0.425 OA
ATOM      3  N   UNL     1      -4.997  -9.748   8.079  0.00  0.00    -0.112 NA
ATOM      4  N   UNL     1      -6.320  -9.485   7.773  0.00  0.00    -0.112 NA
ATOM     18  C   UNL     1      -4.702  -8.975   9.097  0.00  0.00    +0.218 A 
ATOM     21  C   UNL     1      -6.712  -8.573   8.634  0.00  0.00    +0.217 A 
BRANCH  21  22
ATOM     22  C   UNL     1      -8.019  -7.921   8.773  0.00  0.00    +0.097 C 
BRANCH  22  25
ATOM     25  C   UNL     1      -8.191  -6.706   7.836  0.00  0.00    +0.006 C 
ATOM     27  C   UNL     1      -8.889  -7.062   6.533  0.00  0.00    +0.004 C 
ENDBRANCH  22  25
ENDBRANCH  21  22
ENDBRANCH  14  18
ENDBRANCH   9  14
TORSDOF 9
ENDMDL
MODEL 8
REMARK VINA RESULT:      -5.9     27.366     29.897
REMARK  Name = 45784002
REMARK  13 active torsions:
REMARK  status: ('A' for Active; 'I' for Inactive)
REMARK    1  A    between atoms: N_2  and  C_13
REMARK    2  A    between atoms: N_2  and  C_19
REMARK    3  A    between atoms: C_6  and  C_10
REMARK    4  A    between atoms: C_7  and  C_13
REMARK    5  A    between atoms: C_9  and  C_14
REMARK    6  A    between atoms: C_10  and  C_15
REMARK    7  A    between atoms: C_10  and  C_16
REMARK    8  A    between atoms: C_11  and  C_17
REMARK    9  A    between atoms: C_14  and  C_18
REMARK   10  A    between atoms: C_19  and  C_20
REMARK   11  A    between atoms: C_21  and  C_22
REMARK   12  A    between atoms: C_22  and  C_25
REMARK   13  A    between atoms: C_25  and  C_27
REMARK                            x       y       z     vdW  Elec       q    Type
REMARK                         _______ _______ _______ _____ _____    ______ ____
ROOT
ATOM      6  C   UNL     1      -3.833 -12.068  13.021  0.00  0.00    +0.000 C 
ATOM      7  C   UNL     1      -2.434 -11.453  12.782  0.00  0.00    +0.029 C 
ATOM      8  C   UNL     1      -4.917 -10.983  12.950  0.00  0.00    +0.012 C 
ATOM      9  C   UNL     1      -4.919 -10.207  11.614  0.00  0.00    +0.024 C 
ATOM     11  C   UNL     1      -3.519  -9.914  11.095  0.00  0.00    -0.073 C 
ATOM     12  C   UNL     1      -2.421 -10.471  11.638  0.00  0.00    -0.023 C 
ATOM     17  C   UNL     1      -3.397  -9.013   9.897  0.00  0.00    +0.039 C 
ENDROOT
BRANCH   6  10
ATOM     10  C   UNL     1      -4.121 -13.206  12.032  0.00  0.00    -0.013 C 
ATOM     15  C   UNL     1      -5.390 -13.952  12.434  0.00  0.00    +0.007 C 
ATOM     16  C   UNL     1      -2.933 -14.160  11.959  0.00  0.00    +0.007 C 
ENDBRANCH   6  10
BRANCH   7  13
ATOM     13  C   UNL     1      -1.895 -10.767  14.041  0.00  0.00    +0.089 C 
BRANCH  13   2
ATOM      2  N   UNL     1      -2.073 -11.617  15.205  0.00  0.00    -0.311 NA
ATOM     29  H   UNL     1      -1.181 -12.063  15.427  0.00  0.00    +0.122 HD
BRANCH   2  19
ATOM     19  C   UNL     1      -2.516 -10.842  16.359  0.00  0.00    +0.117 C 
BRANCH  19  20
ATOM      5  N   UNL     1      -5.899 -12.371  17.101  0.00  0.00    -0.263 NA
ATOM     20  C   UNL     1      -4.000 -10.968  16.580  0.00  0.00    -0.016 A 
ATOM     23  C   UNL     1      -4.836  -9.861  16.481  0.00  0.00    +0.008 A 
ATOM     24  C   UNL     1      -4.576 -12.189  16.890  0.00  0.00    +0.115 A 
ATOM     26  C   UNL     1      -6.203 -10.007  16.691  0.00  0.00    +0.020 A 
ATOM     28  C   UNL     1      -6.680 -11.272  16.994  0.00  0.00    +0.111 A 
ENDBRANCH  19  20
ENDBRANCH   2  19
ENDBRANCH  13   2
ENDBRANCH   7  13
BRANCH   9  14
ATOM     14  C   UNL     1      -5.769  -8.942  11.785  0.00  0.00    +0.105 C 
BRANCH  14  18
ATOM      1  O   UNL     1      -6.913  -8.362   9.710  0.00  0.00    -0.425 OA
ATOM      3  N   UNL     1      -8.162  -9.539  11.145  0.00  0.00    -0.112 NA
ATOM      4  N   UNL     1      -8.929  -9.282  10.023  0.00  0.00    -0.112 NA
ATOM     18  C   UNL     1      -6.995  -8.983  10.917  0.00  0.00    +0.218 A 
ATOM     21  C   UNL     1      -8.159  -8.593   9.212  0.00  0.00    +0.217 A 
BRANCH  21  22
ATOM     22  C   UNL     1      -8.452  -8.055   7.878  0.00  0.00    +0.097 C 
BRANCH  22  25
ATOM     25  C   UNL     1      -8.149  -6.546   7.756  0.00  0.00    +0.006 C 
ATOM     27  C   UNL     1      -9.221  -5.677   8.394  0.00  0.00    +0.004 C 
ENDBRANCH  22  25
ENDBRANCH  21  22
ENDBRANCH  14  18
ENDBRANCH   9  14
TORSDOF 9
ENDMDL
MODEL 9
REMARK VINA RESULT:      -5.8     27.222     30.146
REMARK  Name = 45784002
REMARK  13 active torsions:
REMARK  status: ('A' for Active; 'I' for Inactive)
REMARK    1  A    between atoms: N_2  and  C_13
REMARK    2  A    between atoms: N_2  and  C_19
REMARK    3  A    between atoms: C_6  and  C_10
REMARK    4  A    between atoms: C_7  and  C_13
REMARK    5  A    between atoms: C_9  and  C_14
REMARK    6  A    between atoms: C_10  and  C_15
REMARK    7  A    between atoms: C_10  and  C_16
REMARK    8  A    between atoms: C_11  and  C_17
REMARK    9  A    between atoms: C_14  and  C_18
REMARK   10  A    between atoms: C_19  and  C_20
REMARK   11  A    between atoms: C_21  and  C_22
REMARK   12  A    between atoms: C_22  and  C_25
REMARK   13  A    between atoms: C_25  and  C_27
REMARK                            x       y       z     vdW  Elec       q    Type
REMARK                         _______ _______ _______ _____ _____    ______ ____
ROOT
ATOM      6  C   UNL     1      -4.468 -10.583  17.398  0.00  0.00    +0.000 C 
ATOM      7  C   UNL     1      -3.470 -11.428  16.572  0.00  0.00    +0.029 C 
ATOM      8  C   UNL     1      -5.539  -9.971  16.484  0.00  0.00    +0.012 C 
ATOM      9  C   UNL     1      -6.315 -11.023  15.661  0.00  0.00    +0.024 C 
ATOM     11  C   UNL     1      -5.427 -12.144  15.141  0.00  0.00    -0.073 C 
ATOM     12  C   UNL     1      -4.156 -12.300  15.551  0.00  0.00    -0.023 C 
ATOM     17  C   UNL     1      -6.040 -13.127  14.181  0.00  0.00    +0.039 C 
ENDROOT
BRANCH   6  10
ATOM     10  C   UNL     1      -5.105 -11.410  18.522  0.00  0.00    -0.013 C 
ATOM     15  C   UNL     1      -6.006 -10.532  19.384  0.00  0.00    +0.007 C 
ATOM     16  C   UNL     1      -4.024 -12.074  19.371  0.00  0.00    +0.007 C 
ENDBRANCH   6  10
BRANCH   7  13
ATOM     13  C   UNL     1      -2.432 -10.548  15.867  0.00  0.00    +0.089 C 
BRANCH  13   2
ATOM      2  N   UNL     1      -1.857 -11.244  14.729  0.00  0.00    -0.311 NA
ATOM     29  H   UNL     1      -2.382 -12.105  14.570  0.00  0.00    +0.122 HD
BRANCH   2  19
ATOM     19  C   UNL     1      -1.915 -10.422  13.526  0.00  0.00    +0.117 C 
BRANCH  19  20
ATOM      5  N   UNL     1      -5.064 -10.606  11.433  0.00  0.00    -0.263 NA
ATOM     20  C   UNL     1      -2.945 -10.928  12.551  0.00  0.00    -0.016 A 
ATOM     23  C   UNL     1      -2.766 -12.133  11.881  0.00  0.00    +0.008 A 
ATOM     24  C   UNL     1      -4.101 -10.209  12.295  0.00  0.00    +0.115 A 
ATOM     26  C   UNL     1      -3.734 -12.575  10.987  0.00  0.00    +0.020 A 
ATOM     28  C   UNL     1      -4.855 -11.783  10.801  0.00  0.00    +0.111 A 
ENDBRANCH  19  20
ENDBRANCH   2  19
ENDBRANCH  13   2
ENDBRANCH   7  13
BRANCH   9  14
ATOM     14  C   UNL     1      -7.082 -10.302  14.545  0.00  0.00    +0.105 C 
BRANCH  14  18
ATOM      1  O   UNL     1      -8.746 -10.086  16.315  0.00  0.00    -0.425 OA
ATOM      3  N   UNL     1      -9.305  -9.066  14.405  0.00  0.00    -0.112 NA
ATOM      4  N   UNL     1     -10.329  -8.864  15.312  0.00  0.00    -0.112 NA
ATOM     18  C   UNL     1      -8.404  -9.784  15.034  0.00  0.00    +0.218 A 
ATOM     21  C   UNL     1      -9.960  -9.477  16.413  0.00  0.00    +0.217 A 
BRANCH  21  22
ATOM     22  C   UNL     1     -10.657  -9.589  17.700  0.00  0.00    +0.097 C 
BRANCH  22  25
ATOM     25  C   UNL     1      -9.816 -10.299  18.782  0.00  0.00    +0.006 C 
ATOM     27  C   UNL     1     -10.618 -10.620  20.034  0.00  0.00    +0.004 C 
ENDBRANCH  22  25
ENDBRANCH  21  22
ENDBRANCH  14  18
ENDBRANCH   9  14
TORSDOF 9
ENDMDL
MODEL 10
REMARK VINA RESULT:      -5.7     27.777     30.232
REMARK  Name = 45784002
REMARK  13 active torsions:
REMARK  status: ('A' for Active; 'I' for Inactive)
REMARK    1  A    between atoms: N_2  and  C_13
REMARK    2  A    between atoms: N_2  and  C_19
REMARK    3  A    between atoms: C_6  and  C_10
REMARK    4  A    between atoms: C_7  and  C_13
REMARK    5  A    between atoms: C_9  and  C_14
REMARK    6  A    between atoms: C_10  and  C_15
REMARK    7  A    between atoms: C_10  and  C_16
REMARK    8  A    between atoms: C_11  and  C_17
REMARK    9  A    between atoms: C_14  and  C_18
REMARK   10  A    between atoms: C_19  and  C_20
REMARK   11  A    between atoms: C_21  and  C_22
REMARK   12  A    between atoms: C_22  and  C_25
REMARK   13  A    between atoms: C_25  and  C_27
REMARK                            x       y       z     vdW  Elec       q    Type
REMARK                         _______ _______ _______ _____ _____    ______ ____
ROOT
ATOM      6  C   UNL     1      -7.667 -11.818  17.067  0.00  0.00    +0.000 C 
ATOM      7  C   UNL     1      -7.722 -11.804  18.613  0.00  0.00    +0.029 C 
ATOM      8  C   UNL     1      -6.512 -10.941  16.562  0.00  0.00    +0.012 C 
ATOM      9  C   UNL     1      -5.136 -11.356  17.128  0.00  0.00    +0.024 C 
ATOM     11  C   UNL     1      -5.194 -11.761  18.594  0.00  0.00    -0.073 C 
ATOM     12  C   UNL     1      -6.358 -11.944  19.242  0.00  0.00    -0.023 C 
ATOM     17  C   UNL     1      -3.888 -12.013  19.296  0.00  0.00    +0.039 C 
ENDROOT
BRANCH   6  10
ATOM     10  C   UNL     1      -7.556 -13.248  16.524  0.00  0.00    -0.013 C 
ATOM     15  C   UNL     1      -7.713 -13.255  15.007  0.00  0.00    +0.007 C 
ATOM     16  C   UNL     1      -8.599 -14.148  17.180  0.00  0.00    +0.007 C 
ENDBRANCH   6  10
BRANCH   7  13
ATOM     13  C   UNL     1      -8.393 -10.533  19.144  0.00  0.00    +0.089 C 
BRANCH  13   2
ATOM      2  N   UNL     1      -9.351 -10.855  20.186  0.00  0.00    -0.311 NA
ATOM     29  H   UNL     1      -9.764  -9.988  20.533  0.00  0.00    +0.122 HD
BRANCH   2  19
ATOM     19  C   UNL     1     -10.413 -11.715  19.674  0.00  0.00    +0.117 C 
BRANCH  19  20
ATOM      5  N   UNL     1     -13.824 -11.924  21.304  0.00  0.00    -0.263 NA
ATOM     20  C   UNL     1     -11.765 -11.306  20.198  0.00  0.00    -0.016 A 
ATOM     23  C   UNL     1     -12.212  -9.995  20.081  0.00  0.00    +0.008 A 
ATOM     24  C   UNL     1     -12.601 -12.224  20.813  0.00  0.00    +0.115 A 
ATOM     26  C   UNL     1     -13.465  -9.647  20.574  0.00  0.00    +0.020 A 
ATOM     28  C   UNL     1     -14.225 -10.639  21.170  0.00  0.00    +0.111 A 
ENDBRANCH  19  20
ENDBRANCH   2  19
ENDBRANCH  13   2
ENDBRANCH   7  13
BRANCH   9  14
ATOM     14  C   UNL     1      -4.136 -10.224  16.861  0.00  0.00    +0.105 C 
BRANCH  14  18
ATOM      1  O   UNL     1      -3.320 -10.837  14.645  0.00  0.00    -0.425 OA
ATOM      3  N   UNL     1      -1.771 -10.954  16.255  0.00  0.00    -0.112 NA
ATOM      4  N   UNL     1      -1.176 -11.324  15.062  0.00  0.00    -0.112 NA
ATOM     18  C   UNL     1      -3.021 -10.679  15.963  0.00  0.00    +0.218 A 
ATOM     21  C   UNL     1      -2.117 -11.241  14.150  0.00  0.00    +0.217 A 
BRANCH  21  22
ATOM     22  C   UNL     1      -2.050 -11.515  12.710  0.00  0.00    +0.097 C 
BRANCH  22  25
ATOM     25  C   UNL     1      -1.809 -10.245  11.865  0.00  0.00    +0.006 C 
ATOM     27  C   UNL     1      -2.950  -9.952  10.904  0.00  0.00    +0.004 C 
ENDBRANCH  22  25
ENDBRANCH  21  22
ENDBRANCH  14  18
ENDBRANCH   9  14
TORSDOF 9
ENDMDL
