MODEL 1
REMARK VINA RESULT:      -7.9      0.000      0.000
REMARK  Name = 26742314
REMARK  6 active torsions:
REMARK  status: ('A' for Active; 'I' for Inactive)
REMARK    1  A    between atoms: S_1  and  N_8
REMARK    2  A    between atoms: S_1  and  C_26
REMARK    3  A    between atoms: N_5  and  C_14
REMARK    4  A    between atoms: N_7  and  C_25
REMARK    5  A    between atoms: N_8  and  C_21
REMARK    6  A    between atoms: C_31  and  C_32
REMARK                            x       y       z     vdW  Elec       q    Type
REMARK                         _______ _______ _______ _____ _____    ______ ____
ROOT
ATOM      2  O   UNL     1      10.899   5.981  21.295  0.00  0.00    -0.268 OA
ATOM      5  N   UNL     1      15.147   8.124  19.686  0.00  0.00    -0.298 NA
ATOM      6  N   UNL     1      12.024   7.753  20.252  0.00  0.00    -0.310 N 
ATOM      9  C   UNL     1      13.350   7.431  18.082  0.00  0.00    +0.024 C 
ATOM     10  C   UNL     1      13.244   9.642  19.128  0.00  0.00    +0.052 C 
ATOM     11  C   UNL     1      12.987   8.884  17.827  0.00  0.00    +0.017 C 
ATOM     12  C   UNL     1      14.830   7.315  18.502  0.00  0.00    +0.090 C 
ATOM     13  C   UNL     1      14.739   9.525  19.503  0.00  0.00    +0.094 C 
ATOM     15  C   UNL     1      12.391   6.871  19.135  0.00  0.00    +0.130 C 
ATOM     16  C   UNL     1      12.367   9.119  20.264  0.00  0.00    +0.049 A 
ATOM     21  C   UNL     1      11.923   9.884  21.283  0.00  0.00    +0.068 A 
ATOM     22  C   UNL     1      11.238   7.165  21.264  0.00  0.00    +0.252 A 
ATOM     23  C   UNL     1      11.112   9.351  22.339  0.00  0.00    +0.031 A 
ATOM     24  C   UNL     1      10.780   8.059  22.358  0.00  0.00    +0.072 A 
ENDROOT
BRANCH   5  14
ATOM      7  N   UNL     1      18.688   6.985  21.742  0.00  0.00    -0.305 NA
ATOM     14  C   UNL     1      16.567   8.031  20.019  0.00  0.00    +0.059 C 
ATOM     17  C   UNL     1      17.034   6.576  19.948  0.00  0.00    +0.034 C 
ATOM     18  C   UNL     1      16.841   8.600  21.415  0.00  0.00    +0.034 C 
ATOM     19  C   UNL     1      18.493   6.445  20.389  0.00  0.00    +0.085 C 
ATOM     20  C   UNL     1      18.307   8.403  21.808  0.00  0.00    +0.085 C 
ATOM     25  C   UNL     1      20.076   6.808  22.169  0.00  0.00    +0.104 C 
ENDBRANCH   5  14
BRANCH  21   8
ATOM      8  N   UNL     1      12.281  11.252  21.331  0.00  0.00    -0.215 N 
ATOM     33  H   UNL     1      11.490  11.907  21.344  0.00  0.00    +0.174 HD
BRANCH   8   1
ATOM      1  S   UNL     1      13.583  11.665  22.325  0.00  0.00    +0.072 S 
ATOM      3  O   UNL     1      14.148  10.466  22.916  0.00  0.00    -0.150 OA
ATOM      4  O   UNL     1      14.440  12.616  21.643  0.00  0.00    -0.150 OA
BRANCH   1  26
ATOM     26  C   UNL     1      12.740  12.541  23.609  0.00  0.00    +0.109 A 
ATOM     27  C   UNL     1      13.393  12.816  24.811  0.00  0.00    +0.029 A 
ATOM     28  C   UNL     1      11.423  12.958  23.420  0.00  0.00    +0.029 A 
ATOM     29  C   UNL     1      12.728  13.509  25.823  0.00  0.00    +0.005 A 
ATOM     30  C   UNL     1      10.757  13.650  24.432  0.00  0.00    +0.005 A 
ATOM     31  C   UNL     1      11.410  13.925  25.634  0.00  0.00    -0.050 A 
ATOM     32  C   UNL     1      10.699  14.664  26.716  0.00  0.00    +0.044 C 
ENDBRANCH   1  26
ENDBRANCH   8   1
ENDBRANCH  21   8
TORSDOF 4
ENDMDL
MODEL 2
REMARK VINA RESULT:      -7.2     27.483     30.380
REMARK  Name = 26742314
REMARK  6 active torsions:
REMARK  status: ('A' for Active; 'I' for Inactive)
REMARK    1  A    between atoms: S_1  and  N_8
REMARK    2  A    between atoms: S_1  and  C_26
REMARK    3  A    between atoms: N_5  and  C_14
REMARK    4  A    between atoms: N_7  and  C_25
REMARK    5  A    between atoms: N_8  and  C_21
REMARK    6  A    between atoms: C_31  and  C_32
REMARK                            x       y       z     vdW  Elec       q    Type
REMARK                         _______ _______ _______ _____ _____    ______ ____
ROOT
ATOM      2  O   UNL     1      -6.744 -12.008  20.459  0.00  0.00    -0.268 OA
ATOM      5  N   UNL     1      -8.358 -11.686  15.714  0.00  0.00    -0.298 NA
ATOM      6  N   UNL     1      -6.830 -10.886  18.404  0.00  0.00    -0.310 N 
ATOM      9  C   UNL     1      -9.028  -9.992  17.435  0.00  0.00    +0.024 C 
ATOM     10  C   UNL     1      -6.939  -9.688  16.195  0.00  0.00    +0.052 C 
ATOM     11  C   UNL     1      -8.137  -8.947  16.785  0.00  0.00    +0.017 C 
ATOM     12  C   UNL     1      -9.485 -11.030  16.389  0.00  0.00    +0.090 C 
ATOM     13  C   UNL     1      -7.432 -10.701  15.136  0.00  0.00    +0.094 C 
ATOM     15  C   UNL     1      -8.263 -10.622  18.600  0.00  0.00    +0.130 C 
ATOM     16  C   UNL     1      -6.132 -10.402  17.279  0.00  0.00    +0.049 A 
ATOM     21  C   UNL     1      -4.801 -10.612  17.210  0.00  0.00    +0.068 A 
ATOM     22  C   UNL     1      -6.185 -11.577  19.450  0.00  0.00    +0.252 A 
ATOM     23  C   UNL     1      -4.083 -11.299  18.244  0.00  0.00    +0.031 A 
ATOM     24  C   UNL     1      -4.719 -11.776  19.315  0.00  0.00    +0.072 A 
ENDROOT
BRANCH   5  14
ATOM      7  N   UNL     1      -9.694 -13.128  11.945  0.00  0.00    -0.305 NA
ATOM     14  C   UNL     1      -8.830 -12.621  14.695  0.00  0.00    +0.059 C 
ATOM     17  C   UNL     1      -7.845 -12.673  13.525  0.00  0.00    +0.034 C 
ATOM     18  C   UNL     1     -10.220 -12.225  14.189  0.00  0.00    +0.034 C 
ATOM     19  C   UNL     1      -8.370 -13.572  12.404  0.00  0.00    +0.085 C 
ATOM     20  C   UNL     1     -10.669 -13.138  13.046  0.00  0.00    +0.085 C 
ATOM     25  C   UNL     1     -10.162 -13.965  10.841  0.00  0.00    +0.104 C 
ENDBRANCH   5  14
BRANCH  21   8
ATOM      8  N   UNL     1      -4.086 -10.162  16.075  0.00  0.00    -0.215 N 
ATOM     33  H   UNL     1      -3.635  -9.245  16.182  0.00  0.00    +0.174 HD
BRANCH   8   1
ATOM      1  S   UNL     1      -3.191 -11.317  15.229  0.00  0.00    +0.072 S 
ATOM      3  O   UNL     1      -1.791 -11.221  15.601  0.00  0.00    -0.150 OA
ATOM      4  O   UNL     1      -3.872 -12.597  15.275  0.00  0.00    -0.150 OA
BRANCH   1  26
ATOM     26  C   UNL     1      -3.343 -10.697  13.581  0.00  0.00    +0.109 A 
ATOM     27  C   UNL     1      -4.588 -10.297  13.097  0.00  0.00    +0.029 A 
ATOM     28  C   UNL     1      -2.216 -10.606  12.764  0.00  0.00    +0.029 A 
ATOM     29  C   UNL     1      -4.707  -9.805  11.797  0.00  0.00    +0.005 A 
ATOM     30  C   UNL     1      -2.334 -10.114  11.463  0.00  0.00    +0.005 A 
ATOM     31  C   UNL     1      -3.580  -9.715  10.980  0.00  0.00    -0.050 A 
ATOM     32  C   UNL     1      -3.707  -9.190   9.590  0.00  0.00    +0.044 C 
ENDBRANCH   1  26
ENDBRANCH   8   1
ENDBRANCH  21   8
TORSDOF 4
ENDMDL
MODEL 3
REMARK VINA RESULT:      -7.1      2.333      3.240
REMARK  Name = 26742314
REMARK  6 active torsions:
REMARK  status: ('A' for Active; 'I' for Inactive)
REMARK    1  A    between atoms: S_1  and  N_8
REMARK    2  A    between atoms: S_1  and  C_26
REMARK    3  A    between atoms: N_5  and  C_14
REMARK    4  A    between atoms: N_7  and  C_25
REMARK    5  A    between atoms: N_8  and  C_21
REMARK    6  A    between atoms: C_31  and  C_32
REMARK                            x       y       z     vdW  Elec       q    Type
REMARK                         _______ _______ _______ _____ _____    ______ ____
ROOT
ATOM      2  O   UNL     1      10.916   6.354  21.003  0.00  0.00    -0.268 OA
ATOM      5  N   UNL     1      15.712   7.708  20.376  0.00  0.00    -0.298 NA
ATOM      6  N   UNL     1      12.524   7.890  20.264  0.00  0.00    -0.310 N 
ATOM      9  C   UNL     1      14.203   7.315  18.414  0.00  0.00    +0.024 C 
ATOM     10  C   UNL     1      14.260   9.525  19.466  0.00  0.00    +0.052 C 
ATOM     11  C   UNL     1      14.157   8.806  18.123  0.00  0.00    +0.017 C 
ATOM     12  C   UNL     1      15.518   6.951  19.132  0.00  0.00    +0.090 C 
ATOM     13  C   UNL     1      15.600   9.156  20.144  0.00  0.00    +0.094 C 
ATOM     15  C   UNL     1      12.961   6.944  19.227  0.00  0.00    +0.130 C 
ATOM     16  C   UNL     1      13.086   9.176  20.380  0.00  0.00    +0.049 A 
ATOM     21  C   UNL     1      12.576  10.020  21.301  0.00  0.00    +0.068 A 
ATOM     22  C   UNL     1      11.453   7.460  21.073  0.00  0.00    +0.252 A 
ATOM     23  C   UNL     1      11.480   9.649  22.150  0.00  0.00    +0.031 A 
ATOM     24  C   UNL     1      10.935   8.434  22.068  0.00  0.00    +0.072 A 
ENDROOT
BRANCH   5  14
ATOM      7  N   UNL     1      19.916   7.463  20.948  0.00  0.00    -0.305 NA
ATOM     14  C   UNL     1      16.992   7.375  20.997  0.00  0.00    +0.059 C 
ATOM     17  C   UNL     1      17.776   8.650  21.312  0.00  0.00    +0.034 C 
ATOM     18  C   UNL     1      17.822   6.462  20.089  0.00  0.00    +0.034 C 
ATOM     19  C   UNL     1      19.161   8.320  21.873  0.00  0.00    +0.085 C 
ATOM     20  C   UNL     1      19.205   6.202  20.690  0.00  0.00    +0.085 C 
ATOM     25  C   UNL     1      21.255   7.195  21.475  0.00  0.00    +0.104 C 
ENDBRANCH   5  14
BRANCH  21   8
ATOM      8  N   UNL     1      13.146  11.306  21.457  0.00  0.00    -0.215 N 
ATOM     33  H   UNL     1      12.540  12.085  21.174  0.00  0.00    +0.174 HD
BRANCH   8   1
ATOM      1  S   UNL     1      14.067  11.569  22.848  0.00  0.00    +0.072 S 
ATOM      3  O   UNL     1      13.314  12.380  23.787  0.00  0.00    -0.150 OA
ATOM      4  O   UNL     1      14.672  10.323  23.280  0.00  0.00    -0.150 OA
BRANCH   1  26
ATOM     26  C   UNL     1      15.357  12.583  22.190  0.00  0.00    +0.109 A 
ATOM     27  C   UNL     1      16.303  13.151  23.044  0.00  0.00    +0.029 A 
ATOM     28  C   UNL     1      15.430  12.814  20.817  0.00  0.00    +0.029 A 
ATOM     29  C   UNL     1      17.322  13.949  22.525  0.00  0.00    +0.005 A 
ATOM     30  C   UNL     1      16.450  13.613  20.296  0.00  0.00    +0.005 A 
ATOM     31  C   UNL     1      17.395  14.181  21.150  0.00  0.00    -0.050 A 
ATOM     32  C   UNL     1      18.483  15.035  20.596  0.00  0.00    +0.044 C 
ENDBRANCH   1  26
ENDBRANCH   8   1
ENDBRANCH  21   8
TORSDOF 4
ENDMDL
MODEL 4
REMARK VINA RESULT:      -7.0     25.229     27.152
REMARK  Name = 26742314
REMARK  6 active torsions:
REMARK  status: ('A' for Active; 'I' for Inactive)
REMARK    1  A    between atoms: S_1  and  N_8
REMARK    2  A    between atoms: S_1  and  C_26
REMARK    3  A    between atoms: N_5  and  C_14
REMARK    4  A    between atoms: N_7  and  C_25
REMARK    5  A    between atoms: N_8  and  C_21
REMARK    6  A    between atoms: C_31  and  C_32
REMARK                            x       y       z     vdW  Elec       q    Type
REMARK                         _______ _______ _______ _____ _____    ______ ____
ROOT
ATOM      2  O   UNL     1     -13.458  10.940  15.964  0.00  0.00    -0.268 OA
ATOM      5  N   UNL     1     -12.765   7.929  19.925  0.00  0.00    -0.298 NA
ATOM      6  N   UNL     1     -12.430  10.472  18.018  0.00  0.00    -0.310 N 
ATOM      9  C   UNL     1     -10.894   8.444  18.338  0.00  0.00    +0.024 C 
ATOM     10  C   UNL     1     -11.329   9.951  20.218  0.00  0.00    +0.052 C 
ATOM     11  C   UNL     1     -10.219   9.317  19.383  0.00  0.00    +0.017 C 
ATOM     12  C   UNL     1     -11.756   7.363  19.020  0.00  0.00    +0.090 C 
ATOM     13  C   UNL     1     -12.154   8.839  20.905  0.00  0.00    +0.094 C 
ATOM     15  C   UNL     1     -11.706   9.348  17.407  0.00  0.00    +0.130 C 
ATOM     16  C   UNL     1     -12.235  10.838  19.364  0.00  0.00    +0.049 A 
ATOM     21  C   UNL     1     -12.871  11.932  19.832  0.00  0.00    +0.068 A 
ATOM     22  C   UNL     1     -13.263  11.208  17.151  0.00  0.00    +0.252 A 
ATOM     23  C   UNL     1     -13.725  12.731  19.000  0.00  0.00    +0.031 A 
ATOM     24  C   UNL     1     -13.936  12.402  17.724  0.00  0.00    +0.072 A 
ENDROOT
BRANCH   5  14
ATOM      7  N   UNL     1     -14.581   5.702  23.055  0.00  0.00    -0.305 NA
ATOM     14  C   UNL     1     -13.523   6.873  20.592  0.00  0.00    +0.059 C 
ATOM     17  C   UNL     1     -14.725   7.468  21.329  0.00  0.00    +0.034 C 
ATOM     18  C   UNL     1     -12.639   6.100  21.574  0.00  0.00    +0.034 C 
ATOM     19  C   UNL     1     -15.475   6.391  22.115  0.00  0.00    +0.085 C 
ATOM     20  C   UNL     1     -13.457   5.067  22.352  0.00  0.00    +0.085 C 
ATOM     25  C   UNL     1     -15.322   4.710  23.834  0.00  0.00    +0.104 C 
ENDBRANCH   5  14
BRANCH  21   8
ATOM      8  N   UNL     1     -12.714  12.300  21.189  0.00  0.00    -0.215 N 
ATOM     33  H   UNL     1     -12.190  13.169  21.344  0.00  0.00    +0.174 HD
BRANCH   8   1
ATOM      1  S   UNL     1     -14.043  12.061  22.203  0.00  0.00    +0.072 S 
ATOM      3  O   UNL     1     -14.640  13.341  22.538  0.00  0.00    -0.150 OA
ATOM      4  O   UNL     1     -14.867  10.984  21.688  0.00  0.00    -0.150 OA
BRANCH   1  26
ATOM     26  C   UNL     1     -13.234  11.460  23.655  0.00  0.00    +0.109 A 
ATOM     27  C   UNL     1     -13.982  10.889  24.685  0.00  0.00    +0.029 A 
ATOM     28  C   UNL     1     -11.848  11.554  23.770  0.00  0.00    +0.029 A 
ATOM     29  C   UNL     1     -13.343  10.413  25.830  0.00  0.00    +0.005 A 
ATOM     30  C   UNL     1     -11.208  11.078  24.916  0.00  0.00    +0.005 A 
ATOM     31  C   UNL     1     -11.955  10.508  25.946  0.00  0.00    -0.050 A 
ATOM     32  C   UNL     1     -11.273  10.000  27.170  0.00  0.00    +0.044 C 
ENDBRANCH   1  26
ENDBRANCH   8   1
ENDBRANCH  21   8
TORSDOF 4
ENDMDL
MODEL 5
REMARK VINA RESULT:      -7.0     13.406     15.852
REMARK  Name = 26742314
REMARK  6 active torsions:
REMARK  status: ('A' for Active; 'I' for Inactive)
REMARK    1  A    between atoms: S_1  and  N_8
REMARK    2  A    between atoms: S_1  and  C_26
REMARK    3  A    between atoms: N_5  and  C_14
REMARK    4  A    between atoms: N_7  and  C_25
REMARK    5  A    between atoms: N_8  and  C_21
REMARK    6  A    between atoms: C_31  and  C_32
REMARK                            x       y       z     vdW  Elec       q    Type
REMARK                         _______ _______ _______ _____ _____    ______ ____
ROOT
ATOM      2  O   UNL     1      19.542  -5.040  21.230  0.00  0.00    -0.268 OA
ATOM      5  N   UNL     1      18.600  -2.149  25.228  0.00  0.00    -0.298 NA
ATOM      6  N   UNL     1      18.101  -4.312  22.929  0.00  0.00    -0.310 N 
ATOM      9  C   UNL     1      17.314  -1.878  23.093  0.00  0.00    +0.024 C 
ATOM     10  C   UNL     1      16.564  -3.515  24.752  0.00  0.00    +0.052 C 
ATOM     11  C   UNL     1      16.078  -2.484  23.735  0.00  0.00    +0.017 C 
ATOM     12  C   UNL     1      18.204  -1.216  24.165  0.00  0.00    +0.090 C 
ATOM     13  C   UNL     1      17.429  -2.811  25.822  0.00  0.00    +0.094 C 
ATOM     15  C   UNL     1      18.043  -2.978  22.316  0.00  0.00    +0.130 C 
ATOM     16  C   UNL     1      17.355  -4.636  24.079  0.00  0.00    +0.049 A 
ATOM     21  C   UNL     1      17.394  -5.905  24.535  0.00  0.00    +0.068 A 
ATOM     22  C   UNL     1      18.882  -5.266  22.246  0.00  0.00    +0.252 A 
ATOM     23  C   UNL     1      18.161  -6.926  23.882  0.00  0.00    +0.031 A 
ATOM     24  C   UNL     1      18.885  -6.646  22.796  0.00  0.00    +0.072 A 
ENDROOT
BRANCH   5  14
ATOM      7  N   UNL     1      21.750  -1.417  27.985  0.00  0.00    -0.305 NA
ATOM     14  C   UNL     1      19.395  -1.472  26.250  0.00  0.00    +0.059 C 
ATOM     17  C   UNL     1      20.796  -1.166  25.716  0.00  0.00    +0.034 C 
ATOM     18  C   UNL     1      19.494  -2.322  27.520  0.00  0.00    +0.034 C 
ATOM     19  C   UNL     1      21.675  -0.546  26.804  0.00  0.00    +0.085 C 
ATOM     20  C   UNL     1      20.415  -1.665  28.549  0.00  0.00    +0.085 C 
ATOM     25  C   UNL     1      22.632  -0.835  28.996  0.00  0.00    +0.104 C 
ENDBRANCH   5  14
BRANCH  21   8
ATOM      8  N   UNL     1      16.676  -6.244  25.707  0.00  0.00    -0.215 N 
ATOM     33  H   UNL     1      15.819  -6.788  25.548  0.00  0.00    +0.174 HD
BRANCH   8   1
ATOM      1  S   UNL     1      17.587  -6.702  27.054  0.00  0.00    +0.072 S 
ATOM      3  O   UNL     1      17.712  -8.147  27.092  0.00  0.00    -0.150 OA
ATOM      4  O   UNL     1      18.767  -5.864  27.157  0.00  0.00    -0.150 OA
BRANCH   1  26
ATOM     26  C   UNL     1      16.489  -6.231  28.357  0.00  0.00    +0.109 A 
ATOM     27  C   UNL     1      16.820  -5.170  29.200  0.00  0.00    +0.029 A 
ATOM     28  C   UNL     1      15.291  -6.921  28.542  0.00  0.00    +0.029 A 
ATOM     29  C   UNL     1      15.952  -4.798  30.227  0.00  0.00    +0.005 A 
ATOM     30  C   UNL     1      14.422  -6.549  29.569  0.00  0.00    +0.005 A 
ATOM     31  C   UNL     1      14.754  -5.488  30.412  0.00  0.00    -0.050 A 
ATOM     32  C   UNL     1      13.827  -5.091  31.511  0.00  0.00    +0.044 C 
ENDBRANCH   1  26
ENDBRANCH   8   1
ENDBRANCH  21   8
TORSDOF 4
ENDMDL
MODEL 6
REMARK VINA RESULT:      -6.9     25.216     27.638
REMARK  Name = 26742314
REMARK  6 active torsions:
REMARK  status: ('A' for Active; 'I' for Inactive)
REMARK    1  A    between atoms: S_1  and  N_8
REMARK    2  A    between atoms: S_1  and  C_26
REMARK    3  A    between atoms: N_5  and  C_14
REMARK    4  A    between atoms: N_7  and  C_25
REMARK    5  A    between atoms: N_8  and  C_21
REMARK    6  A    between atoms: C_31  and  C_32
REMARK                            x       y       z     vdW  Elec       q    Type
REMARK                         _______ _______ _______ _____ _____    ______ ____
ROOT
ATOM      2  O   UNL     1     -10.808  12.948  14.964  0.00  0.00    -0.268 OA
ATOM      5  N   UNL     1     -13.479   8.869  16.169  0.00  0.00    -0.298 NA
ATOM      6  N   UNL     1     -11.014  10.901  16.085  0.00  0.00    -0.310 N 
ATOM      9  C   UNL     1     -11.369   8.694  14.829  0.00  0.00    +0.024 C 
ATOM     10  C   UNL     1     -11.246   8.697  17.274  0.00  0.00    +0.052 C 
ATOM     11  C   UNL     1     -10.640   8.082  16.014  0.00  0.00    +0.017 C 
ATOM     12  C   UNL     1     -12.879   8.394  14.916  0.00  0.00    +0.090 C 
ATOM     13  C   UNL     1     -12.752   8.355  17.340  0.00  0.00    +0.094 C 
ATOM     15  C   UNL     1     -11.063  10.193  14.797  0.00  0.00    +0.130 C 
ATOM     16  C   UNL     1     -11.041  10.211  17.313  0.00  0.00    +0.049 A 
ATOM     21  C   UNL     1     -10.906  10.921  18.452  0.00  0.00    +0.068 A 
ATOM     22  C   UNL     1     -10.852  12.299  16.009  0.00  0.00    +0.252 A 
ATOM     23  C   UNL     1     -10.729  12.345  18.446  0.00  0.00    +0.031 A 
ATOM     24  C   UNL     1     -10.709  13.025  17.298  0.00  0.00    +0.072 A 
ENDROOT
BRANCH   5  14
ATOM      7  N   UNL     1     -16.977   6.513  16.695  0.00  0.00    -0.305 NA
ATOM     14  C   UNL     1     -14.896   8.519  16.238  0.00  0.00    +0.059 C 
ATOM     17  C   UNL     1     -15.250   8.013  17.638  0.00  0.00    +0.034 C 
ATOM     18  C   UNL     1     -15.249   7.455  15.194  0.00  0.00    +0.034 C 
ATOM     19  C   UNL     1     -16.707   7.548  17.702  0.00  0.00    +0.085 C 
ATOM     20  C   UNL     1     -16.706   7.008  15.337  0.00  0.00    +0.085 C 
ATOM     25  C   UNL     1     -18.358   6.044  16.800  0.00  0.00    +0.104 C 
ENDBRANCH   5  14
BRANCH  21   8
ATOM      8  N   UNL     1     -10.962  10.253  19.698  0.00  0.00    -0.215 N 
ATOM     33  H   UNL     1     -10.069  10.205  20.204  0.00  0.00    +0.174 HD
BRANCH   8   1
ATOM      1  S   UNL     1     -12.325  10.534  20.654  0.00  0.00    +0.072 S 
ATOM      3  O   UNL     1     -11.931  11.189  21.888  0.00  0.00    -0.150 OA
ATOM      4  O   UNL     1     -13.391  11.088  19.841  0.00  0.00    -0.150 OA
BRANCH   1  26
ATOM     26  C   UNL     1     -12.779   8.874  21.060  0.00  0.00    +0.109 A 
ATOM     27  C   UNL     1     -11.914   7.821  20.762  0.00  0.00    +0.029 A 
ATOM     28  C   UNL     1     -14.001   8.617  21.681  0.00  0.00    +0.029 A 
ATOM     29  C   UNL     1     -12.271   6.511  21.085  0.00  0.00    +0.005 A 
ATOM     30  C   UNL     1     -14.359   7.308  22.003  0.00  0.00    +0.005 A 
ATOM     31  C   UNL     1     -13.495   6.255  21.704  0.00  0.00    -0.050 A 
ATOM     32  C   UNL     1     -13.877   4.855  22.048  0.00  0.00    +0.044 C 
ENDBRANCH   1  26
ENDBRANCH   8   1
ENDBRANCH  21   8
TORSDOF 4
ENDMDL
MODEL 7
REMARK VINA RESULT:      -6.9     27.122     29.767
REMARK  Name = 26742314
REMARK  6 active torsions:
REMARK  status: ('A' for Active; 'I' for Inactive)
REMARK    1  A    between atoms: S_1  and  N_8
REMARK    2  A    between atoms: S_1  and  C_26
REMARK    3  A    between atoms: N_5  and  C_14
REMARK    4  A    between atoms: N_7  and  C_25
REMARK    5  A    between atoms: N_8  and  C_21
REMARK    6  A    between atoms: C_31  and  C_32
REMARK                            x       y       z     vdW  Elec       q    Type
REMARK                         _______ _______ _______ _____ _____    ______ ____
ROOT
ATOM      2  O   UNL     1      -6.238 -15.278  16.780  0.00  0.00    -0.268 OA
ATOM      5  N   UNL     1      -7.875 -10.557  17.294  0.00  0.00    -0.298 NA
ATOM      6  N   UNL     1      -5.835 -13.017  17.246  0.00  0.00    -0.310 N 
ATOM      9  C   UNL     1      -6.926 -11.825  19.237  0.00  0.00    +0.024 C 
ATOM     10  C   UNL     1      -5.420 -10.589  17.754  0.00  0.00    +0.052 C 
ATOM     11  C   UNL     1      -5.672 -10.968  19.212  0.00  0.00    +0.017 C 
ATOM     12  C   UNL     1      -8.121 -11.040  18.659  0.00  0.00    +0.090 C 
ATOM     13  C   UNL     1      -6.626  -9.784  17.218  0.00  0.00    +0.094 C 
ATOM     15  C   UNL     1      -6.642 -13.120  18.472  0.00  0.00    +0.130 C 
ATOM     16  C   UNL     1      -5.176 -11.824  16.888  0.00  0.00    +0.049 A 
ATOM     21  C   UNL     1      -4.386 -11.830  15.795  0.00  0.00    +0.068 A 
ATOM     22  C   UNL     1      -5.696 -14.206  16.504  0.00  0.00    +0.252 A 
ATOM     23  C   UNL     1      -4.193 -13.009  15.000  0.00  0.00    +0.031 A 
ATOM     24  C   UNL     1      -4.813 -14.150  15.310  0.00  0.00    +0.072 A 
ENDROOT
BRANCH   5  14
ATOM      7  N   UNL     1     -10.055  -7.266  15.720  0.00  0.00    -0.305 NA
ATOM     14  C   UNL     1      -9.006  -9.774  16.803  0.00  0.00    +0.059 C 
ATOM     17  C   UNL     1      -8.765  -9.346  15.354  0.00  0.00    +0.034 C 
ATOM     18  C   UNL     1      -9.241  -8.540  17.680  0.00  0.00    +0.034 C 
ATOM     19  C   UNL     1      -9.894  -8.441  14.853  0.00  0.00    +0.085 C 
ATOM     20  C   UNL     1     -10.354  -7.662  17.104  0.00  0.00    +0.085 C 
ATOM     25  C   UNL     1     -11.103  -6.387  15.202  0.00  0.00    +0.104 C 
ENDBRANCH   5  14
BRANCH  21   8
ATOM      8  N   UNL     1      -3.739 -10.636  15.399  0.00  0.00    -0.215 N 
ATOM     33  H   UNL     1      -3.759  -9.881  16.096  0.00  0.00    +0.174 HD
BRANCH   8   1
ATOM      1  S   UNL     1      -2.290 -10.799  14.547  0.00  0.00    +0.072 S 
ATOM      3  O   UNL     1      -1.336  -9.807  15.009  0.00  0.00    -0.150 OA
ATOM      4  O   UNL     1      -1.913 -12.198  14.480  0.00  0.00    -0.150 OA
BRANCH   1  26
ATOM     26  C   UNL     1      -2.814 -10.315  12.929  0.00  0.00    +0.109 A 
ATOM     27  C   UNL     1      -4.172 -10.300  12.610  0.00  0.00    +0.029 A 
ATOM     28  C   UNL     1      -1.869  -9.945  11.973  0.00  0.00    +0.029 A 
ATOM     29  C   UNL     1      -4.584  -9.916  11.334  0.00  0.00    +0.005 A 
ATOM     30  C   UNL     1      -2.281  -9.561  10.696  0.00  0.00    +0.005 A 
ATOM     31  C   UNL     1      -3.639  -9.547  10.377  0.00  0.00    -0.050 A 
ATOM     32  C   UNL     1      -4.080  -9.138   9.013  0.00  0.00    +0.044 C 
ENDBRANCH   1  26
ENDBRANCH   8   1
ENDBRANCH  21   8
TORSDOF 4
ENDMDL
MODEL 8
REMARK VINA RESULT:      -6.9     27.686     30.117
REMARK  Name = 26742314
REMARK  6 active torsions:
REMARK  status: ('A' for Active; 'I' for Inactive)
REMARK    1  A    between atoms: S_1  and  N_8
REMARK    2  A    between atoms: S_1  and  C_26
REMARK    3  A    between atoms: N_5  and  C_14
REMARK    4  A    between atoms: N_7  and  C_25
REMARK    5  A    between atoms: N_8  and  C_21
REMARK    6  A    between atoms: C_31  and  C_32
REMARK                            x       y       z     vdW  Elec       q    Type
REMARK                         _______ _______ _______ _____ _____    ______ ____
ROOT
ATOM      2  O   UNL     1      -5.509 -15.504  16.316  0.00  0.00    -0.268 OA
ATOM      5  N   UNL     1      -6.383 -10.723  17.580  0.00  0.00    -0.298 NA
ATOM      6  N   UNL     1      -4.811 -13.272  16.467  0.00  0.00    -0.310 N 
ATOM      9  C   UNL     1      -4.598 -12.064  18.718  0.00  0.00    +0.024 C 
ATOM     10  C   UNL     1      -4.073 -10.875  16.644  0.00  0.00    +0.052 C 
ATOM     11  C   UNL     1      -3.516 -11.266  18.011  0.00  0.00    +0.017 C 
ATOM     12  C   UNL     1      -5.878 -11.216  18.868  0.00  0.00    +0.090 C 
ATOM     13  C   UNL     1      -5.338 -10.007  16.834  0.00  0.00    +0.094 C 
ATOM     15  C   UNL     1      -4.833 -13.358  17.935  0.00  0.00    +0.130 C 
ATOM     16  C   UNL     1      -4.393 -12.106  15.797  0.00  0.00    +0.049 A 
ATOM     21  C   UNL     1      -4.319 -12.130  14.450  0.00  0.00    +0.068 A 
ATOM     22  C   UNL     1      -5.151 -14.455  15.780  0.00  0.00    +0.252 A 
ATOM     23  C   UNL     1      -4.642 -13.303  13.690  0.00  0.00    +0.031 A 
ATOM     24  C   UNL     1      -5.049 -14.419  14.298  0.00  0.00    +0.072 A 
ENDROOT
BRANCH   5  14
ATOM      7  N   UNL     1     -10.364  -9.294  17.160  0.00  0.00    -0.305 NA
ATOM     14  C   UNL     1      -7.562  -9.880  17.769  0.00  0.00    +0.059 C 
ATOM     17  C   UNL     1      -8.714 -10.704  18.349  0.00  0.00    +0.034 C 
ATOM     18  C   UNL     1      -7.994  -9.238  16.447  0.00  0.00    +0.034 C 
ATOM     19  C   UNL     1      -9.988  -9.863  18.461  0.00  0.00    +0.085 C 
ATOM     20  C   UNL     1      -9.291  -8.444  16.622  0.00  0.00    +0.085 C 
ATOM     25  C   UNL     1     -11.608  -8.534  17.273  0.00  0.00    +0.104 C 
ENDBRANCH   5  14
BRANCH  21   8
ATOM      8  N   UNL     1      -3.932 -10.960  13.755  0.00  0.00    -0.215 N 
ATOM     33  H   UNL     1      -4.020 -10.088  14.291  0.00  0.00    +0.174 HD
BRANCH   8   1
ATOM      1  S   UNL     1      -2.562 -11.074  12.773  0.00  0.00    +0.072 S 
ATOM      3  O   UNL     1      -1.706  -9.922  12.992  0.00  0.00    -0.150 OA
ATOM      4  O   UNL     1      -2.015 -12.415  12.846  0.00  0.00    -0.150 OA
BRANCH   1  26
ATOM     26  C   UNL     1      -3.297 -10.889  11.175  0.00  0.00    +0.109 A 
ATOM     27  C   UNL     1      -3.462  -9.618  10.626  0.00  0.00    +0.029 A 
ATOM     28  C   UNL     1      -3.709 -12.015  10.464  0.00  0.00    +0.029 A 
ATOM     29  C   UNL     1      -4.040  -9.473   9.364  0.00  0.00    +0.005 A 
ATOM     30  C   UNL     1      -4.288 -11.871   9.202  0.00  0.00    +0.005 A 
ATOM     31  C   UNL     1      -4.454 -10.600   8.653  0.00  0.00    -0.050 A 
ATOM     32  C   UNL     1      -5.073 -10.444   7.305  0.00  0.00    +0.044 C 
ENDBRANCH   1  26
ENDBRANCH   8   1
ENDBRANCH  21   8
TORSDOF 4
ENDMDL
MODEL 9
REMARK VINA RESULT:      -6.7     17.585     20.892
REMARK  Name = 26742314
REMARK  6 active torsions:
REMARK  status: ('A' for Active; 'I' for Inactive)
REMARK    1  A    between atoms: S_1  and  N_8
REMARK    2  A    between atoms: S_1  and  C_26
REMARK    3  A    between atoms: N_5  and  C_14
REMARK    4  A    between atoms: N_7  and  C_25
REMARK    5  A    between atoms: N_8  and  C_21
REMARK    6  A    between atoms: C_31  and  C_32
REMARK                            x       y       z     vdW  Elec       q    Type
REMARK                         _______ _______ _______ _____ _____    ______ ____
ROOT
ATOM      2  O   UNL     1      15.687   8.448  -0.016  0.00  0.00    -0.268 OA
ATOM      5  N   UNL     1      12.849   4.308  -0.213  0.00  0.00    -0.298 NA
ATOM      6  N   UNL     1      14.849   6.498   0.978  0.00  0.00    -0.310 N 
ATOM      9  C   UNL     1      15.340   4.169   0.026  0.00  0.00    +0.024 C 
ATOM     10  C   UNL     1      13.949   4.398   2.028  0.00  0.00    +0.052 C 
ATOM     11  C   UNL     1      15.199   3.719   1.471  0.00  0.00    +0.017 C 
ATOM     12  C   UNL     1      14.090   3.769  -0.784  0.00  0.00    +0.090 C 
ATOM     13  C   UNL     1      12.715   3.954   1.208  0.00  0.00    +0.094 C 
ATOM     15  C   UNL     1      15.596   5.678   0.014  0.00  0.00    +0.130 C 
ATOM     16  C   UNL     1      14.082   5.920   2.008  0.00  0.00    +0.049 A 
ATOM     21  C   UNL     1      13.492   6.737   2.907  0.00  0.00    +0.068 A 
ATOM     22  C   UNL     1      15.017   7.892   0.856  0.00  0.00    +0.252 A 
ATOM     23  C   UNL     1      13.631   8.163   2.846  0.00  0.00    +0.031 A 
ATOM     24  C   UNL     1      14.344   8.738   1.875  0.00  0.00    +0.072 A 
ENDROOT
BRANCH   5  14
ATOM      7  N   UNL     1      10.383   3.422  -3.559  0.00  0.00    -0.305 NA
ATOM     14  C   UNL     1      11.685   3.863  -0.976  0.00  0.00    +0.059 C 
ATOM     17  C   UNL     1      12.067   2.701  -1.896  0.00  0.00    +0.034 C 
ATOM     18  C   UNL     1      11.099   5.012  -1.802  0.00  0.00    +0.034 C 
ATOM     19  C   UNL     1      10.886   2.286  -2.775  0.00  0.00    +0.085 C 
ATOM     20  C   UNL     1       9.949   4.521  -2.684  0.00  0.00    +0.085 C 
ATOM     25  C   UNL     1       9.287   2.999  -4.430  0.00  0.00    +0.104 C 
ENDBRANCH   5  14
BRANCH  21   8
ATOM      8  N   UNL     1      12.692   6.179   3.931  0.00  0.00    -0.215 N 
ATOM     33  H   UNL     1      13.147   6.114   4.850  0.00  0.00    +0.174 HD
BRANCH   8   1
ATOM      1  S   UNL     1      11.064   6.627   3.958  0.00  0.00    +0.072 S 
ATOM      3  O   UNL     1      10.956   8.072   4.050  0.00  0.00    -0.150 OA
ATOM      4  O   UNL     1      10.338   5.905   2.931  0.00  0.00    -0.150 OA
BRANCH   1  26
ATOM     26  C   UNL     1      10.574   5.961   5.520  0.00  0.00    +0.109 A 
ATOM     27  C   UNL     1      10.731   6.717   6.682  0.00  0.00    +0.029 A 
ATOM     28  C   UNL     1      10.028   4.679   5.591  0.00  0.00    +0.029 A 
ATOM     29  C   UNL     1      10.341   6.191   7.915  0.00  0.00    +0.005 A 
ATOM     30  C   UNL     1       9.639   4.153   6.823  0.00  0.00    +0.005 A 
ATOM     31  C   UNL     1       9.796   4.908   7.985  0.00  0.00    -0.050 A 
ATOM     32  C   UNL     1       9.381   4.346   9.302  0.00  0.00    +0.044 C 
ENDBRANCH   1  26
ENDBRANCH   8   1
ENDBRANCH  21   8
TORSDOF 4
ENDMDL
MODEL 10
REMARK VINA RESULT:      -6.6     15.643     19.440
REMARK  Name = 26742314
REMARK  6 active torsions:
REMARK  status: ('A' for Active; 'I' for Inactive)
REMARK    1  A    between atoms: S_1  and  N_8
REMARK    2  A    between atoms: S_1  and  C_26
REMARK    3  A    between atoms: N_5  and  C_14
REMARK    4  A    between atoms: N_7  and  C_25
REMARK    5  A    between atoms: N_8  and  C_21
REMARK    6  A    between atoms: C_31  and  C_32
REMARK                            x       y       z     vdW  Elec       q    Type
REMARK                         _______ _______ _______ _____ _____    ______ ____
ROOT
ATOM      2  O   UNL     1       7.240   9.797   4.863  0.00  0.00    -0.268 OA
ATOM      5  N   UNL     1      11.503   7.728   6.530  0.00  0.00    -0.298 NA
ATOM      6  N   UNL     1       8.622   7.928   5.162  0.00  0.00    -0.310 N 
ATOM      9  C   UNL     1       9.279   7.084   7.492  0.00  0.00    +0.024 C 
ATOM     10  C   UNL     1      10.110   5.929   5.499  0.00  0.00    +0.052 C 
ATOM     11  C   UNL     1       9.352   5.728   6.810  0.00  0.00    +0.017 C 
ATOM     12  C   UNL     1      10.699   7.628   7.755  0.00  0.00    +0.090 C 
ATOM     13  C   UNL     1      11.534   6.450   5.804  0.00  0.00    +0.094 C 
ATOM     15  C   UNL     1       8.440   8.019   6.618  0.00  0.00    +0.130 C 
ATOM     16  C   UNL     1       9.377   6.896   4.570  0.00  0.00    +0.049 A 
ATOM     21  C   UNL     1       9.428   6.828   3.224  0.00  0.00    +0.068 A 
ATOM     22  C   UNL     1       7.925   8.884   4.397  0.00  0.00    +0.252 A 
ATOM     23  C   UNL     1       8.735   7.765   2.387  0.00  0.00    +0.031 A 
ATOM     24  C   UNL     1       8.021   8.758   2.920  0.00  0.00    +0.072 A 
ENDROOT
BRANCH   5  14
ATOM      7  N   UNL     1      15.400   9.302   5.902  0.00  0.00    -0.305 NA
ATOM     14  C   UNL     1      12.855   8.195   6.828  0.00  0.00    +0.059 C 
ATOM     17  C   UNL     1      13.009   9.663   6.427  0.00  0.00    +0.034 C 
ATOM     18  C   UNL     1      13.901   7.343   6.103  0.00  0.00    +0.034 C 
ATOM     19  C   UNL     1      14.447  10.142   6.639  0.00  0.00    +0.085 C 
ATOM     20  C   UNL     1      15.310   7.897   6.326  0.00  0.00    +0.085 C 
ATOM     25  C   UNL     1      16.764   9.800   6.074  0.00  0.00    +0.104 C 
ENDBRANCH   5  14
BRANCH  21   8
ATOM      8  N   UNL     1      10.206   5.819   2.609  0.00  0.00    -0.215 N 
ATOM     33  H   UNL     1       9.668   5.106   2.102  0.00  0.00    +0.174 HD
BRANCH   8   1
ATOM      1  S   UNL     1      11.643   6.308   1.868  0.00  0.00    +0.072 S 
ATOM      3  O   UNL     1      11.456   7.606   1.246  0.00  0.00    -0.150 OA
ATOM      4  O   UNL     1      12.760   6.082   2.765  0.00  0.00    -0.150 OA
BRANCH   1  26
ATOM     26  C   UNL     1      11.757   5.112   0.571  0.00  0.00    +0.109 A 
ATOM     27  C   UNL     1      12.808   4.194   0.558  0.00  0.00    +0.029 A 
ATOM     28  C   UNL     1      10.795   5.085  -0.438  0.00  0.00    +0.029 A 
ATOM     29  C   UNL     1      12.896   3.249  -0.465  0.00  0.00    +0.005 A 
ATOM     30  C   UNL     1      10.883   4.140  -1.462  0.00  0.00    +0.005 A 
ATOM     31  C   UNL     1      11.934   3.223  -1.475  0.00  0.00    -0.050 A 
ATOM     32  C   UNL     1      12.030   2.214  -2.569  0.00  0.00    +0.044 C 
ENDBRANCH   1  26
ENDBRANCH   8   1
ENDBRANCH  21   8
TORSDOF 4
ENDMDL
