MODEL 1
REMARK VINA RESULT:      -6.8      0.000      0.000
REMARK  Name = 75536647
REMARK  8 active torsions:
REMARK  status: ('A' for Active; 'I' for Inactive)
REMARK    1  A    between atoms: O_3  and  C_10
REMARK    2  A    between atoms: N_5  and  C_9
REMARK    3  A    between atoms: N_5  and  C_14
REMARK    4  A    between atoms: N_6  and  C_13
REMARK    5  A    between atoms: N_7  and  C_19
REMARK    6  A    between atoms: C_11  and  C_13
REMARK    7  A    between atoms: C_14  and  C_15
REMARK    8  A    between atoms: C_16  and  C_18
REMARK                            x       y       z     vdW  Elec       q    Type
REMARK                         _______ _______ _______ _____ _____    ______ ____
ROOT
ATOM      2  O   UNL     1      14.053   8.895  22.396  0.00  0.00    -0.371 OA
ATOM      9  C   UNL     1      12.816   7.289  21.158  0.00  0.00    +0.111 C 
ATOM     10  C   UNL     1      14.272   7.221  20.740  0.00  0.00    +0.164 C 
ATOM     11  C   UNL     1      14.952   7.871  21.937  0.00  0.00    +0.165 C 
ATOM     12  C   UNL     1      12.756   8.656  21.820  0.00  0.00    +0.181 C 
ENDROOT
BRANCH  10   3
ATOM      3  O   UNL     1      14.720   5.894  20.537  0.00  0.00    -0.388 OA
ATOM     27  H   UNL     1      14.194   5.500  19.820  0.00  0.00    +0.210 HD
ENDBRANCH  10   3
BRANCH   9   5
ATOM      5  N   UNL     1      11.884   7.157  20.049  0.00  0.00    -0.302 NA
ATOM     26  H   UNL     1      11.130   6.525  20.320  0.00  0.00    +0.123 HD
BRANCH   5  14
ATOM     14  C   UNL     1      11.311   8.448  19.688  0.00  0.00    +0.156 C 
BRANCH  14  15
ATOM      7  N   UNL     1      12.448   9.329  17.624  0.00  0.00    -0.336 N 
ATOM      8  N   UNL     1      10.474   8.360  17.318  0.00  0.00    -0.239 NA
ATOM     15  C   UNL     1      11.383   8.699  18.205  0.00  0.00    +0.123 A 
ATOM     17  C   UNL     1      12.203   9.396  16.282  0.00  0.00    +0.106 A 
ATOM     19  C   UNL     1      13.625   9.837  18.291  0.00  0.00    +0.150 C 
ATOM     20  C   UNL     1      10.979   8.791  16.118  0.00  0.00    +0.130 A 
ENDBRANCH  14  15
ENDBRANCH   5  14
ENDBRANCH   9   5
BRANCH  11  13
ATOM     13  C   UNL     1      16.299   8.485  21.603  0.00  0.00    +0.138 C 
BRANCH  13   6
ATOM      4  O   UNL     1      19.111   8.860  22.055  0.00  0.00    -0.270 OA
ATOM      6  N   UNL     1      17.322   7.484  21.516  0.00  0.00    -0.309 N 
ATOM     16  C   UNL     1      18.666   7.755  21.754  0.00  0.00    +0.244 C 
ATOM     28  H   UNL     1      17.032   6.563  21.202  0.00  0.00    +0.149 HD
BRANCH  16  18
ATOM      1  F   UNL     1      22.207   3.438  21.164  0.00  0.00    -0.205 F 
ATOM     18  C   UNL     1      19.604   6.614  21.597  0.00  0.00    +0.037 A 
ATOM     21  C   UNL     1      20.551   6.348  22.586  0.00  0.00    +0.016 A 
ATOM     22  C   UNL     1      19.536   5.806  20.463  0.00  0.00    +0.016 A 
ATOM     23  C   UNL     1      21.431   5.276  22.441  0.00  0.00    +0.039 A 
ATOM     24  C   UNL     1      20.416   4.734  20.316  0.00  0.00    +0.039 A 
ATOM     25  C   UNL     1      21.363   4.468  21.305  0.00  0.00    +0.123 A 
ENDBRANCH  16  18
ENDBRANCH  13   6
ENDBRANCH  11  13
TORSDOF 7
ENDMDL
MODEL 2
REMARK VINA RESULT:      -6.4     26.860     28.604
REMARK  Name = 75536647
REMARK  8 active torsions:
REMARK  status: ('A' for Active; 'I' for Inactive)
REMARK    1  A    between atoms: O_3  and  C_10
REMARK    2  A    between atoms: N_5  and  C_9
REMARK    3  A    between atoms: N_5  and  C_14
REMARK    4  A    between atoms: N_6  and  C_13
REMARK    5  A    between atoms: N_7  and  C_19
REMARK    6  A    between atoms: C_11  and  C_13
REMARK    7  A    between atoms: C_14  and  C_15
REMARK    8  A    between atoms: C_16  and  C_18
REMARK                            x       y       z     vdW  Elec       q    Type
REMARK                         _______ _______ _______ _____ _____    ______ ____
ROOT
ATOM      2  O   UNL     1      -3.999 -11.842  18.488  0.00  0.00    -0.371 OA
ATOM      9  C   UNL     1      -6.235 -11.068  18.277  0.00  0.00    +0.111 C 
ATOM     10  C   UNL     1      -5.388 -10.434  17.191  0.00  0.00    +0.164 C 
ATOM     11  C   UNL     1      -4.210 -11.396  17.137  0.00  0.00    +0.165 C 
ATOM     12  C   UNL     1      -5.171 -11.525  19.261  0.00  0.00    +0.181 C 
ENDROOT
BRANCH  10   3
ATOM      3  O   UNL     1      -6.061 -10.355  15.949  0.00  0.00    -0.388 OA
ATOM     27  H   UNL     1      -6.476  -9.478  15.881  0.00  0.00    +0.210 HD
ENDBRANCH  10   3
BRANCH   9   5
ATOM      5  N   UNL     1      -7.200 -10.157  18.871  0.00  0.00    -0.302 NA
ATOM     26  H   UNL     1      -7.018  -9.211  18.535  0.00  0.00    +0.123 HD
BRANCH   5  14
ATOM     14  C   UNL     1      -8.564 -10.530  18.514  0.00  0.00    +0.156 C 
BRANCH  14  15
ATOM      7  N   UNL     1     -10.559  -9.140  17.871  0.00  0.00    -0.336 N 
ATOM      8  N   UNL     1      -8.682  -8.737  16.756  0.00  0.00    -0.239 NA
ATOM     15  C   UNL     1      -9.242  -9.463  17.698  0.00  0.00    +0.123 A 
ATOM     17  C   UNL     1     -10.858  -8.145  16.984  0.00  0.00    +0.106 A 
ATOM     19  C   UNL     1     -11.480  -9.730  18.814  0.00  0.00    +0.150 C 
ATOM     20  C   UNL     1      -9.683  -7.913  16.307  0.00  0.00    +0.130 A 
ENDBRANCH  14  15
ENDBRANCH   5  14
ENDBRANCH   9   5
BRANCH  11  13
ATOM     13  C   UNL     1      -2.938 -10.761  16.603  0.00  0.00    +0.138 C 
BRANCH  13   6
ATOM      4  O   UNL     1      -2.515 -12.291  14.209  0.00  0.00    -0.270 OA
ATOM      6  N   UNL     1      -3.110 -10.306  15.254  0.00  0.00    -0.309 N 
ATOM     16  C   UNL     1      -2.882 -11.120  14.148  0.00  0.00    +0.244 C 
ATOM     28  H   UNL     1      -3.344  -9.326  15.131  0.00  0.00    +0.149 HD
BRANCH  16  18
ATOM      1  F   UNL     1      -3.625  -8.733   9.121  0.00  0.00    -0.205 F 
ATOM     18  C   UNL     1      -3.079 -10.490  12.818  0.00  0.00    +0.037 A 
ATOM     21  C   UNL     1      -4.368 -10.251  12.343  0.00  0.00    +0.016 A 
ATOM     22  C   UNL     1      -1.974 -10.134  12.044  0.00  0.00    +0.016 A 
ATOM     23  C   UNL     1      -4.553  -9.658  11.094  0.00  0.00    +0.039 A 
ATOM     24  C   UNL     1      -2.158  -9.542  10.795  0.00  0.00    +0.039 A 
ATOM     25  C   UNL     1      -3.448  -9.303  10.320  0.00  0.00    +0.123 A 
ENDBRANCH  16  18
ENDBRANCH  13   6
ENDBRANCH  11  13
TORSDOF 7
ENDMDL
MODEL 3
REMARK VINA RESULT:      -6.1     27.106     30.309
REMARK  Name = 75536647
REMARK  8 active torsions:
REMARK  status: ('A' for Active; 'I' for Inactive)
REMARK    1  A    between atoms: O_3  and  C_10
REMARK    2  A    between atoms: N_5  and  C_9
REMARK    3  A    between atoms: N_5  and  C_14
REMARK    4  A    between atoms: N_6  and  C_13
REMARK    5  A    between atoms: N_7  and  C_19
REMARK    6  A    between atoms: C_11  and  C_13
REMARK    7  A    between atoms: C_14  and  C_15
REMARK    8  A    between atoms: C_16  and  C_18
REMARK                            x       y       z     vdW  Elec       q    Type
REMARK                         _______ _______ _______ _____ _____    ______ ____
ROOT
ATOM      2  O   UNL     1      -7.282 -13.112  18.524  0.00  0.00    -0.371 OA
ATOM      9  C   UNL     1      -5.591 -11.444  18.491  0.00  0.00    +0.111 C 
ATOM     10  C   UNL     1      -6.868 -10.842  19.044  0.00  0.00    +0.164 C 
ATOM     11  C   UNL     1      -7.617 -12.093  19.481  0.00  0.00    +0.165 C 
ATOM     12  C   UNL     1      -6.121 -12.684  17.789  0.00  0.00    +0.181 C 
ENDROOT
BRANCH  10   3
ATOM      3  O   UNL     1      -6.633  -9.962  20.127  0.00  0.00    -0.388 OA
ATOM     27  H   UNL     1      -5.690  -9.725  20.129  0.00  0.00    +0.210 HD
ENDBRANCH  10   3
BRANCH   9   5
ATOM      5  N   UNL     1      -4.866 -10.555  17.597  0.00  0.00    -0.302 NA
ATOM     26  H   UNL     1      -3.959 -10.334  18.009  0.00  0.00    +0.123 HD
BRANCH   5  14
ATOM     14  C   UNL     1      -4.653 -11.178  16.296  0.00  0.00    +0.156 C 
BRANCH  14  15
ATOM      7  N   UNL     1      -3.100 -10.613  14.398  0.00  0.00    -0.336 N 
ATOM      8  N   UNL     1      -2.178 -10.749  16.414  0.00  0.00    -0.239 NA
ATOM     15  C   UNL     1      -3.297 -10.849  15.731  0.00  0.00    +0.123 A 
ATOM     17  C   UNL     1      -1.773 -10.347  14.221  0.00  0.00    +0.106 A 
ATOM     19  C   UNL     1      -4.101 -10.637  13.356  0.00  0.00    +0.150 C 
ATOM     20  C   UNL     1      -1.225 -10.436  15.478  0.00  0.00    +0.130 A 
ENDBRANCH  14  15
ENDBRANCH   5  14
ENDBRANCH   9   5
BRANCH  11  13
ATOM     13  C   UNL     1      -9.123 -11.907  19.525  0.00  0.00    +0.138 C 
BRANCH  13   6
ATOM      4  O   UNL     1     -11.216  -9.991  19.968  0.00  0.00    -0.270 OA
ATOM      6  N   UNL     1      -9.548 -10.878  18.621  0.00  0.00    -0.309 N 
ATOM     16  C   UNL     1     -10.576  -9.989  18.920  0.00  0.00    +0.244 C 
ATOM     28  H   UNL     1      -9.107 -10.865  17.707  0.00  0.00    +0.149 HD
BRANCH  16  18
ATOM      1  F   UNL     1     -11.853  -6.240  14.940  0.00  0.00    -0.205 F 
ATOM     18  C   UNL     1     -10.914  -8.998  17.866  0.00  0.00    +0.037 A 
ATOM     21  C   UNL     1     -12.215  -8.926  17.367  0.00  0.00    +0.016 A 
ATOM     22  C   UNL     1      -9.931  -8.137  17.376  0.00  0.00    +0.016 A 
ATOM     23  C   UNL     1     -12.532  -7.995  16.378  0.00  0.00    +0.039 A 
ATOM     24  C   UNL     1     -10.248  -7.207  16.387  0.00  0.00    +0.039 A 
ATOM     25  C   UNL     1     -11.549  -7.135  15.888  0.00  0.00    +0.123 A 
ENDBRANCH  16  18
ENDBRANCH  13   6
ENDBRANCH  11  13
TORSDOF 7
ENDMDL
MODEL 4
REMARK VINA RESULT:      -6.1     29.017     31.587
REMARK  Name = 75536647
REMARK  8 active torsions:
REMARK  status: ('A' for Active; 'I' for Inactive)
REMARK    1  A    between atoms: O_3  and  C_10
REMARK    2  A    between atoms: N_5  and  C_9
REMARK    3  A    between atoms: N_5  and  C_14
REMARK    4  A    between atoms: N_6  and  C_13
REMARK    5  A    between atoms: N_7  and  C_19
REMARK    6  A    between atoms: C_11  and  C_13
REMARK    7  A    between atoms: C_14  and  C_15
REMARK    8  A    between atoms: C_16  and  C_18
REMARK                            x       y       z     vdW  Elec       q    Type
REMARK                         _______ _______ _______ _____ _____    ______ ____
ROOT
ATOM      2  O   UNL     1     -12.521  -9.968  18.290  0.00  0.00    -0.371 OA
ATOM      9  C   UNL     1     -12.332 -10.792  20.510  0.00  0.00    +0.111 C 
ATOM     10  C   UNL     1     -10.945 -10.501  19.971  0.00  0.00    +0.164 C 
ATOM     11  C   UNL     1     -11.266  -9.533  18.840  0.00  0.00    +0.165 C 
ATOM     12  C   UNL     1     -13.144 -10.865  19.227  0.00  0.00    +0.181 C 
ENDROOT
BRANCH  10   3
ATOM      3  O   UNL     1     -10.095  -9.916  20.939  0.00  0.00    -0.388 OA
ATOM     27  H   UNL     1     -10.283  -8.963  20.976  0.00  0.00    +0.210 HD
ENDBRANCH  10   3
BRANCH   9   5
ATOM      5  N   UNL     1     -12.408 -12.013  21.296  0.00  0.00    -0.302 NA
ATOM     26  H   UNL     1     -13.385 -12.209  21.515  0.00  0.00    +0.123 HD
BRANCH   5  14
ATOM     14  C   UNL     1     -11.852 -13.145  20.565  0.00  0.00    +0.156 C 
BRANCH  14  15
ATOM      7  N   UNL     1      -9.598 -14.172  21.007  0.00  0.00    -0.336 N 
ATOM      8  N   UNL     1     -11.140 -14.476  22.576  0.00  0.00    -0.239 NA
ATOM     15  C   UNL     1     -10.885 -13.936  21.405  0.00  0.00    +0.123 A 
ATOM     17  C   UNL     1      -8.996 -14.909  21.986  0.00  0.00    +0.106 A 
ATOM     19  C   UNL     1      -8.974 -13.731  19.782  0.00  0.00    +0.150 C 
ATOM     20  C   UNL     1      -9.967 -15.084  22.944  0.00  0.00    +0.130 A 
ENDBRANCH  14  15
ENDBRANCH   5  14
ENDBRANCH   9   5
BRANCH  11  13
ATOM     13  C   UNL     1     -10.210  -9.510  17.750  0.00  0.00    +0.138 C 
BRANCH  13   6
ATOM      4  O   UNL     1      -7.592  -9.010  16.679  0.00  0.00    -0.270 OA
ATOM      6  N   UNL     1      -8.974 -10.074  18.210  0.00  0.00    -0.309 N 
ATOM     16  C   UNL     1      -7.745  -9.774  17.629  0.00  0.00    +0.244 C 
ATOM     28  H   UNL     1      -9.038 -10.768  18.948  0.00  0.00    +0.149 HD
BRANCH  16  18
ATOM      1  F   UNL     1      -3.273 -12.380  19.804  0.00  0.00    -0.205 F 
ATOM     18  C   UNL     1      -6.561 -10.462  18.205  0.00  0.00    +0.037 A 
ATOM     21  C   UNL     1      -6.582 -10.893  19.532  0.00  0.00    +0.016 A 
ATOM     22  C   UNL     1      -5.430 -10.680  17.419  0.00  0.00    +0.016 A 
ATOM     23  C   UNL     1      -5.471 -11.541  20.072  0.00  0.00    +0.039 A 
ATOM     24  C   UNL     1      -4.319 -11.327  17.959  0.00  0.00    +0.039 A 
ATOM     25  C   UNL     1      -4.339 -11.758  19.286  0.00  0.00    +0.123 A 
ENDBRANCH  16  18
ENDBRANCH  13   6
ENDBRANCH  11  13
TORSDOF 7
ENDMDL
MODEL 5
REMARK VINA RESULT:      -6.1      2.606      3.920
REMARK  Name = 75536647
REMARK  8 active torsions:
REMARK  status: ('A' for Active; 'I' for Inactive)
REMARK    1  A    between atoms: O_3  and  C_10
REMARK    2  A    between atoms: N_5  and  C_9
REMARK    3  A    between atoms: N_5  and  C_14
REMARK    4  A    between atoms: N_6  and  C_13
REMARK    5  A    between atoms: N_7  and  C_19
REMARK    6  A    between atoms: C_11  and  C_13
REMARK    7  A    between atoms: C_14  and  C_15
REMARK    8  A    between atoms: C_16  and  C_18
REMARK                            x       y       z     vdW  Elec       q    Type
REMARK                         _______ _______ _______ _____ _____    ______ ____
ROOT
ATOM      2  O   UNL     1      17.932   7.085  21.566  0.00  0.00    -0.371 OA
ATOM      9  C   UNL     1      16.344   6.443  19.920  0.00  0.00    +0.111 C 
ATOM     10  C   UNL     1      17.741   6.271  19.353  0.00  0.00    +0.164 C 
ATOM     11  C   UNL     1      18.568   6.199  20.630  0.00  0.00    +0.165 C 
ATOM     12  C   UNL     1      16.607   7.378  21.089  0.00  0.00    +0.181 C 
ENDROOT
BRANCH  10   3
ATOM      3  O   UNL     1      17.873   5.099  18.573  0.00  0.00    -0.388 OA
ATOM     27  H   UNL     1      17.469   5.263  17.703  0.00  0.00    +0.210 HD
ENDBRANCH  10   3
BRANCH   9   5
ATOM      5  N   UNL     1      15.390   6.985  18.965  0.00  0.00    -0.302 NA
ATOM     26  H   UNL     1      14.604   6.341  18.877  0.00  0.00    +0.123 HD
BRANCH   5  14
ATOM     14  C   UNL     1      14.891   8.284  19.402  0.00  0.00    +0.156 C 
BRANCH  14  15
ATOM      7  N   UNL     1      12.590   8.313  20.418  0.00  0.00    -0.336 N 
ATOM      8  N   UNL     1      12.688   8.497  18.208  0.00  0.00    -0.239 NA
ATOM     15  C   UNL     1      13.391   8.367  19.311  0.00  0.00    +0.123 A 
ATOM     17  C   UNL     1      11.296   8.416  19.994  0.00  0.00    +0.106 A 
ATOM     19  C   UNL     1      13.017   8.175  21.791  0.00  0.00    +0.150 C 
ATOM     20  C   UNL     1      11.382   8.528  18.626  0.00  0.00    +0.130 A 
ENDBRANCH  14  15
ENDBRANCH   5  14
ENDBRANCH   9   5
BRANCH  11  13
ATOM     13  C   UNL     1      20.015   6.615  20.432  0.00  0.00    +0.138 C 
BRANCH  13   6
ATOM      4  O   UNL     1      22.886   6.694  20.398  0.00  0.00    -0.270 OA
ATOM      6  N   UNL     1      20.905   5.502  20.591  0.00  0.00    -0.309 N 
ATOM     16  C   UNL     1      22.290   5.633  20.562  0.00  0.00    +0.244 C 
ATOM     28  H   UNL     1      20.477   4.584  20.660  0.00  0.00    +0.149 HD
BRANCH  16  18
ATOM      1  F   UNL     1      25.239   0.890  21.137  0.00  0.00    -0.205 F 
ATOM     18  C   UNL     1      23.071   4.378  20.715  0.00  0.00    +0.037 A 
ATOM     21  C   UNL     1      22.653   3.402  21.619  0.00  0.00    +0.016 A 
ATOM     22  C   UNL     1      24.222   4.175  19.953  0.00  0.00    +0.016 A 
ATOM     23  C   UNL     1      23.385   2.224  21.762  0.00  0.00    +0.039 A 
ATOM     24  C   UNL     1      24.955   2.998  20.096  0.00  0.00    +0.039 A 
ATOM     25  C   UNL     1      24.536   2.022  21.001  0.00  0.00    +0.123 A 
ENDBRANCH  16  18
ENDBRANCH  13   6
ENDBRANCH  11  13
TORSDOF 7
ENDMDL
MODEL 6
REMARK VINA RESULT:      -6.1      2.847      4.083
REMARK  Name = 75536647
REMARK  8 active torsions:
REMARK  status: ('A' for Active; 'I' for Inactive)
REMARK    1  A    between atoms: O_3  and  C_10
REMARK    2  A    between atoms: N_5  and  C_9
REMARK    3  A    between atoms: N_5  and  C_14
REMARK    4  A    between atoms: N_6  and  C_13
REMARK    5  A    between atoms: N_7  and  C_19
REMARK    6  A    between atoms: C_11  and  C_13
REMARK    7  A    between atoms: C_14  and  C_15
REMARK    8  A    between atoms: C_16  and  C_18
REMARK                            x       y       z     vdW  Elec       q    Type
REMARK                         _______ _______ _______ _____ _____    ______ ____
ROOT
ATOM      2  O   UNL     1      13.011  12.838  21.849  0.00  0.00    -0.371 OA
ATOM      9  C   UNL     1      12.337  11.110  23.333  0.00  0.00    +0.111 C 
ATOM     10  C   UNL     1      13.798  10.913  22.974  0.00  0.00    +0.164 C 
ATOM     11  C   UNL     1      14.176  12.311  22.504  0.00  0.00    +0.165 C 
ATOM     12  C   UNL     1      11.876  12.034  22.218  0.00  0.00    +0.181 C 
ENDROOT
BRANCH  10   3
ATOM      3  O   UNL     1      14.580  10.499  24.078  0.00  0.00    -0.388 OA
ATOM     27  H   UNL     1      13.980  10.233  24.796  0.00  0.00    +0.210 HD
ENDBRANCH  10   3
BRANCH   9   5
ATOM      5  N   UNL     1      11.578   9.871  23.391  0.00  0.00    -0.302 NA
ATOM     26  H   UNL     1      10.874   9.944  24.125  0.00  0.00    +0.123 HD
BRANCH   5  14
ATOM     14  C   UNL     1      10.911   9.604  22.122  0.00  0.00    +0.156 C 
BRANCH  14  15
ATOM      7  N   UNL     1      12.196   8.209  20.469  0.00  0.00    -0.336 N 
ATOM      8  N   UNL     1      10.957   7.097  21.937  0.00  0.00    -0.239 NA
ATOM     15  C   UNL     1      11.337   8.287  21.530  0.00  0.00    +0.123 A 
ATOM     17  C   UNL     1      12.375   6.886  20.182  0.00  0.00    +0.106 A 
ATOM     19  C   UNL     1      12.812   9.313  19.769  0.00  0.00    +0.150 C 
ATOM     20  C   UNL     1      11.600   6.219  21.102  0.00  0.00    +0.130 A 
ENDBRANCH  14  15
ENDBRANCH   5  14
ENDBRANCH   9   5
BRANCH  11  13
ATOM     13  C   UNL     1      15.353  12.325  21.546  0.00  0.00    +0.138 C 
BRANCH  13   6
ATOM      4  O   UNL     1      18.009  11.317  21.972  0.00  0.00    -0.270 OA
ATOM      6  N   UNL     1      15.819  10.996  21.273  0.00  0.00    -0.309 N 
ATOM     16  C   UNL     1      17.130  10.592  21.512  0.00  0.00    +0.244 C 
ATOM     28  H   UNL     1      15.161  10.366  20.826  0.00  0.00    +0.149 HD
BRANCH  16  18
ATOM      1  F   UNL     1      18.384   5.294  20.142  0.00  0.00    -0.205 F 
ATOM     18  C   UNL     1      17.461   9.190  21.151  0.00  0.00    +0.037 A 
ATOM     21  C   UNL     1      16.538   8.414  20.450  0.00  0.00    +0.016 A 
ATOM     22  C   UNL     1      18.696   8.650  21.510  0.00  0.00    +0.016 A 
ATOM     23  C   UNL     1      16.849   7.098  20.109  0.00  0.00    +0.039 A 
ATOM     24  C   UNL     1      19.007   7.334  21.170  0.00  0.00    +0.039 A 
ATOM     25  C   UNL     1      18.084   6.558  20.470  0.00  0.00    +0.123 A 
ENDBRANCH  16  18
ENDBRANCH  13   6
ENDBRANCH  11  13
TORSDOF 7
ENDMDL
MODEL 7
REMARK VINA RESULT:      -5.9     26.745     29.809
REMARK  Name = 75536647
REMARK  8 active torsions:
REMARK  status: ('A' for Active; 'I' for Inactive)
REMARK    1  A    between atoms: O_3  and  C_10
REMARK    2  A    between atoms: N_5  and  C_9
REMARK    3  A    between atoms: N_5  and  C_14
REMARK    4  A    between atoms: N_6  and  C_13
REMARK    5  A    between atoms: N_7  and  C_19
REMARK    6  A    between atoms: C_11  and  C_13
REMARK    7  A    between atoms: C_14  and  C_15
REMARK    8  A    between atoms: C_16  and  C_18
REMARK                            x       y       z     vdW  Elec       q    Type
REMARK                         _______ _______ _______ _____ _____    ______ ____
ROOT
ATOM      2  O   UNL     1      -7.011 -12.578  18.257  0.00  0.00    -0.371 OA
ATOM      9  C   UNL     1      -4.902 -13.184  17.349  0.00  0.00    +0.111 C 
ATOM     10  C   UNL     1      -4.740 -11.923  18.175  0.00  0.00    +0.164 C 
ATOM     11  C   UNL     1      -5.975 -11.994  19.064  0.00  0.00    +0.165 C 
ATOM     12  C   UNL     1      -6.403 -13.197  17.110  0.00  0.00    +0.181 C 
ENDROOT
BRANCH  10   3
ATOM      3  O   UNL     1      -3.545 -11.916  18.933  0.00  0.00    -0.388 OA
ATOM     27  H   UNL     1      -3.717 -11.456  19.772  0.00  0.00    +0.210 HD
ENDBRANCH  10   3
BRANCH   9   5
ATOM      5  N   UNL     1      -4.133 -13.176  16.114  0.00  0.00    -0.302 NA
ATOM     26  H   UNL     1      -4.450 -13.941  15.518  0.00  0.00    +0.123 HD
BRANCH   5  14
ATOM     14  C   UNL     1      -4.304 -11.917  15.398  0.00  0.00    +0.156 C 
BRANCH  14  15
ATOM      7  N   UNL     1      -2.606 -10.596  14.094  0.00  0.00    -0.336 N 
ATOM      8  N   UNL     1      -2.134 -10.960  16.234  0.00  0.00    -0.239 NA
ATOM     15  C   UNL     1      -3.008 -11.163  15.272  0.00  0.00    +0.123 A 
ATOM     17  C   UNL     1      -1.401  -9.994  14.319  0.00  0.00    +0.106 A 
ATOM     19  C   UNL     1      -3.313 -10.619  12.835  0.00  0.00    +0.150 C 
ATOM     20  C   UNL     1      -1.131 -10.232  15.646  0.00  0.00    +0.130 A 
ENDBRANCH  14  15
ENDBRANCH   5  14
ENDBRANCH   9   5
BRANCH  11  13
ATOM     13  C   UNL     1      -6.426 -10.637  19.575  0.00  0.00    +0.138 C 
BRANCH  13   6
ATOM      4  O   UNL     1      -6.923  -9.312  17.075  0.00  0.00    -0.270 OA
ATOM      6  N   UNL     1      -7.705 -10.276  19.036  0.00  0.00    -0.309 N 
ATOM     16  C   UNL     1      -7.853  -9.633  17.810  0.00  0.00    +0.244 C 
ATOM     28  H   UNL     1      -8.512 -10.450  19.626  0.00  0.00    +0.149 HD
BRANCH  16  18
ATOM      1  F   UNL     1     -13.111  -8.387  16.288  0.00  0.00    -0.205 F 
ATOM     18  C   UNL     1      -9.244  -9.303  17.406  0.00  0.00    +0.037 A 
ATOM     21  C   UNL     1     -10.140 -10.325  17.091  0.00  0.00    +0.016 A 
ATOM     22  C   UNL     1      -9.656  -7.972  17.344  0.00  0.00    +0.016 A 
ATOM     23  C   UNL     1     -11.446 -10.016  16.713  0.00  0.00    +0.039 A 
ATOM     24  C   UNL     1     -10.961  -7.662  16.965  0.00  0.00    +0.039 A 
ATOM     25  C   UNL     1     -11.857  -8.684  16.650  0.00  0.00    +0.123 A 
ENDBRANCH  16  18
ENDBRANCH  13   6
ENDBRANCH  11  13
TORSDOF 7
ENDMDL
MODEL 8
REMARK VINA RESULT:      -5.9      2.836      3.705
REMARK  Name = 75536647
REMARK  8 active torsions:
REMARK  status: ('A' for Active; 'I' for Inactive)
REMARK    1  A    between atoms: O_3  and  C_10
REMARK    2  A    between atoms: N_5  and  C_9
REMARK    3  A    between atoms: N_5  and  C_14
REMARK    4  A    between atoms: N_6  and  C_13
REMARK    5  A    between atoms: N_7  and  C_19
REMARK    6  A    between atoms: C_11  and  C_13
REMARK    7  A    between atoms: C_14  and  C_15
REMARK    8  A    between atoms: C_16  and  C_18
REMARK                            x       y       z     vdW  Elec       q    Type
REMARK                         _______ _______ _______ _____ _____    ______ ____
ROOT
ATOM      2  O   UNL     1      18.108   8.244  21.047  0.00  0.00    -0.371 OA
ATOM      9  C   UNL     1      15.755   8.299  21.367  0.00  0.00    +0.111 C 
ATOM     10  C   UNL     1      16.113   7.084  20.533  0.00  0.00    +0.164 C 
ATOM     11  C   UNL     1      17.587   6.915  20.876  0.00  0.00    +0.165 C 
ATOM     12  C   UNL     1      17.003   9.152  21.207  0.00  0.00    +0.181 C 
ENDROOT
BRANCH  10   3
ATOM      3  O   UNL     1      15.356   5.940  20.882  0.00  0.00    -0.388 OA
ATOM     27  H   UNL     1      15.965   5.189  20.982  0.00  0.00    +0.210 HD
ENDBRANCH  10   3
BRANCH   9   5
ATOM      5  N   UNL     1      14.547   8.977  20.922  0.00  0.00    -0.302 NA
ATOM     26  H   UNL     1      14.122   8.440  20.166  0.00  0.00    +0.123 HD
BRANCH   5  14
ATOM     14  C   UNL     1      13.585   9.103  22.011  0.00  0.00    +0.156 C 
BRANCH  14  15
ATOM      7  N   UNL     1      11.165   8.446  22.207  0.00  0.00    -0.336 N 
ATOM      8  N   UNL     1      12.545   6.888  21.434  0.00  0.00    -0.239 NA
ATOM     15  C   UNL     1      12.451   8.123  21.873  0.00  0.00    +0.123 A 
ATOM     17  C   UNL     1      10.391   7.347  21.965  0.00  0.00    +0.106 A 
ATOM     19  C   UNL     1      10.694   9.711  22.721  0.00  0.00    +0.150 C 
ATOM     20  C   UNL     1      11.264   6.399  21.489  0.00  0.00    +0.130 A 
ENDBRANCH  14  15
ENDBRANCH   5  14
ENDBRANCH   9   5
BRANCH  11  13
ATOM     13  C   UNL     1      18.375   6.190  19.800  0.00  0.00    +0.138 C 
BRANCH  13   6
ATOM      4  O   UNL     1      21.025   7.184  20.289  0.00  0.00    -0.270 OA
ATOM      6  N   UNL     1      19.474   5.459  20.362  0.00  0.00    -0.309 N 
ATOM     16  C   UNL     1      20.730   6.024  20.565  0.00  0.00    +0.244 C 
ATOM     28  H   UNL     1      19.317   4.474  20.547  0.00  0.00    +0.149 HD
BRANCH  16  18
ATOM      1  F   UNL     1      24.653   2.629  22.710  0.00  0.00    -0.205 F 
ATOM     18  C   UNL     1      21.769   5.125  21.131  0.00  0.00    +0.037 A 
ATOM     21  C   UNL     1      22.927   5.664  21.691  0.00  0.00    +0.016 A 
ATOM     22  C   UNL     1      21.585   3.743  21.106  0.00  0.00    +0.016 A 
ATOM     23  C   UNL     1      23.902   4.822  22.224  0.00  0.00    +0.039 A 
ATOM     24  C   UNL     1      22.559   2.900  21.639  0.00  0.00    +0.039 A 
ATOM     25  C   UNL     1      23.718   3.439  22.198  0.00  0.00    +0.123 A 
ENDBRANCH  16  18
ENDBRANCH  13   6
ENDBRANCH  11  13
TORSDOF 7
ENDMDL
MODEL 9
REMARK VINA RESULT:      -5.9     15.144     18.724
REMARK  Name = 75536647
REMARK  8 active torsions:
REMARK  status: ('A' for Active; 'I' for Inactive)
REMARK    1  A    between atoms: O_3  and  C_10
REMARK    2  A    between atoms: N_5  and  C_9
REMARK    3  A    between atoms: N_5  and  C_14
REMARK    4  A    between atoms: N_6  and  C_13
REMARK    5  A    between atoms: N_7  and  C_19
REMARK    6  A    between atoms: C_11  and  C_13
REMARK    7  A    between atoms: C_14  and  C_15
REMARK    8  A    between atoms: C_16  and  C_18
REMARK                            x       y       z     vdW  Elec       q    Type
REMARK                         _______ _______ _______ _____ _____    ______ ____
ROOT
ATOM      2  O   UNL     1      12.504   7.981   1.506  0.00  0.00    -0.371 OA
ATOM      9  C   UNL     1      13.528   5.858   1.799  0.00  0.00    +0.111 C 
ATOM     10  C   UNL     1      12.463   6.045   2.863  0.00  0.00    +0.164 C 
ATOM     11  C   UNL     1      11.601   7.128   2.229  0.00  0.00    +0.165 C 
ATOM     12  C   UNL     1      13.756   7.291   1.348  0.00  0.00    +0.181 C 
ENDROOT
BRANCH  10   3
ATOM      3  O   UNL     1      11.726   4.862   3.111  0.00  0.00    -0.388 OA
ATOM     27  H   UNL     1      11.608   4.771   4.072  0.00  0.00    +0.210 HD
ENDBRANCH  10   3
BRANCH   9   5
ATOM      5  N   UNL     1      14.739   5.221   2.291  0.00  0.00    -0.302 NA
ATOM     26  H   UNL     1      14.712   5.196   3.311  0.00  0.00    +0.123 HD
BRANCH   5  14
ATOM     14  C   UNL     1      14.856   3.857   1.789  0.00  0.00    +0.156 C 
BRANCH  14  15
ATOM      7  N   UNL     1      14.602   3.914  -0.713  0.00  0.00    -0.336 N 
ATOM      8  N   UNL     1      12.831   3.228   0.438  0.00  0.00    -0.239 NA
ATOM     15  C   UNL     1      14.071   3.657   0.521  0.00  0.00    +0.123 A 
ATOM     17  C   UNL     1      13.640   3.631  -1.640  0.00  0.00    +0.106 A 
ATOM     19  C   UNL     1      15.933   4.395  -1.001  0.00  0.00    +0.150 C 
ATOM     20  C   UNL     1      12.557   3.210  -0.906  0.00  0.00    +0.130 A 
ENDBRANCH  14  15
ENDBRANCH   5  14
ENDBRANCH   9   5
BRANCH  11  13
ATOM     13  C   UNL     1      10.822   7.946   3.243  0.00  0.00    +0.138 C 
BRANCH  13   6
ATOM      4  O   UNL     1       8.358   7.140   4.479  0.00  0.00    -0.270 OA
ATOM      6  N   UNL     1      10.677   7.240   4.482  0.00  0.00    -0.309 N 
ATOM     16  C   UNL     1       9.437   6.888   5.009  0.00  0.00    +0.244 C 
ATOM     28  H   UNL     1      11.527   7.062   5.007  0.00  0.00    +0.149 HD
BRANCH  16  18
ATOM      1  F   UNL     1       9.505   4.218   9.947  0.00  0.00    -0.205 F 
ATOM     18  C   UNL     1       9.456   6.182   6.316  0.00  0.00    +0.037 A 
ATOM     21  C   UNL     1       9.061   6.849   7.475  0.00  0.00    +0.016 A 
ATOM     22  C   UNL     1       9.868   4.851   6.384  0.00  0.00    +0.016 A 
ATOM     23  C   UNL     1       9.077   6.186   8.702  0.00  0.00    +0.039 A 
ATOM     24  C   UNL     1       9.885   4.188   7.610  0.00  0.00    +0.039 A 
ATOM     25  C   UNL     1       9.489   4.855   8.770  0.00  0.00    +0.123 A 
ENDBRANCH  16  18
ENDBRANCH  13   6
ENDBRANCH  11  13
TORSDOF 7
ENDMDL
MODEL 10
REMARK VINA RESULT:      -5.8     27.326     29.305
REMARK  Name = 75536647
REMARK  8 active torsions:
REMARK  status: ('A' for Active; 'I' for Inactive)
REMARK    1  A    between atoms: O_3  and  C_10
REMARK    2  A    between atoms: N_5  and  C_9
REMARK    3  A    between atoms: N_5  and  C_14
REMARK    4  A    between atoms: N_6  and  C_13
REMARK    5  A    between atoms: N_7  and  C_19
REMARK    6  A    between atoms: C_11  and  C_13
REMARK    7  A    between atoms: C_14  and  C_15
REMARK    8  A    between atoms: C_16  and  C_18
REMARK                            x       y       z     vdW  Elec       q    Type
REMARK                         _______ _______ _______ _____ _____    ______ ____
ROOT
ATOM      2  O   UNL     1      -5.165 -10.161  16.881  0.00  0.00    -0.371 OA
ATOM      9  C   UNL     1      -5.427 -10.826  19.147  0.00  0.00    +0.111 C 
ATOM     10  C   UNL     1      -4.386 -11.712  18.488  0.00  0.00    +0.164 C 
ATOM     11  C   UNL     1      -3.976 -10.850  17.301  0.00  0.00    +0.165 C 
ATOM     12  C   UNL     1      -6.141 -10.249  17.936  0.00  0.00    +0.181 C 
ENDROOT
BRANCH  10   3
ATOM      3  O   UNL     1      -3.291 -11.993  19.339  0.00  0.00    -0.388 OA
ATOM     27  H   UNL     1      -3.511 -11.682  20.234  0.00  0.00    +0.210 HD
ENDBRANCH  10   3
BRANCH   9   5
ATOM      5  N   UNL     1      -6.321 -11.543  20.042  0.00  0.00    -0.302 NA
ATOM     26  H   UNL     1      -6.839 -10.869  20.607  0.00  0.00    +0.123 HD
BRANCH   5  14
ATOM     14  C   UNL     1      -7.270 -12.359  19.294  0.00  0.00    +0.156 C 
BRANCH  14  15
ATOM      7  N   UNL     1      -9.520 -12.985  20.227  0.00  0.00    -0.336 N 
ATOM      8  N   UNL     1      -9.301 -10.894  19.515  0.00  0.00    -0.239 NA
ATOM     15  C   UNL     1      -8.694 -12.050  19.668  0.00  0.00    +0.123 A 
ATOM     17  C   UNL     1     -10.729 -12.388  20.444  0.00  0.00    +0.106 A 
ATOM     19  C   UNL     1      -9.192 -14.357  20.539  0.00  0.00    +0.150 C 
ATOM     20  C   UNL     1     -10.569 -11.098  19.996  0.00  0.00    +0.130 A 
ENDBRANCH  14  15
ENDBRANCH   5  14
ENDBRANCH   9   5
BRANCH  11  13
ATOM     13  C   UNL     1      -3.412 -11.653  16.143  0.00  0.00    +0.138 C 
BRANCH  13   6
ATOM      4  O   UNL     1      -3.048 -12.744  13.511  0.00  0.00    -0.270 OA
ATOM      6  N   UNL     1      -3.583 -10.962  14.898  0.00  0.00    -0.309 N 
ATOM     16  C   UNL     1      -3.385 -11.572  13.662  0.00  0.00    +0.244 C 
ATOM     28  H   UNL     1      -3.793  -9.971  14.953  0.00  0.00    +0.149 HD
BRANCH  16  18
ATOM      1  F   UNL     1      -4.110  -8.324   9.141  0.00  0.00    -0.205 F 
ATOM     18  C   UNL     1      -3.576 -10.712  12.467  0.00  0.00    +0.037 A 
ATOM     21  C   UNL     1      -2.475 -10.323  11.704  0.00  0.00    +0.016 A 
ATOM     22  C   UNL     1      -4.857 -10.295  12.105  0.00  0.00    +0.016 A 
ATOM     23  C   UNL     1      -2.655  -9.516  10.581  0.00  0.00    +0.039 A 
ATOM     24  C   UNL     1      -5.038  -9.488  10.983  0.00  0.00    +0.039 A 
ATOM     25  C   UNL     1      -3.937  -9.098  10.220  0.00  0.00    +0.123 A 
ENDBRANCH  16  18
ENDBRANCH  13   6
ENDBRANCH  11  13
TORSDOF 7
ENDMDL
