MODEL 1
REMARK VINA RESULT:      -7.0      0.000      0.000
REMARK  Name = 7144200
REMARK  6 active torsions:
REMARK  status: ('A' for Active; 'I' for Inactive)
REMARK    1  A    between atoms: O_6  and  C_29
REMARK    2  A    between atoms: O_6  and  C_35
REMARK    3  A    between atoms: O_7  and  C_30
REMARK    4  A    between atoms: O_7  and  C_36
REMARK    5  A    between atoms: N_10  and  C_26
REMARK    6  A    between atoms: C_18  and  C_23
REMARK                            x       y       z     vdW  Elec       q    Type
REMARK                         _______ _______ _______ _____ _____    ______ ____
ROOT
ATOM      4  O   UNL     1      11.642  10.468   0.920  0.00  0.00    -0.268 OA
ATOM      5  O   UNL     1      14.958   6.982   1.875  0.00  0.00    -0.252 OA
ATOM      8  N   UNL     1      12.141   9.735   3.087  0.00  0.00    -0.311 N 
ATOM      9  N   UNL     1      14.359   7.697   3.993  0.00  0.00    -0.284 N 
ATOM     10  N   UNL     1      13.255   5.871   2.986  0.00  0.00    -0.266 N 
ATOM     11  C   UNL     1      14.427  10.177   4.155  0.00  0.00    +0.027 C 
ATOM     12  C   UNL     1      12.718   8.912   5.396  0.00  0.00    +0.054 C 
ATOM     13  C   UNL     1      13.663  10.112   5.470  0.00  0.00    +0.018 C 
ATOM     14  C   UNL     1      13.425  10.449   3.033  0.00  0.00    +0.130 C 
ATOM     15  C   UNL     1      15.222   8.878   3.920  0.00  0.00    +0.114 C 
ATOM     16  C   UNL     1      13.552   7.622   5.222  0.00  0.00    +0.119 C 
ATOM     17  C   UNL     1      11.715   9.052   4.245  0.00  0.00    +0.034 A 
ATOM     18  C   UNL     1      10.468   8.514   4.292  0.00  0.00    +0.002 A 
ATOM     19  C   UNL     1      11.326   9.870   1.948  0.00  0.00    +0.252 A 
ATOM     20  C   UNL     1      14.240   6.850   2.869  0.00  0.00    +0.307 C 
ATOM     21  C   UNL     1       9.602   8.631   3.133  0.00  0.00    +0.015 A 
ATOM     22  C   UNL     1       9.985   9.250   2.017  0.00  0.00    +0.071 A 
ATOM     37  H   UNL     1      13.009   5.535   3.909  0.00  0.00    +0.156 HD
ENDROOT
BRANCH  18  23
ATOM     23  C   UNL     1       9.976   7.785   5.481  0.00  0.00    -0.016 A 
ATOM     24  C   UNL     1       9.555   8.495   6.602  0.00  0.00    +0.012 A 
ATOM     25  C   UNL     1       9.937   6.393   5.471  0.00  0.00    +0.012 A 
ATOM     27  C   UNL     1       9.092   7.806   7.723  0.00  0.00    +0.046 A 
ATOM     28  C   UNL     1       9.474   5.706   6.593  0.00  0.00    +0.046 A 
ATOM     29  C   UNL     1       9.051   6.412   7.718  0.00  0.00    +0.130 A 
BRANCH  29   6
ATOM      6  O   UNL     1       8.599   5.742   8.813  0.00  0.00    -0.406 OA
BRANCH   6  35
ATOM      1  F   UNL     1       9.017   4.630  10.733  0.00  0.00    -0.133 F 
ATOM      2  F   UNL     1       9.626   3.699   8.852  0.00  0.00    -0.133 F 
ATOM      3  F   UNL     1      10.715   5.456   9.633  0.00  0.00    -0.133 F 
ATOM     35  C   UNL     1       9.503   4.879   9.495  0.00  0.00    +0.575 C 
ENDBRANCH   6  35
ENDBRANCH  29   6
ENDBRANCH  18  23
BRANCH  10  26
ATOM     26  C   UNL     1      12.553   5.236   1.933  0.00  0.00    +0.077 A 
ATOM     30  C   UNL     1      13.060   4.080   1.342  0.00  0.00    +0.141 A 
ATOM     31  C   UNL     1      11.348   5.779   1.495  0.00  0.00    +0.027 A 
ATOM     32  C   UNL     1      12.356   3.465   0.307  0.00  0.00    +0.047 A 
ATOM     33  C   UNL     1      10.645   5.163   0.458  0.00  0.00    +0.002 A 
ATOM     34  C   UNL     1      11.150   4.006  -0.135  0.00  0.00    +0.004 A 
BRANCH  30   7
ATOM      7  O   UNL     1      14.238   3.536   1.759  0.00  0.00    -0.493 OA
ATOM     36  C   UNL     1      15.366   3.701   0.902  0.00  0.00    +0.277 C 
ENDBRANCH  30   7
ENDBRANCH  10  26
TORSDOF 5
ENDMDL
MODEL 2
REMARK VINA RESULT:      -6.7     13.143     17.451
REMARK  Name = 7144200
REMARK  6 active torsions:
REMARK  status: ('A' for Active; 'I' for Inactive)
REMARK    1  A    between atoms: O_6  and  C_29
REMARK    2  A    between atoms: O_6  and  C_35
REMARK    3  A    between atoms: O_7  and  C_30
REMARK    4  A    between atoms: O_7  and  C_36
REMARK    5  A    between atoms: N_10  and  C_26
REMARK    6  A    between atoms: C_18  and  C_23
REMARK                            x       y       z     vdW  Elec       q    Type
REMARK                         _______ _______ _______ _____ _____    ______ ____
ROOT
ATOM      4  O   UNL     1      11.341   6.986  21.805  0.00  0.00    -0.268 OA
ATOM      5  O   UNL     1      14.953   9.936  23.326  0.00  0.00    -0.252 OA
ATOM      8  N   UNL     1      13.138   7.616  20.443  0.00  0.00    -0.311 N 
ATOM      9  N   UNL     1      15.680   9.296  21.224  0.00  0.00    -0.284 N 
ATOM     10  N   UNL     1      14.426  11.274  21.510  0.00  0.00    -0.266 N 
ATOM     11  C   UNL     1      15.527   6.832  20.934  0.00  0.00    +0.027 C 
ATOM     12  C   UNL     1      15.094   8.322  19.023  0.00  0.00    +0.054 C 
ATOM     13  C   UNL     1      15.733   6.996  19.434  0.00  0.00    +0.018 C 
ATOM     14  C   UNL     1      14.026   6.722  21.199  0.00  0.00    +0.130 C 
ATOM     15  C   UNL     1      16.168   8.002  21.704  0.00  0.00    +0.114 C 
ATOM     16  C   UNL     1      15.801   9.477  19.768  0.00  0.00    +0.119 C 
ATOM     17  C   UNL     1      13.590   8.343  19.322  0.00  0.00    +0.034 A 
ATOM     18  C   UNL     1      12.706   9.058  18.579  0.00  0.00    +0.002 A 
ATOM     19  C   UNL     1      11.791   7.614  20.847  0.00  0.00    +0.252 A 
ATOM     20  C   UNL     1      15.008  10.162  22.115  0.00  0.00    +0.307 C 
ATOM     21  C   UNL     1      11.309   9.082  18.970  0.00  0.00    +0.015 A 
ATOM     22  C   UNL     1      10.855   8.424  20.036  0.00  0.00    +0.071 A 
ATOM     37  H   UNL     1      14.834  11.635  20.655  0.00  0.00    +0.156 HD
ENDROOT
BRANCH  18  23
ATOM     23  C   UNL     1      13.131   9.841  17.398  0.00  0.00    -0.016 A 
ATOM     24  C   UNL     1      12.918   9.333  16.120  0.00  0.00    +0.012 A 
ATOM     25  C   UNL     1      13.741  11.080  17.573  0.00  0.00    +0.012 A 
ATOM     27  C   UNL     1      13.319  10.071  15.006  0.00  0.00    +0.046 A 
ATOM     28  C   UNL     1      14.143  11.817  16.459  0.00  0.00    +0.046 A 
ATOM     29  C   UNL     1      13.932  11.313  15.176  0.00  0.00    +0.130 A 
BRANCH  29   6
ATOM      6  O   UNL     1      14.323  12.031  14.088  0.00  0.00    -0.406 OA
BRANCH   6  35
ATOM      1  F   UNL     1      16.313  13.004  13.654  0.00  0.00    -0.133 F 
ATOM      2  F   UNL     1      16.311  10.927  14.333  0.00  0.00    -0.133 F 
ATOM      3  F   UNL     1      15.617  11.438  12.298  0.00  0.00    -0.133 F 
ATOM     35  C   UNL     1      15.642  11.832  13.588  0.00  0.00    +0.575 C 
ENDBRANCH   6  35
ENDBRANCH  29   6
ENDBRANCH  18  23
BRANCH  10  26
ATOM     26  C   UNL     1      13.314  12.017  21.976  0.00  0.00    +0.077 A 
ATOM     30  C   UNL     1      13.497  13.103  22.830  0.00  0.00    +0.141 A 
ATOM     31  C   UNL     1      12.034  11.649  21.571  0.00  0.00    +0.027 A 
ATOM     32  C   UNL     1      12.392  13.825  23.280  0.00  0.00    +0.047 A 
ATOM     33  C   UNL     1      10.928  12.371  22.022  0.00  0.00    +0.002 A 
ATOM     34  C   UNL     1      11.108  13.459  22.877  0.00  0.00    +0.004 A 
BRANCH  30   7
ATOM      7  O   UNL     1      14.744  13.476  23.237  0.00  0.00    -0.493 OA
ATOM     36  C   UNL     1      15.052  13.301  24.617  0.00  0.00    +0.277 C 
ENDBRANCH  30   7
ENDBRANCH  10  26
TORSDOF 5
ENDMDL
MODEL 3
REMARK VINA RESULT:      -6.5     24.389     27.558
REMARK  Name = 7144200
REMARK  6 active torsions:
REMARK  status: ('A' for Active; 'I' for Inactive)
REMARK    1  A    between atoms: O_6  and  C_29
REMARK    2  A    between atoms: O_6  and  C_35
REMARK    3  A    between atoms: O_7  and  C_30
REMARK    4  A    between atoms: O_7  and  C_36
REMARK    5  A    between atoms: N_10  and  C_26
REMARK    6  A    between atoms: C_18  and  C_23
REMARK                            x       y       z     vdW  Elec       q    Type
REMARK                         _______ _______ _______ _____ _____    ______ ____
ROOT
ATOM      4  O   UNL     1      -0.751 -13.071  13.709  0.00  0.00    -0.268 OA
ATOM      5  O   UNL     1      -4.530 -13.964  10.713  0.00  0.00    -0.252 OA
ATOM      8  N   UNL     1      -2.946 -13.363  14.470  0.00  0.00    -0.311 N 
ATOM      9  N   UNL     1      -5.494 -14.160  12.808  0.00  0.00    -0.284 N 
ATOM     10  N   UNL     1      -5.531 -12.100  11.658  0.00  0.00    -0.266 N 
ATOM     11  C   UNL     1      -4.135 -15.624  14.287  0.00  0.00    +0.027 C 
ATOM     12  C   UNL     1      -5.323 -13.688  15.233  0.00  0.00    +0.054 C 
ATOM     13  C   UNL     1      -4.928 -15.141  15.493  0.00  0.00    +0.018 C 
ATOM     14  C   UNL     1      -2.848 -14.805  14.202  0.00  0.00    +0.130 C 
ATOM     15  C   UNL     1      -4.977 -15.517  13.001  0.00  0.00    +0.114 C 
ATOM     16  C   UNL     1      -6.216 -13.625  13.973  0.00  0.00    +0.119 C 
ATOM     17  C   UNL     1      -4.094 -12.789  15.054  0.00  0.00    +0.034 A 
ATOM     18  C   UNL     1      -4.092 -11.475  15.399  0.00  0.00    +0.002 A 
ATOM     19  C   UNL     1      -1.784 -12.618  14.202  0.00  0.00    +0.252 A 
ATOM     20  C   UNL     1      -5.138 -13.437  11.648  0.00  0.00    +0.307 C 
ATOM     21  C   UNL     1      -2.911 -10.675  15.134  0.00  0.00    +0.015 A 
ATOM     22  C   UNL     1      -1.819 -11.183  14.562  0.00  0.00    +0.071 A 
ATOM     37  H   UNL     1      -6.347 -11.836  12.196  0.00  0.00    +0.156 HD
ENDROOT
BRANCH  18  23
ATOM     23  C   UNL     1      -5.272 -10.826  16.011  0.00  0.00    -0.016 A 
ATOM     24  C   UNL     1      -5.448 -10.872  17.391  0.00  0.00    +0.012 A 
ATOM     25  C   UNL     1      -6.198 -10.173  15.202  0.00  0.00    +0.012 A 
ATOM     27  C   UNL     1      -6.561 -10.260  17.967  0.00  0.00    +0.046 A 
ATOM     28  C   UNL     1      -7.311  -9.562  15.779  0.00  0.00    +0.046 A 
ATOM     29  C   UNL     1      -7.492  -9.605  17.161  0.00  0.00    +0.130 A 
BRANCH  29   6
ATOM      6  O   UNL     1      -8.578  -9.008  17.725  0.00  0.00    -0.406 OA
BRANCH   6  35
ATOM      1  F   UNL     1     -10.808  -9.091  18.062  0.00  0.00    -0.133 F 
ATOM      2  F   UNL     1      -9.825 -10.866  17.251  0.00  0.00    -0.133 F 
ATOM      3  F   UNL     1      -9.528 -10.290  19.364  0.00  0.00    -0.133 F 
ATOM     35  C   UNL     1      -9.677  -9.830  18.104  0.00  0.00    +0.575 C 
ENDBRANCH   6  35
ENDBRANCH  29   6
ENDBRANCH  18  23
BRANCH  10  26
ATOM     26  C   UNL     1      -4.931 -11.029  10.954  0.00  0.00    +0.077 A 
ATOM     30  C   UNL     1      -5.649 -10.326   9.989  0.00  0.00    +0.141 A 
ATOM     31  C   UNL     1      -3.612 -10.683  11.238  0.00  0.00    +0.027 A 
ATOM     32  C   UNL     1      -5.044  -9.272   9.305  0.00  0.00    +0.047 A 
ATOM     33  C   UNL     1      -3.007  -9.628  10.553  0.00  0.00    +0.002 A 
ATOM     34  C   UNL     1      -3.723  -8.923   9.586  0.00  0.00    +0.004 A 
BRANCH  30   7
ATOM      7  O   UNL     1      -6.941 -10.652   9.698  0.00  0.00    -0.493 OA
ATOM     36  C   UNL     1      -7.950  -9.743  10.131  0.00  0.00    +0.277 C 
ENDBRANCH  30   7
ENDBRANCH  10  26
TORSDOF 5
ENDMDL
MODEL 4
REMARK VINA RESULT:      -6.5     26.483     29.482
REMARK  Name = 7144200
REMARK  6 active torsions:
REMARK  status: ('A' for Active; 'I' for Inactive)
REMARK    1  A    between atoms: O_6  and  C_29
REMARK    2  A    between atoms: O_6  and  C_35
REMARK    3  A    between atoms: O_7  and  C_30
REMARK    4  A    between atoms: O_7  and  C_36
REMARK    5  A    between atoms: N_10  and  C_26
REMARK    6  A    between atoms: C_18  and  C_23
REMARK                            x       y       z     vdW  Elec       q    Type
REMARK                         _______ _______ _______ _____ _____    ______ ____
ROOT
ATOM      4  O   UNL     1     -13.458  12.823  18.117  0.00  0.00    -0.268 OA
ATOM      5  O   UNL     1     -11.896   9.409  14.961  0.00  0.00    -0.252 OA
ATOM      8  N   UNL     1     -12.574  10.763  18.794  0.00  0.00    -0.311 N 
ATOM      9  N   UNL     1     -11.304   8.507  17.008  0.00  0.00    -0.284 N 
ATOM     10  N   UNL     1     -13.375   7.969  16.013  0.00  0.00    -0.266 N 
ATOM     11  C   UNL     1     -10.110  10.174  18.412  0.00  0.00    +0.027 C 
ATOM     12  C   UNL     1     -11.613   8.535  19.466  0.00  0.00    +0.054 C 
ATOM     13  C   UNL     1     -10.287   9.277  19.629  0.00  0.00    +0.018 C 
ATOM     14  C   UNL     1     -11.227  11.219  18.423  0.00  0.00    +0.130 C 
ATOM     15  C   UNL     1     -10.107   9.343  17.116  0.00  0.00    +0.114 C 
ATOM     16  C   UNL     1     -11.552   7.664  18.190  0.00  0.00    +0.119 C 
ATOM     17  C   UNL     1     -12.799   9.504  19.388  0.00  0.00    +0.034 A 
ATOM     18  C   UNL     1     -14.042   9.177  19.828  0.00  0.00    +0.002 A 
ATOM     19  C   UNL     1     -13.602  11.706  18.614  0.00  0.00    +0.252 A 
ATOM     20  C   UNL     1     -12.182   8.681  15.915  0.00  0.00    +0.307 C 
ATOM     21  C   UNL     1     -15.127  10.124  19.655  0.00  0.00    +0.015 A 
ATOM     22  C   UNL     1     -14.951  11.312  19.078  0.00  0.00    +0.071 A 
ATOM     37  H   UNL     1     -13.387   7.108  16.547  0.00  0.00    +0.156 HD
ENDROOT
BRANCH  18  23
ATOM     23  C   UNL     1     -14.329   7.867  20.454  0.00  0.00    -0.016 A 
ATOM     24  C   UNL     1     -15.364   7.078  19.961  0.00  0.00    +0.012 A 
ATOM     25  C   UNL     1     -13.563   7.434  21.532  0.00  0.00    +0.012 A 
ATOM     27  C   UNL     1     -15.634   5.843  20.552  0.00  0.00    +0.046 A 
ATOM     28  C   UNL     1     -13.834   6.200  22.122  0.00  0.00    +0.046 A 
ATOM     29  C   UNL     1     -14.870   5.405  21.632  0.00  0.00    +0.130 A 
BRANCH  29   6
ATOM      6  O   UNL     1     -15.135   4.200  22.208  0.00  0.00    -0.406 OA
BRANCH   6  35
ATOM      1  F   UNL     1     -16.571   3.116  23.570  0.00  0.00    -0.133 F 
ATOM      2  F   UNL     1     -14.829   4.080  24.471  0.00  0.00    -0.133 F 
ATOM      3  F   UNL     1     -16.498   5.297  23.682  0.00  0.00    -0.133 F 
ATOM     35  C   UNL     1     -15.751   4.189  23.491  0.00  0.00    +0.575 C 
ENDBRANCH   6  35
ENDBRANCH  29   6
ENDBRANCH  18  23
BRANCH  10  26
ATOM     26  C   UNL     1     -14.614   8.290  15.407  0.00  0.00    +0.077 A 
ATOM     30  C   UNL     1     -15.014   7.650  14.236  0.00  0.00    +0.141 A 
ATOM     31  C   UNL     1     -15.429   9.252  15.996  0.00  0.00    +0.027 A 
ATOM     32  C   UNL     1     -16.238   7.977  13.651  0.00  0.00    +0.047 A 
ATOM     33  C   UNL     1     -16.653   9.579  15.411  0.00  0.00    +0.002 A 
ATOM     34  C   UNL     1     -17.057   8.941  14.238  0.00  0.00    +0.004 A 
BRANCH  30   7
ATOM      7  O   UNL     1     -14.228   6.706  13.645  0.00  0.00    -0.493 OA
ATOM     36  C   UNL     1     -14.697   6.147  12.421  0.00  0.00    +0.277 C 
ENDBRANCH  30   7
ENDBRANCH  10  26
TORSDOF 5
ENDMDL
MODEL 5
REMARK VINA RESULT:      -6.4      3.840      7.039
REMARK  Name = 7144200
REMARK  6 active torsions:
REMARK  status: ('A' for Active; 'I' for Inactive)
REMARK    1  A    between atoms: O_6  and  C_29
REMARK    2  A    between atoms: O_6  and  C_35
REMARK    3  A    between atoms: O_7  and  C_30
REMARK    4  A    between atoms: O_7  and  C_36
REMARK    5  A    between atoms: N_10  and  C_26
REMARK    6  A    between atoms: C_18  and  C_23
REMARK                            x       y       z     vdW  Elec       q    Type
REMARK                         _______ _______ _______ _____ _____    ______ ____
ROOT
ATOM      4  O   UNL     1       8.665   7.982   8.121  0.00  0.00    -0.268 OA
ATOM      5  O   UNL     1      10.556  11.533   5.316  0.00  0.00    -0.252 OA
ATOM      8  N   UNL     1      10.362   7.606   6.552  0.00  0.00    -0.311 N 
ATOM      9  N   UNL     1      11.897   9.720   4.800  0.00  0.00    -0.284 N 
ATOM     10  N   UNL     1       9.985  10.205   3.505  0.00  0.00    -0.266 N 
ATOM     11  C   UNL     1      12.708   8.589   6.859  0.00  0.00    +0.027 C 
ATOM     12  C   UNL     1      12.188   7.260   4.853  0.00  0.00    +0.054 C 
ATOM     13  C   UNL     1      13.158   7.396   6.027  0.00  0.00    +0.018 C 
ATOM     14  C   UNL     1      11.328   8.274   7.436  0.00  0.00    +0.130 C 
ATOM     15  C   UNL     1      12.703   9.875   6.012  0.00  0.00    +0.114 C 
ATOM     16  C   UNL     1      12.254   8.542   3.992  0.00  0.00    +0.119 C 
ATOM     17  C   UNL     1      10.752   7.019   5.331  0.00  0.00    +0.034 A 
ATOM     18  C   UNL     1       9.850   6.304   4.608  0.00  0.00    +0.002 A 
ATOM     19  C   UNL     1       9.053   7.502   7.056  0.00  0.00    +0.252 A 
ATOM     20  C   UNL     1      10.784  10.563   4.589  0.00  0.00    +0.307 C 
ATOM     21  C   UNL     1       8.490   6.179   5.096  0.00  0.00    +0.015 A 
ATOM     22  C   UNL     1       8.086   6.742   6.234  0.00  0.00    +0.071 A 
ATOM     37  H   UNL     1      10.410   9.714   2.728  0.00  0.00    +0.156 HD
ENDROOT
BRANCH  18  23
ATOM     23  C   UNL     1      10.208   5.672   3.319  0.00  0.00    -0.016 A 
ATOM     24  C   UNL     1       9.887   6.309   2.124  0.00  0.00    +0.012 A 
ATOM     25  C   UNL     1      10.864   4.443   3.311  0.00  0.00    +0.012 A 
ATOM     27  C   UNL     1      10.225   5.711   0.909  0.00  0.00    +0.046 A 
ATOM     28  C   UNL     1      11.200   3.847   2.096  0.00  0.00    +0.046 A 
ATOM     29  C   UNL     1      10.881   4.481   0.895  0.00  0.00    +0.130 A 
BRANCH  29   6
ATOM      6  O   UNL     1      11.210   3.899  -0.291  0.00  0.00    -0.406 OA
BRANCH   6  35
ATOM      1  F   UNL     1      12.636   3.851  -2.039  0.00  0.00    -0.133 F 
ATOM      2  F   UNL     1      13.191   5.042  -0.292  0.00  0.00    -0.133 F 
ATOM      3  F   UNL     1      13.231   2.834  -0.199  0.00  0.00    -0.133 F 
ATOM     35  C   UNL     1      12.576   3.907  -0.689  0.00  0.00    +0.575 C 
ENDBRANCH   6  35
ENDBRANCH  29   6
ENDBRANCH  18  23
BRANCH  10  26
ATOM     26  C   UNL     1       8.609  10.485   3.330  0.00  0.00    +0.077 A 
ATOM     30  C   UNL     1       8.201  11.619   2.630  0.00  0.00    +0.141 A 
ATOM     31  C   UNL     1       7.664   9.613   3.865  0.00  0.00    +0.027 A 
ATOM     32  C   UNL     1       6.841  11.880   2.464  0.00  0.00    +0.047 A 
ATOM     33  C   UNL     1       6.304   9.875   3.700  0.00  0.00    +0.002 A 
ATOM     34  C   UNL     1       5.892  11.009   2.999  0.00  0.00    +0.004 A 
BRANCH  30   7
ATOM      7  O   UNL     1       9.112  12.484   2.100  0.00  0.00    -0.493 OA
ATOM     36  C   UNL     1       9.278  13.734   2.764  0.00  0.00    +0.277 C 
ENDBRANCH  30   7
ENDBRANCH  10  26
TORSDOF 5
ENDMDL
MODEL 6
REMARK VINA RESULT:      -6.3     26.251     29.696
REMARK  Name = 7144200
REMARK  6 active torsions:
REMARK  status: ('A' for Active; 'I' for Inactive)
REMARK    1  A    between atoms: O_6  and  C_29
REMARK    2  A    between atoms: O_6  and  C_35
REMARK    3  A    between atoms: O_7  and  C_30
REMARK    4  A    between atoms: O_7  and  C_36
REMARK    5  A    between atoms: N_10  and  C_26
REMARK    6  A    between atoms: C_18  and  C_23
REMARK                            x       y       z     vdW  Elec       q    Type
REMARK                         _______ _______ _______ _____ _____    ______ ____
ROOT
ATOM      4  O   UNL     1     -10.558  12.888  18.045  0.00  0.00    -0.268 OA
ATOM      5  O   UNL     1     -14.075  11.346  14.994  0.00  0.00    -0.252 OA
ATOM      8  N   UNL     1     -11.079  10.627  17.731  0.00  0.00    -0.311 N 
ATOM      9  N   UNL     1     -13.111   9.361  15.692  0.00  0.00    -0.284 N 
ATOM     10  N   UNL     1     -14.980  10.252  16.825  0.00  0.00    -0.266 N 
ATOM     11  C   UNL     1     -10.635   9.449  15.500  0.00  0.00    +0.027 C 
ATOM     12  C   UNL     1     -11.678   8.211  17.353  0.00  0.00    +0.054 C 
ATOM     13  C   UNL     1     -10.524   8.193  16.352  0.00  0.00    +0.018 C 
ATOM     14  C   UNL     1     -10.436  10.662  16.410  0.00  0.00    +0.130 C 
ATOM     15  C   UNL     1     -11.987   9.492  14.764  0.00  0.00    +0.114 C 
ATOM     16  C   UNL     1     -13.018   8.192  16.582  0.00  0.00    +0.119 C 
ATOM     17  C   UNL     1     -11.615   9.438  18.269  0.00  0.00    +0.034 A 
ATOM     18  C   UNL     1     -12.085   9.426  19.544  0.00  0.00    +0.002 A 
ATOM     19  C   UNL     1     -11.028  11.829  18.460  0.00  0.00    +0.252 A 
ATOM     20  C   UNL     1     -14.066  10.397  15.782  0.00  0.00    +0.307 C 
ATOM     21  C   UNL     1     -12.052  10.649  20.324  0.00  0.00    +0.015 A 
ATOM     22  C   UNL     1     -11.573  11.793  19.835  0.00  0.00    +0.071 A 
ATOM     37  H   UNL     1     -15.205   9.318  17.149  0.00  0.00    +0.156 HD
ENDROOT
BRANCH  18  23
ATOM     23  C   UNL     1     -12.660   8.206  20.153  0.00  0.00    -0.016 A 
ATOM     24  C   UNL     1     -14.032   7.982  20.087  0.00  0.00    +0.012 A 
ATOM     25  C   UNL     1     -11.825   7.291  20.787  0.00  0.00    +0.012 A 
ATOM     27  C   UNL     1     -14.573   6.832  20.661  0.00  0.00    +0.046 A 
ATOM     28  C   UNL     1     -12.367   6.142  21.361  0.00  0.00    +0.046 A 
ATOM     29  C   UNL     1     -13.741   5.912  21.298  0.00  0.00    +0.130 A 
BRANCH  29   6
ATOM      6  O   UNL     1     -14.270   4.790  21.859  0.00  0.00    -0.406 OA
BRANCH   6  35
ATOM      1  F   UNL     1     -15.398   3.815  23.554  0.00  0.00    -0.133 F 
ATOM      2  F   UNL     1     -13.362   4.509  23.938  0.00  0.00    -0.133 F 
ATOM      3  F   UNL     1     -15.008   5.961  23.680  0.00  0.00    -0.133 F 
ATOM     35  C   UNL     1     -14.498   4.783  23.264  0.00  0.00    +0.575 C 
ENDBRANCH   6  35
ENDBRANCH  29   6
ENDBRANCH  18  23
BRANCH  10  26
ATOM     26  C   UNL     1     -15.690  11.281  17.488  0.00  0.00    +0.077 A 
ATOM     30  C   UNL     1     -16.966  11.646  17.065  0.00  0.00    +0.141 A 
ATOM     31  C   UNL     1     -15.098  11.925  18.572  0.00  0.00    +0.027 A 
ATOM     32  C   UNL     1     -17.653  12.662  17.730  0.00  0.00    +0.047 A 
ATOM     33  C   UNL     1     -15.786  12.941  19.237  0.00  0.00    +0.002 A 
ATOM     34  C   UNL     1     -17.063  13.309  18.815  0.00  0.00    +0.004 A 
BRANCH  30   7
ATOM      7  O   UNL     1     -17.560  11.027  16.005  0.00  0.00    -0.493 OA
ATOM     36  C   UNL     1     -18.965  10.805  16.091  0.00  0.00    +0.277 C 
ENDBRANCH  30   7
ENDBRANCH  10  26
TORSDOF 5
ENDMDL
MODEL 7
REMARK VINA RESULT:      -6.1     23.221     28.041
REMARK  Name = 7144200
REMARK  6 active torsions:
REMARK  status: ('A' for Active; 'I' for Inactive)
REMARK    1  A    between atoms: O_6  and  C_29
REMARK    2  A    between atoms: O_6  and  C_35
REMARK    3  A    between atoms: O_7  and  C_30
REMARK    4  A    between atoms: O_7  and  C_36
REMARK    5  A    between atoms: N_10  and  C_26
REMARK    6  A    between atoms: C_18  and  C_23
REMARK                            x       y       z     vdW  Elec       q    Type
REMARK                         _______ _______ _______ _____ _____    ______ ____
ROOT
ATOM      4  O   UNL     1      16.252 -11.074  27.776  0.00  0.00    -0.268 OA
ATOM      5  O   UNL     1      18.109  -7.891  31.014  0.00  0.00    -0.252 OA
ATOM      8  N   UNL     1      17.762  -9.383  27.188  0.00  0.00    -0.311 N 
ATOM      9  N   UNL     1      19.265  -7.369  29.079  0.00  0.00    -0.284 N 
ATOM     10  N   UNL     1      17.277  -6.227  29.634  0.00  0.00    -0.266 N 
ATOM     11  C   UNL     1      20.189  -9.413  28.007  0.00  0.00    +0.027 C 
ATOM     12  C   UNL     1      19.388  -7.550  26.611  0.00  0.00    +0.054 C 
ATOM     13  C   UNL     1      20.473  -8.620  26.739  0.00  0.00    +0.018 C 
ATOM     14  C   UNL     1      18.851 -10.132  27.830  0.00  0.00    +0.130 C 
ATOM     15  C   UNL     1      20.192  -8.491  29.240  0.00  0.00    +0.114 C 
ATOM     16  C   UNL     1      19.461  -6.607  27.834  0.00  0.00    +0.119 C 
ATOM     17  C   UNL     1      17.991  -8.170  26.505  0.00  0.00    +0.034 A 
ATOM     18  C   UNL     1      16.977  -7.579  25.821  0.00  0.00    +0.002 A 
ATOM     19  C   UNL     1      16.503 -10.010  27.211  0.00  0.00    +0.252 A 
ATOM     20  C   UNL     1      18.199  -7.209  29.991  0.00  0.00    +0.307 C 
ATOM     21  C   UNL     1      15.664  -8.195  25.826  0.00  0.00    +0.015 A 
ATOM     22  C   UNL     1      15.411  -9.329  26.480  0.00  0.00    +0.071 A 
ATOM     37  H   UNL     1      17.590  -5.446  29.069  0.00  0.00    +0.156 HD
ENDROOT
BRANCH  18  23
ATOM     23  C   UNL     1      17.165  -6.305  25.092  0.00  0.00    -0.016 A 
ATOM     24  C   UNL     1      17.545  -6.324  23.754  0.00  0.00    +0.012 A 
ATOM     25  C   UNL     1      16.961  -5.096  25.751  0.00  0.00    +0.012 A 
ATOM     27  C   UNL     1      17.723  -5.122  23.068  0.00  0.00    +0.046 A 
ATOM     28  C   UNL     1      17.139  -3.895  25.065  0.00  0.00    +0.046 A 
ATOM     29  C   UNL     1      17.520  -3.908  23.724  0.00  0.00    +0.130 A 
BRANCH  29   6
ATOM      6  O   UNL     1      17.694  -2.736  23.053  0.00  0.00    -0.406 OA
BRANCH   6  35
ATOM      1  F   UNL     1      16.811  -0.942  22.006  0.00  0.00    -0.133 F 
ATOM      2  F   UNL     1      15.439  -2.440  22.812  0.00  0.00    -0.133 F 
ATOM      3  F   UNL     1      16.553  -1.098  24.170  0.00  0.00    -0.133 F 
ATOM     35  C   UNL     1      16.613  -1.810  23.025  0.00  0.00    +0.575 C 
ENDBRANCH   6  35
ENDBRANCH  29   6
ENDBRANCH  18  23
BRANCH  10  26
ATOM     26  C   UNL     1      15.913  -6.160  30.006  0.00  0.00    +0.077 A 
ATOM     30  C   UNL     1      15.469  -5.184  30.896  0.00  0.00    +0.141 A 
ATOM     31  C   UNL     1      15.017  -7.082  29.471  0.00  0.00    +0.027 A 
ATOM     32  C   UNL     1      14.122  -5.131  31.252  0.00  0.00    +0.047 A 
ATOM     33  C   UNL     1      13.669  -7.029  29.827  0.00  0.00    +0.002 A 
ATOM     34  C   UNL     1      13.222  -6.053  30.718  0.00  0.00    +0.004 A 
BRANCH  30   7
ATOM      7  O   UNL     1      16.333  -4.274  31.430  0.00  0.00    -0.493 OA
ATOM     36  C   UNL     1      16.090  -2.901  31.134  0.00  0.00    +0.277 C 
ENDBRANCH  30   7
ENDBRANCH  10  26
TORSDOF 5
ENDMDL
MODEL 8
REMARK VINA RESULT:      -6.1     22.556     25.924
REMARK  Name = 7144200
REMARK  6 active torsions:
REMARK  status: ('A' for Active; 'I' for Inactive)
REMARK    1  A    between atoms: O_6  and  C_29
REMARK    2  A    between atoms: O_6  and  C_35
REMARK    3  A    between atoms: O_7  and  C_30
REMARK    4  A    between atoms: O_7  and  C_36
REMARK    5  A    between atoms: N_10  and  C_26
REMARK    6  A    between atoms: C_18  and  C_23
REMARK                            x       y       z     vdW  Elec       q    Type
REMARK                         _______ _______ _______ _____ _____    ______ ____
ROOT
ATOM      4  O   UNL     1      19.557  -4.738  21.364  0.00  0.00    -0.268 OA
ATOM      5  O   UNL     1      20.788  -1.380  24.720  0.00  0.00    -0.252 OA
ATOM      8  N   UNL     1      18.150  -4.118  23.130  0.00  0.00    -0.311 N 
ATOM      9  N   UNL     1      18.591  -1.856  25.271  0.00  0.00    -0.284 N 
ATOM     10  N   UNL     1      20.366  -3.020  26.302  0.00  0.00    -0.266 N 
ATOM     11  C   UNL     1      17.126  -1.774  23.265  0.00  0.00    +0.027 C 
ATOM     12  C   UNL     1      16.677  -3.412  25.046  0.00  0.00    +0.054 C 
ATOM     13  C   UNL     1      16.016  -2.462  24.047  0.00  0.00    +0.018 C 
ATOM     14  C   UNL     1      17.875  -2.838  22.462  0.00  0.00    +0.130 C 
ATOM     15  C   UNL     1      18.061  -0.997  24.211  0.00  0.00    +0.114 C 
ATOM     16  C   UNL     1      17.558  -2.592  26.017  0.00  0.00    +0.119 C 
ATOM     17  C   UNL     1      17.521  -4.479  24.340  0.00  0.00    +0.034 A 
ATOM     18  C   UNL     1      17.710  -5.722  24.854  0.00  0.00    +0.002 A 
ATOM     19  C   UNL     1      18.997  -4.996  22.429  0.00  0.00    +0.252 A 
ATOM     20  C   UNL     1      19.987  -2.041  25.386  0.00  0.00    +0.307 C 
ATOM     21  C   UNL     1      18.580  -6.652  24.160  0.00  0.00    +0.015 A 
ATOM     22  C   UNL     1      19.206  -6.333  23.027  0.00  0.00    +0.071 A 
ATOM     37  H   UNL     1      19.757  -3.214  27.089  0.00  0.00    +0.156 HD
ENDROOT
BRANCH  18  23
ATOM     23  C   UNL     1      17.076  -6.147  26.122  0.00  0.00    -0.016 A 
ATOM     24  C   UNL     1      15.788  -6.675  26.107  0.00  0.00    +0.012 A 
ATOM     25  C   UNL     1      17.772  -6.016  27.320  0.00  0.00    +0.012 A 
ATOM     27  C   UNL     1      15.191  -7.075  27.303  0.00  0.00    +0.046 A 
ATOM     28  C   UNL     1      17.174  -6.416  28.515  0.00  0.00    +0.046 A 
ATOM     29  C   UNL     1      15.884  -6.946  28.506  0.00  0.00    +0.130 A 
BRANCH  29   6
ATOM      6  O   UNL     1      15.300  -7.336  29.672  0.00  0.00    -0.406 OA
BRANCH   6  35
ATOM      1  F   UNL     1      14.395  -6.682  31.634  0.00  0.00    -0.133 F 
ATOM      2  F   UNL     1      14.761  -5.157  30.111  0.00  0.00    -0.133 F 
ATOM      3  F   UNL     1      13.132  -6.628  29.851  0.00  0.00    -0.133 F 
ATOM     35  C   UNL     1      14.390  -6.441  30.303  0.00  0.00    +0.575 C 
ENDBRANCH   6  35
ENDBRANCH  29   6
ENDBRANCH  18  23
BRANCH  10  26
ATOM     26  C   UNL     1      21.559  -3.781  26.294  0.00  0.00    +0.077 A 
ATOM     30  C   UNL     1      22.643  -3.407  27.087  0.00  0.00    +0.141 A 
ATOM     31  C   UNL     1      21.639  -4.911  25.484  0.00  0.00    +0.027 A 
ATOM     32  C   UNL     1      23.811  -4.169  27.068  0.00  0.00    +0.047 A 
ATOM     33  C   UNL     1      22.808  -5.672  25.465  0.00  0.00    +0.002 A 
ATOM     34  C   UNL     1      23.894  -5.300  26.258  0.00  0.00    +0.004 A 
BRANCH  30   7
ATOM      7  O   UNL     1      22.582  -2.304  27.885  0.00  0.00    -0.493 OA
ATOM     36  C   UNL     1      23.289  -1.147  27.444  0.00  0.00    +0.277 C 
ENDBRANCH  30   7
ENDBRANCH  10  26
TORSDOF 5
ENDMDL
MODEL 9
REMARK VINA RESULT:      -5.8     23.854     26.836
REMARK  Name = 7144200
REMARK  6 active torsions:
REMARK  status: ('A' for Active; 'I' for Inactive)
REMARK    1  A    between atoms: O_6  and  C_29
REMARK    2  A    between atoms: O_6  and  C_35
REMARK    3  A    between atoms: O_7  and  C_30
REMARK    4  A    between atoms: O_7  and  C_36
REMARK    5  A    between atoms: N_10  and  C_26
REMARK    6  A    between atoms: C_18  and  C_23
REMARK                            x       y       z     vdW  Elec       q    Type
REMARK                         _______ _______ _______ _____ _____    ______ ____
ROOT
ATOM      4  O   UNL     1      -9.146 -10.428   7.514  0.00  0.00    -0.268 OA
ATOM      5  O   UNL     1      -6.374 -13.363  10.300  0.00  0.00    -0.252 OA
ATOM      8  N   UNL     1      -7.916 -12.224   6.651  0.00  0.00    -0.311 N 
ATOM      9  N   UNL     1      -6.252 -14.380   8.224  0.00  0.00    -0.284 N 
ATOM     10  N   UNL     1      -4.624 -12.807   8.887  0.00  0.00    -0.266 N 
ATOM     11  C   UNL     1      -8.511 -14.649   7.224  0.00  0.00    +0.027 C 
ATOM     12  C   UNL     1      -6.578 -14.170   5.778  0.00  0.00    +0.054 C 
ATOM     13  C   UNL     1      -7.877 -14.969   5.877  0.00  0.00    +0.018 C 
ATOM     14  C   UNL     1      -8.881 -13.166   7.236  0.00  0.00    +0.130 C 
ATOM     15  C   UNL     1      -7.561 -15.019   8.377  0.00  0.00    +0.114 C 
ATOM     16  C   UNL     1      -5.625 -14.610   6.913  0.00  0.00    +0.119 C 
ATOM     17  C   UNL     1      -6.834 -12.660   5.860  0.00  0.00    +0.034 A 
ATOM     18  C   UNL     1      -6.042 -11.749   5.237  0.00  0.00    +0.002 A 
ATOM     19  C   UNL     1      -8.207 -10.862   6.847  0.00  0.00    +0.252 A 
ATOM     20  C   UNL     1      -5.786 -13.498   9.224  0.00  0.00    +0.307 C 
ATOM     21  C   UNL     1      -6.310 -10.335   5.420  0.00  0.00    +0.015 A 
ATOM     22  C   UNL     1      -7.311  -9.891   6.181  0.00  0.00    +0.071 A 
ATOM     37  H   UNL     1      -3.974 -13.233   8.237  0.00  0.00    +0.156 HD
ENDROOT
BRANCH  18  23
ATOM     23  C   UNL     1      -4.892 -12.155   4.399  0.00  0.00    -0.016 A 
ATOM     24  C   UNL     1      -3.612 -12.174   4.945  0.00  0.00    +0.012 A 
ATOM     25  C   UNL     1      -5.099 -12.517   3.071  0.00  0.00    +0.012 A 
ATOM     27  C   UNL     1      -2.529 -12.558   4.154  0.00  0.00    +0.046 A 
ATOM     28  C   UNL     1      -4.015 -12.899   2.281  0.00  0.00    +0.046 A 
ATOM     29  C   UNL     1      -2.731 -12.920   2.822  0.00  0.00    +0.130 A 
BRANCH  29   6
ATOM      6  O   UNL     1      -1.672 -13.293   2.052  0.00  0.00    -0.406 OA
BRANCH   6  35
ATOM      1  F   UNL     1      -0.481 -15.009   1.196  0.00  0.00    -0.133 F 
ATOM      2  F   UNL     1      -0.057 -14.386   3.247  0.00  0.00    -0.133 F 
ATOM      3  F   UNL     1      -1.934 -15.450   2.767  0.00  0.00    -0.133 F 
ATOM     35  C   UNL     1      -1.040 -14.537   2.334  0.00  0.00    +0.575 C 
ENDBRANCH   6  35
ENDBRANCH  29   6
ENDBRANCH  18  23
BRANCH  10  26
ATOM     26  C   UNL     1      -4.201 -11.552   9.388  0.00  0.00    +0.077 A 
ATOM     30  C   UNL     1      -3.434 -11.476  10.549  0.00  0.00    +0.141 A 
ATOM     31  C   UNL     1      -4.559 -10.392   8.706  0.00  0.00    +0.027 A 
ATOM     32  C   UNL     1      -3.024 -10.232  11.029  0.00  0.00    +0.047 A 
ATOM     33  C   UNL     1      -4.149  -9.148   9.187  0.00  0.00    +0.002 A 
ATOM     34  C   UNL     1      -3.382  -9.068  10.348  0.00  0.00    +0.004 A 
BRANCH  30   7
ATOM      7  O   UNL     1      -3.074 -12.601  11.230  0.00  0.00    -0.493 OA
ATOM     36  C   UNL     1      -2.479 -12.419  12.512  0.00  0.00    +0.277 C 
ENDBRANCH  30   7
ENDBRANCH  10  26
TORSDOF 5
ENDMDL
MODEL 10
REMARK VINA RESULT:      -5.8     23.771     28.590
REMARK  Name = 7144200
REMARK  6 active torsions:
REMARK  status: ('A' for Active; 'I' for Inactive)
REMARK    1  A    between atoms: O_6  and  C_29
REMARK    2  A    between atoms: O_6  and  C_35
REMARK    3  A    between atoms: O_7  and  C_30
REMARK    4  A    between atoms: O_7  and  C_36
REMARK    5  A    between atoms: N_10  and  C_26
REMARK    6  A    between atoms: C_18  and  C_23
REMARK                            x       y       z     vdW  Elec       q    Type
REMARK                         _______ _______ _______ _____ _____    ______ ____
ROOT
ATOM      4  O   UNL     1      19.702  -5.498  32.820  0.00  0.00    -0.268 OA
ATOM      5  O   UNL     1      15.015  -4.063  32.652  0.00  0.00    -0.252 OA
ATOM      8  N   UNL     1      18.930  -3.817  31.385  0.00  0.00    -0.311 N 
ATOM      9  N   UNL     1      16.051  -2.557  31.232  0.00  0.00    -0.284 N 
ATOM     10  N   UNL     1      15.101  -4.545  30.388  0.00  0.00    -0.266 N 
ATOM     11  C   UNL     1      18.076  -1.576  32.287  0.00  0.00    +0.027 C 
ATOM     12  C   UNL     1      18.045  -2.014  29.865  0.00  0.00    +0.054 C 
ATOM     13  C   UNL     1      18.516  -1.030  30.936  0.00  0.00    +0.018 C 
ATOM     14  C   UNL     1      18.803  -2.900  32.526  0.00  0.00    +0.130 C 
ATOM     15  C   UNL     1      16.546  -1.737  32.339  0.00  0.00    +0.114 C 
ATOM     16  C   UNL     1      16.502  -2.105  29.906  0.00  0.00    +0.119 C 
ATOM     17  C   UNL     1      18.660  -3.404  30.063  0.00  0.00    +0.034 A 
ATOM     18  C   UNL     1      18.911  -4.248  29.028  0.00  0.00    +0.002 A 
ATOM     19  C   UNL     1      19.436  -5.093  31.688  0.00  0.00    +0.252 A 
ATOM     20  C   UNL     1      15.358  -3.757  31.507  0.00  0.00    +0.307 C 
ATOM     21  C   UNL     1      19.430  -5.574  29.305  0.00  0.00    +0.015 A 
ATOM     22  C   UNL     1      19.673  -6.001  30.544  0.00  0.00    +0.071 A 
ATOM     37  H   UNL     1      15.007  -4.095  29.485  0.00  0.00    +0.156 HD
ENDROOT
BRANCH  18  23
ATOM     23  C   UNL     1      18.643  -3.864  27.625  0.00  0.00    -0.016 A 
ATOM     24  C   UNL     1      19.452  -2.920  26.999  0.00  0.00    +0.012 A 
ATOM     25  C   UNL     1      17.582  -4.450  26.940  0.00  0.00    +0.012 A 
ATOM     27  C   UNL     1      19.197  -2.559  25.676  0.00  0.00    +0.046 A 
ATOM     28  C   UNL     1      17.328  -4.087  25.617  0.00  0.00    +0.046 A 
ATOM     29  C   UNL     1      18.136  -3.142  24.985  0.00  0.00    +0.130 A 
BRANCH  29   6
ATOM      6  O   UNL     1      17.888  -2.788  23.694  0.00  0.00    -0.406 OA
BRANCH   6  35
ATOM      1  F   UNL     1      15.707  -2.515  23.182  0.00  0.00    -0.133 F 
ATOM      2  F   UNL     1      16.640  -1.058  24.518  0.00  0.00    -0.133 F 
ATOM      3  F   UNL     1      17.141  -1.083  22.366  0.00  0.00    -0.133 F 
ATOM     35  C   UNL     1      16.853  -1.845  23.442  0.00  0.00    +0.575 C 
ENDBRANCH   6  35
ENDBRANCH  29   6
ENDBRANCH  18  23
BRANCH  10  26
ATOM     26  C   UNL     1      14.911  -5.948  30.356  0.00  0.00    +0.077 A 
ATOM     30  C   UNL     1      13.649  -6.496  30.580  0.00  0.00    +0.141 A 
ATOM     31  C   UNL     1      16.000  -6.776  30.098  0.00  0.00    +0.027 A 
ATOM     32  C   UNL     1      13.478  -7.879  30.545  0.00  0.00    +0.047 A 
ATOM     33  C   UNL     1      15.828  -8.160  30.063  0.00  0.00    +0.002 A 
ATOM     34  C   UNL     1      14.567  -8.712  30.287  0.00  0.00    +0.004 A 
BRANCH  30   7
ATOM      7  O   UNL     1      12.572  -5.700  30.836  0.00  0.00    -0.493 OA
ATOM     36  C   UNL     1      11.954  -5.839  32.113  0.00  0.00    +0.277 C 
ENDBRANCH  30   7
ENDBRANCH  10  26
TORSDOF 5
ENDMDL
