MODEL 1
REMARK VINA RESULT:      -8.1      0.000      0.000
REMARK  Name = 11912188
REMARK  7 active torsions:
REMARK  status: ('A' for Active; 'I' for Inactive)
REMARK    1  A    between atoms: S_1  and  N_9
REMARK    2  A    between atoms: S_1  and  C_21
REMARK    3  A    between atoms: N_9  and  C_16
REMARK    4  A    between atoms: N_10  and  C_17
REMARK    5  A    between atoms: N_13  and  C_29
REMARK    6  A    between atoms: C_24  and  C_30
REMARK    7  A    between atoms: C_36  and  C_38
REMARK                            x       y       z     vdW  Elec       q    Type
REMARK                         _______ _______ _______ _____ _____    ______ ____
ROOT
ATOM      2  O   UNL     1      -6.624 -11.729  10.754  0.00  0.00    -0.370 OA
ATOM      3  O   UNL     1      -5.532  -8.808  10.537  0.00  0.00    -0.370 OA
ATOM     14  C   UNL     1      -5.239 -10.028   9.834  0.00  0.00    +0.170 C 
ATOM     15  C   UNL     1      -5.308 -11.158  10.842  0.00  0.00    +0.171 C 
ATOM     16  C   UNL     1      -6.340 -10.341   8.850  0.00  0.00    +0.133 C 
ATOM     17  C   UNL     1      -5.121 -10.476  12.176  0.00  0.00    +0.130 C 
ATOM     18  C   UNL     1      -7.354 -11.074   9.706  0.00  0.00    +0.183 C 
ATOM     19  C   UNL     1      -5.708  -9.099  11.931  0.00  0.00    +0.185 C 
ENDROOT
BRANCH  17  10
ATOM     10  N   UNL     1      -3.711 -10.372  12.485  0.00  0.00    -0.306 N 
ATOM     11  N   UNL     1      -4.092 -10.659  14.758  0.00  0.00    -0.214 NA
ATOM     12  N   UNL     1      -1.864 -10.347  13.893  0.00  0.00    -0.223 NA
ATOM     20  C   UNL     1      -3.200 -10.464  13.768  0.00  0.00    +0.216 A 
ATOM     24  C   UNL     1      -3.560 -10.743  15.995  0.00  0.00    +0.076 A 
ATOM     25  C   UNL     1      -1.400 -10.441  15.156  0.00  0.00    +0.116 A 
ATOM     28  C   UNL     1      -2.209 -10.641  16.257  0.00  0.00    +0.048 A 
ATOM     40  H   UNL     1      -3.041 -10.276  11.731  0.00  0.00    +0.149 HD
BRANCH  24  30
ATOM      6  O   UNL     1      -8.045 -10.498  17.937  0.00  0.00    -0.453 OA
ATOM      7  O   UNL     1      -7.317 -11.499  20.006  0.00  0.00    -0.453 OA
ATOM     30  C   UNL     1      -4.512 -10.955  17.059  0.00  0.00    +0.004 A 
ATOM     31  C   UNL     1      -5.845 -10.578  16.882  0.00  0.00    +0.059 A 
ATOM     32  C   UNL     1      -4.087 -11.538  18.266  0.00  0.00    +0.014 A 
ATOM     33  C   UNL     1      -6.718 -10.799  17.927  0.00  0.00    +0.167 A 
ATOM     34  C   UNL     1      -4.992 -11.752  19.309  0.00  0.00    +0.050 A 
ATOM     35  C   UNL     1      -6.302 -11.371  19.108  0.00  0.00    +0.166 A 
ATOM     37  C   UNL     1      -8.419 -10.945  19.257  0.00  0.00    +0.466 C 
ENDBRANCH  24  30
ENDBRANCH  17  10
BRANCH  16   9
ATOM      9  N   UNL     1      -5.825 -11.252   7.799  0.00  0.00    -0.182 NA
ATOM     39  H   UNL     1      -4.865 -11.605   7.902  0.00  0.00    +0.148 HD
BRANCH   9   1
ATOM      1  S   UNL     1      -6.634 -11.368   6.311  0.00  0.00    +0.059 S 
ATOM      4  O   UNL     1      -7.096 -10.054   5.908  0.00  0.00    -0.153 OA
ATOM      5  O   UNL     1      -7.562 -12.482   6.371  0.00  0.00    -0.153 OA
BRANCH   1  21
ATOM     21  C   UNL     1      -5.327 -11.845   5.221  0.00  0.00    +0.105 A 
ATOM     22  C   UNL     1      -4.025 -11.972   5.706  0.00  0.00    +0.030 A 
ATOM     23  C   UNL     1      -5.599 -12.094   3.876  0.00  0.00    +0.030 A 
ATOM     26  C   UNL     1      -2.995 -12.349   4.844  0.00  0.00    +0.025 A 
ATOM     27  C   UNL     1      -4.567 -12.471   3.014  0.00  0.00    +0.025 A 
ATOM     29  C   UNL     1      -3.265 -12.598   3.499  0.00  0.00    +0.033 A 
BRANCH  29  13
ATOM      8  O   UNL     1      -1.552 -15.074   3.464  0.00  0.00    -0.276 OA
ATOM     13  N   UNL     1      -2.235 -12.974   2.638  0.00  0.00    -0.286 N 
ATOM     36  C   UNL     1      -1.465 -14.145   2.668  0.00  0.00    +0.214 C 
ATOM     38  C   UNL     1      -0.446 -14.173   1.557  0.00  0.00    +0.109 C 
ATOM     41  H   UNL     1      -2.023 -12.308   1.897  0.00  0.00    +0.155 HD
ENDBRANCH  29  13
ENDBRANCH   1  21
ENDBRANCH   9   1
ENDBRANCH  16   9
TORSDOF 6
ENDMDL
MODEL 2
REMARK VINA RESULT:      -8.0      4.102      6.260
REMARK  Name = 11912188
REMARK  7 active torsions:
REMARK  status: ('A' for Active; 'I' for Inactive)
REMARK    1  A    between atoms: S_1  and  N_9
REMARK    2  A    between atoms: S_1  and  C_21
REMARK    3  A    between atoms: N_9  and  C_16
REMARK    4  A    between atoms: N_10  and  C_17
REMARK    5  A    between atoms: N_13  and  C_29
REMARK    6  A    between atoms: C_24  and  C_30
REMARK    7  A    between atoms: C_36  and  C_38
REMARK                            x       y       z     vdW  Elec       q    Type
REMARK                         _______ _______ _______ _____ _____    ______ ____
ROOT
ATOM      2  O   UNL     1      -6.682 -11.184  10.337  0.00  0.00    -0.370 OA
ATOM      3  O   UNL     1      -6.066  -8.479  11.774  0.00  0.00    -0.370 OA
ATOM     14  C   UNL     1      -5.691  -9.028  10.500  0.00  0.00    +0.170 C 
ATOM     15  C   UNL     1      -5.463 -10.514  10.698  0.00  0.00    +0.171 C 
ATOM     16  C   UNL     1      -6.852  -8.956   9.538  0.00  0.00    +0.133 C 
ATOM     17  C   UNL     1      -5.207 -10.656  12.179  0.00  0.00    +0.130 C 
ATOM     18  C   UNL     1      -7.629 -10.218   9.858  0.00  0.00    +0.183 C 
ATOM     19  C   UNL     1      -6.016  -9.514  12.767  0.00  0.00    +0.185 C 
ENDROOT
BRANCH  17  10
ATOM     10  N   UNL     1      -3.800 -10.468  12.458  0.00  0.00    -0.306 N 
ATOM     11  N   UNL     1      -4.122 -10.722  14.744  0.00  0.00    -0.214 NA
ATOM     12  N   UNL     1      -1.931 -10.310  13.829  0.00  0.00    -0.223 NA
ATOM     20  C   UNL     1      -3.261 -10.502  13.733  0.00  0.00    +0.216 A 
ATOM     24  C   UNL     1      -3.564 -10.749  15.972  0.00  0.00    +0.076 A 
ATOM     25  C   UNL     1      -1.440 -10.350  15.085  0.00  0.00    +0.116 A 
ATOM     28  C   UNL     1      -2.216 -10.568  16.205  0.00  0.00    +0.048 A 
ATOM     40  H   UNL     1      -3.150 -10.354  11.689  0.00  0.00    +0.149 HD
BRANCH  24  30
ATOM      6  O   UNL     1      -8.000 -10.604  18.033  0.00  0.00    -0.453 OA
ATOM      7  O   UNL     1      -7.200 -11.607  20.073  0.00  0.00    -0.453 OA
ATOM     30  C   UNL     1      -4.484 -10.987  17.058  0.00  0.00    +0.004 A 
ATOM     31  C   UNL     1      -5.828 -10.634  16.920  0.00  0.00    +0.059 A 
ATOM     32  C   UNL     1      -4.017 -11.572  18.249  0.00  0.00    +0.014 A 
ATOM     33  C   UNL     1      -6.669 -10.880  17.986  0.00  0.00    +0.167 A 
ATOM     34  C   UNL     1      -4.889 -11.811  19.314  0.00  0.00    +0.050 A 
ATOM     35  C   UNL     1      -6.212 -11.453  19.151  0.00  0.00    +0.166 A 
ATOM     37  C   UNL     1      -8.331 -11.068  19.358  0.00  0.00    +0.466 C 
ENDBRANCH  24  30
ENDBRANCH  17  10
BRANCH  16   9
ATOM      9  N   UNL     1      -6.349  -9.021   8.144  0.00  0.00    -0.182 NA
ATOM     39  H   UNL     1      -5.360  -8.796   7.983  0.00  0.00    +0.148 HD
BRANCH   9   1
ATOM      1  S   UNL     1      -7.449  -9.063   6.852  0.00  0.00    +0.059 S 
ATOM      4  O   UNL     1      -8.134 -10.341   6.841  0.00  0.00    -0.153 OA
ATOM      5  O   UNL     1      -6.783  -8.581   5.656  0.00  0.00    -0.153 OA
BRANCH   1  21
ATOM     21  C   UNL     1      -8.616  -7.823   7.326  0.00  0.00    +0.105 A 
ATOM     22  C   UNL     1      -8.170  -6.580   7.775  0.00  0.00    +0.030 A 
ATOM     23  C   UNL     1      -9.983  -8.088   7.250  0.00  0.00    +0.030 A 
ATOM     26  C   UNL     1      -9.092  -5.602   8.148  0.00  0.00    +0.025 A 
ATOM     27  C   UNL     1     -10.906  -7.110   7.624  0.00  0.00    +0.025 A 
ATOM     29  C   UNL     1     -10.460  -5.866   8.073  0.00  0.00    +0.033 A 
BRANCH  29  13
ATOM      8  O   UNL     1     -11.824  -5.372  10.711  0.00  0.00    -0.276 OA
ATOM     13  N   UNL     1     -11.381  -4.889   8.446  0.00  0.00    -0.286 N 
ATOM     36  C   UNL     1     -11.990  -4.704   9.696  0.00  0.00    +0.214 C 
ATOM     38  C   UNL     1     -12.932  -3.527   9.690  0.00  0.00    +0.109 C 
ATOM     41  H   UNL     1     -11.638  -4.230   7.713  0.00  0.00    +0.155 HD
ENDBRANCH  29  13
ENDBRANCH   1  21
ENDBRANCH   9   1
ENDBRANCH  16   9
TORSDOF 6
ENDMDL
MODEL 3
REMARK VINA RESULT:      -7.8      4.582     10.702
REMARK  Name = 11912188
REMARK  7 active torsions:
REMARK  status: ('A' for Active; 'I' for Inactive)
REMARK    1  A    between atoms: S_1  and  N_9
REMARK    2  A    between atoms: S_1  and  C_21
REMARK    3  A    between atoms: N_9  and  C_16
REMARK    4  A    between atoms: N_10  and  C_17
REMARK    5  A    between atoms: N_13  and  C_29
REMARK    6  A    between atoms: C_24  and  C_30
REMARK    7  A    between atoms: C_36  and  C_38
REMARK                            x       y       z     vdW  Elec       q    Type
REMARK                         _______ _______ _______ _____ _____    ______ ____
ROOT
ATOM      2  O   UNL     1      -7.565 -12.202  15.669  0.00  0.00    -0.370 OA
ATOM      3  O   UNL     1      -6.379 -12.977  18.455  0.00  0.00    -0.370 OA
ATOM     14  C   UNL     1      -6.888 -11.750  17.905  0.00  0.00    +0.170 C 
ATOM     15  C   UNL     1      -6.467 -11.700  16.450  0.00  0.00    +0.171 C 
ATOM     16  C   UNL     1      -8.396 -11.787  17.853  0.00  0.00    +0.133 C 
ATOM     17  C   UNL     1      -5.292 -12.645  16.370  0.00  0.00    +0.130 C 
ATOM     18  C   UNL     1      -8.668 -12.494  16.540  0.00  0.00    +0.183 C 
ATOM     19  C   UNL     1      -5.607 -13.658  17.455  0.00  0.00    +0.185 C 
ENDROOT
BRANCH  17  10
ATOM     10  N   UNL     1      -4.068 -11.941  16.683  0.00  0.00    -0.306 N 
ATOM     11  N   UNL     1      -3.675 -11.439  14.450  0.00  0.00    -0.214 NA
ATOM     12  N   UNL     1      -2.157 -10.721  16.178  0.00  0.00    -0.223 NA
ATOM     20  C   UNL     1      -3.265 -11.341  15.729  0.00  0.00    +0.216 A 
ATOM     24  C   UNL     1      -2.869 -10.844  13.546  0.00  0.00    +0.076 A 
ATOM     25  C   UNL     1      -1.397 -10.148  15.222  0.00  0.00    +0.116 A 
ATOM     28  C   UNL     1      -1.707 -10.177  13.877  0.00  0.00    +0.048 A 
ATOM     40  H   UNL     1      -3.793 -11.826  17.651  0.00  0.00    +0.149 HD
BRANCH  24  30
ATOM      6  O   UNL     1      -4.611  -8.959   9.380  0.00  0.00    -0.453 OA
ATOM      7  O   UNL     1      -4.577 -11.100   8.274  0.00  0.00    -0.453 OA
ATOM     30  C   UNL     1      -3.306 -10.946  12.175  0.00  0.00    +0.004 A 
ATOM     31  C   UNL     1      -3.745  -9.804  11.500  0.00  0.00    +0.059 A 
ATOM     32  C   UNL     1      -3.286 -12.195  11.529  0.00  0.00    +0.014 A 
ATOM     33  C   UNL     1      -4.153  -9.951  10.190  0.00  0.00    +0.167 A 
ATOM     34  C   UNL     1      -3.704 -12.317  10.202  0.00  0.00    +0.050 A 
ATOM     35  C   UNL     1      -4.133 -11.174   9.559  0.00  0.00    +0.166 A 
ATOM     37  C   UNL     1      -4.877  -9.693   8.167  0.00  0.00    +0.466 C 
ENDBRANCH  24  30
ENDBRANCH  17  10
BRANCH  16   9
ATOM      9  N   UNL     1      -8.927 -10.403  17.793  0.00  0.00    -0.182 NA
ATOM     39  H   UNL     1      -8.248  -9.633  17.773  0.00  0.00    +0.148 HD
BRANCH   9   1
ATOM      1  S   UNL     1     -10.559 -10.109  18.153  0.00  0.00    +0.059 S 
ATOM      4  O   UNL     1     -10.682  -9.690  19.536  0.00  0.00    -0.153 OA
ATOM      5  O   UNL     1     -11.355 -11.215  17.651  0.00  0.00    -0.153 OA
BRANCH   1  21
ATOM     21  C   UNL     1     -10.913  -8.714  17.127  0.00  0.00    +0.105 A 
ATOM     22  C   UNL     1     -12.236  -8.382  16.833  0.00  0.00    +0.030 A 
ATOM     23  C   UNL     1      -9.870  -7.945  16.612  0.00  0.00    +0.030 A 
ATOM     26  C   UNL     1     -12.515  -7.281  16.023  0.00  0.00    +0.025 A 
ATOM     27  C   UNL     1     -10.149  -6.843  15.802  0.00  0.00    +0.025 A 
ATOM     29  C   UNL     1     -11.472  -6.512  15.507  0.00  0.00    +0.033 A 
BRANCH  29  13
ATOM      8  O   UNL     1     -12.464  -6.374  12.668  0.00  0.00    -0.276 OA
ATOM     13  N   UNL     1     -11.751  -5.411  14.698  0.00  0.00    -0.286 N 
ATOM     36  C   UNL     1     -12.212  -5.404  13.374  0.00  0.00    +0.214 C 
ATOM     38  C   UNL     1     -12.390  -4.001  12.852  0.00  0.00    +0.109 C 
ATOM     41  H   UNL     1     -11.597  -4.502  15.132  0.00  0.00    +0.155 HD
ENDBRANCH  29  13
ENDBRANCH   1  21
ENDBRANCH   9   1
ENDBRANCH  16   9
TORSDOF 6
ENDMDL
MODEL 4
REMARK VINA RESULT:      -7.6     23.907     26.257
REMARK  Name = 11912188
REMARK  7 active torsions:
REMARK  status: ('A' for Active; 'I' for Inactive)
REMARK    1  A    between atoms: S_1  and  N_9
REMARK    2  A    between atoms: S_1  and  C_21
REMARK    3  A    between atoms: N_9  and  C_16
REMARK    4  A    between atoms: N_10  and  C_17
REMARK    5  A    between atoms: N_13  and  C_29
REMARK    6  A    between atoms: C_24  and  C_30
REMARK    7  A    between atoms: C_36  and  C_38
REMARK                            x       y       z     vdW  Elec       q    Type
REMARK                         _______ _______ _______ _____ _____    ______ ____
ROOT
ATOM      2  O   UNL     1      11.967   4.263   2.042  0.00  0.00    -0.370 OA
ATOM      3  O   UNL     1      12.593   6.411  -0.140  0.00  0.00    -0.370 OA
ATOM     14  C   UNL     1      12.770   6.371   1.286  0.00  0.00    +0.170 C 
ATOM     15  C   UNL     1      11.579   5.636   1.868  0.00  0.00    +0.171 C 
ATOM     16  C   UNL     1      13.951   5.502   1.642  0.00  0.00    +0.133 C 
ATOM     17  C   UNL     1      10.516   5.748   0.801  0.00  0.00    +0.130 C 
ATOM     18  C   UNL     1      13.346   4.112   1.674  0.00  0.00    +0.183 C 
ATOM     19  C   UNL     1      11.333   5.811  -0.476  0.00  0.00    +0.185 C 
ENDROOT
BRANCH  17  10
ATOM     10  N   UNL     1       9.766   6.973   0.976  0.00  0.00    -0.306 N 
ATOM     11  N   UNL     1       9.493   6.591   3.250  0.00  0.00    -0.214 NA
ATOM     12  N   UNL     1       8.582   8.557   2.194  0.00  0.00    -0.223 NA
ATOM     20  C   UNL     1       9.259   7.392   2.193  0.00  0.00    +0.216 A 
ATOM     24  C   UNL     1       8.984   7.030   4.420  0.00  0.00    +0.076 A 
ATOM     25  C   UNL     1       8.101   8.935   3.396  0.00  0.00    +0.116 A 
ATOM     28  C   UNL     1       8.273   8.205   4.555  0.00  0.00    +0.048 A 
ATOM     40  H   UNL     1       9.637   7.596   0.187  0.00  0.00    +0.149 HD
BRANCH  24  30
ATOM      6  O   UNL     1       8.950   6.033   9.211  0.00  0.00    -0.453 OA
ATOM      7  O   UNL     1       9.902   3.846   8.870  0.00  0.00    -0.453 OA
ATOM     30  C   UNL     1       9.235   6.175   5.556  0.00  0.00    +0.004 A 
ATOM     31  C   UNL     1       8.925   6.623   6.843  0.00  0.00    +0.059 A 
ATOM     32  C   UNL     1       9.791   4.899   5.357  0.00  0.00    +0.014 A 
ATOM     33  C   UNL     1       9.183   5.771   7.897  0.00  0.00    +0.167 A 
ATOM     34  C   UNL     1      10.042   4.055   6.442  0.00  0.00    +0.050 A 
ATOM     35  C   UNL     1       9.727   4.521   7.701  0.00  0.00    +0.166 A 
ATOM     37  C   UNL     1       9.407   4.808   9.822  0.00  0.00    +0.466 C 
ENDBRANCH  24  30
ENDBRANCH  17  10
BRANCH  16   9
ATOM      9  N   UNL     1      14.445   5.861   2.993  0.00  0.00    -0.182 NA
ATOM     39  H   UNL     1      14.233   5.218   3.766  0.00  0.00    +0.148 HD
BRANCH   9   1
ATOM      1  S   UNL     1      14.971   7.445   3.306  0.00  0.00    +0.059 S 
ATOM      4  O   UNL     1      14.909   8.225   2.086  0.00  0.00    -0.153 OA
ATOM      5  O   UNL     1      16.201   7.385   4.074  0.00  0.00    -0.153 OA
BRANCH   1  21
ATOM     21  C   UNL     1      13.713   8.038   4.397  0.00  0.00    +0.105 A 
ATOM     22  C   UNL     1      12.814   9.012   3.962  0.00  0.00    +0.030 A 
ATOM     23  C   UNL     1      13.619   7.532   5.694  0.00  0.00    +0.030 A 
ATOM     26  C   UNL     1      11.821   9.478   4.823  0.00  0.00    +0.025 A 
ATOM     27  C   UNL     1      12.626   7.999   6.556  0.00  0.00    +0.025 A 
ATOM     29  C   UNL     1      11.727   8.973   6.120  0.00  0.00    +0.033 A 
BRANCH  29  13
ATOM      8  O   UNL     1      11.925  10.710   8.572  0.00  0.00    -0.276 OA
ATOM     13  N   UNL     1      10.735   9.440   6.981  0.00  0.00    -0.286 N 
ATOM     36  C   UNL     1      10.884  10.250   8.116  0.00  0.00    +0.214 C 
ATOM     38  C   UNL     1       9.559  10.534   8.777  0.00  0.00    +0.109 C 
ATOM     41  H   UNL     1       9.786   9.152   6.748  0.00  0.00    +0.155 HD
ENDBRANCH  29  13
ENDBRANCH   1  21
ENDBRANCH   9   1
ENDBRANCH  16   9
TORSDOF 6
ENDMDL
MODEL 5
REMARK VINA RESULT:      -7.6     24.138     27.758
REMARK  Name = 11912188
REMARK  7 active torsions:
REMARK  status: ('A' for Active; 'I' for Inactive)
REMARK    1  A    between atoms: S_1  and  N_9
REMARK    2  A    between atoms: S_1  and  C_21
REMARK    3  A    between atoms: N_9  and  C_16
REMARK    4  A    between atoms: N_10  and  C_17
REMARK    5  A    between atoms: N_13  and  C_29
REMARK    6  A    between atoms: C_24  and  C_30
REMARK    7  A    between atoms: C_36  and  C_38
REMARK                            x       y       z     vdW  Elec       q    Type
REMARK                         _______ _______ _______ _____ _____    ______ ____
ROOT
ATOM      2  O   UNL     1       9.707   7.188   2.954  0.00  0.00    -0.370 OA
ATOM      3  O   UNL     1      10.561   4.667   4.591  0.00  0.00    -0.370 OA
ATOM     14  C   UNL     1      10.794   6.076   4.754  0.00  0.00    +0.170 C 
ATOM     15  C   UNL     1      10.979   6.666   3.370  0.00  0.00    +0.171 C 
ATOM     16  C   UNL     1       9.554   6.754   5.282  0.00  0.00    +0.133 C 
ATOM     17  C   UNL     1      11.365   5.485   2.511  0.00  0.00    +0.130 C 
ATOM     18  C   UNL     1       8.759   7.027   4.020  0.00  0.00    +0.183 C 
ATOM     19  C   UNL     1      10.660   4.330   3.199  0.00  0.00    +0.185 C 
ENDROOT
BRANCH  17  10
ATOM     10  N   UNL     1      12.798   5.291   2.551  0.00  0.00    -0.306 N 
ATOM     11  N   UNL     1      12.854   4.549   0.352  0.00  0.00    -0.214 NA
ATOM     12  N   UNL     1      14.865   4.701   1.670  0.00  0.00    -0.223 NA
ATOM     20  C   UNL     1      13.538   4.827   1.477  0.00  0.00    +0.216 A 
ATOM     24  C   UNL     1      13.605   4.099  -0.675  0.00  0.00    +0.076 A 
ATOM     25  C   UNL     1      15.555   4.247   0.604  0.00  0.00    +0.116 A 
ATOM     28  C   UNL     1      14.973   3.927  -0.606  0.00  0.00    +0.048 A 
ATOM     40  H   UNL     1      13.313   5.551   3.384  0.00  0.00    +0.149 HD
BRANCH  24  30
ATOM      6  O   UNL     1       9.618   2.641  -3.109  0.00  0.00    -0.453 OA
ATOM      7  O   UNL     1      10.694   2.919  -5.248  0.00  0.00    -0.453 OA
ATOM     30  C   UNL     1      12.876   3.802  -1.884  0.00  0.00    +0.004 A 
ATOM     31  C   UNL     1      11.555   3.355  -1.806  0.00  0.00    +0.059 A 
ATOM     32  C   UNL     1      13.504   3.963  -3.132  0.00  0.00    +0.014 A 
ATOM     33  C   UNL     1      10.899   3.084  -2.989  0.00  0.00    +0.167 A 
ATOM     34  C   UNL     1      12.818   3.682  -4.316  0.00  0.00    +0.050 A 
ATOM     35  C   UNL     1      11.514   3.242  -4.211  0.00  0.00    +0.166 A 
ATOM     37  C   UNL     1       9.494   2.541  -4.543  0.00  0.00    +0.466 C 
ENDBRANCH  24  30
ENDBRANCH  17  10
BRANCH  16   9
ATOM      9  N   UNL     1       9.923   8.038   5.926  0.00  0.00    -0.182 NA
ATOM     39  H   UNL     1       9.931   8.881   5.339  0.00  0.00    +0.148 HD
BRANCH   9   1
ATOM      1  S   UNL     1      10.683   8.033   7.444  0.00  0.00    +0.059 S 
ATOM      4  O   UNL     1      10.500   6.739   8.072  0.00  0.00    -0.153 OA
ATOM      5  O   UNL     1      10.320   9.247   8.152  0.00  0.00    -0.153 OA
BRANCH   1  21
ATOM     21  C   UNL     1      12.387   8.188   6.999  0.00  0.00    +0.105 A 
ATOM     22  C   UNL     1      12.912   9.439   6.673  0.00  0.00    +0.030 A 
ATOM     23  C   UNL     1      13.206   7.059   6.974  0.00  0.00    +0.030 A 
ATOM     26  C   UNL     1      14.257   9.560   6.323  0.00  0.00    +0.025 A 
ATOM     27  C   UNL     1      14.551   7.181   6.623  0.00  0.00    +0.025 A 
ATOM     29  C   UNL     1      15.076   8.432   6.297  0.00  0.00    +0.033 A 
BRANCH  29  13
ATOM      8  O   UNL     1      16.477   7.861   3.694  0.00  0.00    -0.276 OA
ATOM     13  N   UNL     1      16.420   8.553   5.947  0.00  0.00    -0.286 N 
ATOM     36  C   UNL     1      17.022   8.270   4.713  0.00  0.00    +0.214 C 
ATOM     38  C   UNL     1      18.506   8.535   4.741  0.00  0.00    +0.109 C 
ATOM     41  H   UNL     1      17.034   8.891   6.686  0.00  0.00    +0.155 HD
ENDBRANCH  29  13
ENDBRANCH   1  21
ENDBRANCH   9   1
ENDBRANCH  16   9
TORSDOF 6
ENDMDL
MODEL 6
REMARK VINA RESULT:      -7.5      6.835     11.690
REMARK  Name = 11912188
REMARK  7 active torsions:
REMARK  status: ('A' for Active; 'I' for Inactive)
REMARK    1  A    between atoms: S_1  and  N_9
REMARK    2  A    between atoms: S_1  and  C_21
REMARK    3  A    between atoms: N_9  and  C_16
REMARK    4  A    between atoms: N_10  and  C_17
REMARK    5  A    between atoms: N_13  and  C_29
REMARK    6  A    between atoms: C_24  and  C_30
REMARK    7  A    between atoms: C_36  and  C_38
REMARK                            x       y       z     vdW  Elec       q    Type
REMARK                         _______ _______ _______ _____ _____    ______ ____
ROOT
ATOM      2  O   UNL     1      -9.307  -9.739  15.347  0.00  0.00    -0.370 OA
ATOM      3  O   UNL     1      -9.785  -7.407  17.372  0.00  0.00    -0.370 OA
ATOM     14  C   UNL     1      -9.901  -8.837  17.466  0.00  0.00    +0.170 C 
ATOM     15  C   UNL     1     -10.437  -9.336  16.139  0.00  0.00    +0.171 C 
ATOM     16  C   UNL     1      -8.533  -9.466  17.573  0.00  0.00    +0.133 C 
ATOM     17  C   UNL     1     -11.099  -8.124  15.527  0.00  0.00    +0.130 C 
ATOM     18  C   UNL     1      -8.109  -9.592  16.123  0.00  0.00    +0.183 C 
ATOM     19  C   UNL     1     -10.283  -6.978  16.096  0.00  0.00    +0.185 C 
ENDROOT
BRANCH  17  10
ATOM     10  N   UNL     1     -12.472  -8.031  15.975  0.00  0.00    -0.306 N 
ATOM     11  N   UNL     1     -13.040  -6.600  14.238  0.00  0.00    -0.214 NA
ATOM     12  N   UNL     1     -14.671  -7.292  15.871  0.00  0.00    -0.223 NA
ATOM     20  C   UNL     1     -13.436  -7.275  15.332  0.00  0.00    +0.216 A 
ATOM     24  C   UNL     1     -14.005  -5.872  13.637  0.00  0.00    +0.076 A 
ATOM     25  C   UNL     1     -15.586  -6.543  15.221  0.00  0.00    +0.116 A 
ATOM     28  C   UNL     1     -15.308  -5.806  14.088  0.00  0.00    +0.048 A 
ATOM     40  H   UNL     1     -12.775  -8.583  16.769  0.00  0.00    +0.149 HD
BRANCH  24  30
ATOM      6  O   UNL     1     -11.057  -5.130   9.802  0.00  0.00    -0.453 OA
ATOM      7  O   UNL     1     -12.285  -3.178   9.103  0.00  0.00    -0.453 OA
ATOM     30  C   UNL     1     -13.585  -5.148  12.461  0.00  0.00    +0.004 A 
ATOM     31  C   UNL     1     -12.471  -5.584  11.739  0.00  0.00    +0.059 A 
ATOM     32  C   UNL     1     -14.301  -4.008  12.054  0.00  0.00    +0.014 A 
ATOM     33  C   UNL     1     -12.108  -4.859  10.623  0.00  0.00    +0.167 A 
ATOM     34  C   UNL     1     -13.912  -3.292  10.919  0.00  0.00    +0.050 A 
ATOM     35  C   UNL     1     -12.809  -3.744  10.224  0.00  0.00    +0.166 A 
ATOM     37  C   UNL     1     -11.176  -4.061   8.840  0.00  0.00    +0.466 C 
ENDBRANCH  24  30
ENDBRANCH  17  10
BRANCH  16   9
ATOM      9  N   UNL     1      -8.650 -10.816  18.177  0.00  0.00    -0.182 NA
ATOM     39  H   UNL     1      -9.572 -11.268  18.158  0.00  0.00    +0.148 HD
BRANCH   9   1
ATOM      1  S   UNL     1      -7.424 -11.392  19.199  0.00  0.00    +0.059 S 
ATOM      4  O   UNL     1      -7.843 -12.644  19.799  0.00  0.00    -0.153 OA
ATOM      5  O   UNL     1      -6.961 -10.300  20.035  0.00  0.00    -0.153 OA
BRANCH   1  21
ATOM     21  C   UNL     1      -6.127 -11.745  18.050  0.00  0.00    +0.105 A 
ATOM     22  C   UNL     1      -6.278 -12.777  17.123  0.00  0.00    +0.030 A 
ATOM     23  C   UNL     1      -4.954 -10.992  18.070  0.00  0.00    +0.030 A 
ATOM     26  C   UNL     1      -5.255 -13.055  16.216  0.00  0.00    +0.025 A 
ATOM     27  C   UNL     1      -3.930 -11.270  17.164  0.00  0.00    +0.025 A 
ATOM     29  C   UNL     1      -4.081 -12.302  16.237  0.00  0.00    +0.033 A 
BRANCH  29  13
ATOM      8  O   UNL     1      -2.969 -10.652  13.976  0.00  0.00    -0.276 OA
ATOM     13  N   UNL     1      -3.058 -12.580  15.331  0.00  0.00    -0.286 N 
ATOM     36  C   UNL     1      -2.579 -11.772  14.291  0.00  0.00    +0.214 C 
ATOM     38  C   UNL     1      -1.457 -12.439  13.535  0.00  0.00    +0.109 C 
ATOM     41  H   UNL     1      -2.608 -13.487  15.448  0.00  0.00    +0.155 HD
ENDBRANCH  29  13
ENDBRANCH   1  21
ENDBRANCH   9   1
ENDBRANCH  16   9
TORSDOF 6
ENDMDL
MODEL 7
REMARK VINA RESULT:      -7.5     21.901     26.326
REMARK  Name = 11912188
REMARK  7 active torsions:
REMARK  status: ('A' for Active; 'I' for Inactive)
REMARK    1  A    between atoms: S_1  and  N_9
REMARK    2  A    between atoms: S_1  and  C_21
REMARK    3  A    between atoms: N_9  and  C_16
REMARK    4  A    between atoms: N_10  and  C_17
REMARK    5  A    between atoms: N_13  and  C_29
REMARK    6  A    between atoms: C_24  and  C_30
REMARK    7  A    between atoms: C_36  and  C_38
REMARK                            x       y       z     vdW  Elec       q    Type
REMARK                         _______ _______ _______ _____ _____    ______ ____
ROOT
ATOM      2  O   UNL     1       8.805   3.135  -3.654  0.00  0.00    -0.370 OA
ATOM      3  O   UNL     1      10.630   5.391  -4.815  0.00  0.00    -0.370 OA
ATOM     14  C   UNL     1      10.176   5.072  -3.489  0.00  0.00    +0.170 C 
ATOM     15  C   UNL     1       8.751   4.571  -3.608  0.00  0.00    +0.171 C 
ATOM     16  C   UNL     1      10.940   3.890  -2.945  0.00  0.00    +0.133 C 
ATOM     17  C   UNL     1       8.273   5.119  -4.931  0.00  0.00    +0.130 C 
ATOM     18  C   UNL     1      10.167   2.709  -3.498  0.00  0.00    +0.183 C 
ATOM     19  C   UNL     1       9.554   5.189  -5.743  0.00  0.00    +0.185 C 
ENDROOT
BRANCH  17  10
ATOM     10  N   UNL     1       7.725   6.446  -4.749  0.00  0.00    -0.306 N 
ATOM     11  N   UNL     1       5.547   5.682  -5.007  0.00  0.00    -0.214 NA
ATOM     12  N   UNL     1       6.015   8.010  -4.596  0.00  0.00    -0.223 NA
ATOM     20  C   UNL     1       6.370   6.724  -4.785  0.00  0.00    +0.216 A 
ATOM     24  C   UNL     1       4.234   5.990  -5.037  0.00  0.00    +0.076 A 
ATOM     25  C   UNL     1       4.687   8.246  -4.638  0.00  0.00    +0.116 A 
ATOM     28  C   UNL     1       3.741   7.266  -4.857  0.00  0.00    +0.048 A 
ATOM     40  H   UNL     1       8.346   7.216  -4.531  0.00  0.00    +0.149 HD
BRANCH  24  30
ATOM      6  O   UNL     1       0.427   3.135  -3.892  0.00  0.00    -0.453 OA
ATOM      7  O   UNL     1       0.762   1.735  -5.825  0.00  0.00    -0.453 OA
ATOM     30  C   UNL     1       3.348   4.875  -5.272  0.00  0.00    +0.004 A 
ATOM     31  C   UNL     1       2.305   4.616  -4.379  0.00  0.00    +0.059 A 
ATOM     32  C   UNL     1       3.544   4.057  -6.399  0.00  0.00    +0.014 A 
ATOM     33  C   UNL     1       1.486   3.539  -4.646  0.00  0.00    +0.167 A 
ATOM     34  C   UNL     1       2.699   2.972  -6.647  0.00  0.00    +0.050 A 
ATOM     35  C   UNL     1       1.677   2.739  -5.750  0.00  0.00    +0.166 A 
ATOM     37  C   UNL     1      -0.028   1.992  -4.646  0.00  0.00    +0.466 C 
ENDBRANCH  24  30
ENDBRANCH  17  10
BRANCH  16   9
ATOM      9  N   UNL     1      10.864   3.885  -1.464  0.00  0.00    -0.182 NA
ATOM     39  H   UNL     1       9.932   3.847  -1.034  0.00  0.00    +0.148 HD
BRANCH   9   1
ATOM      1  S   UNL     1      12.221   4.332  -0.548  0.00  0.00    +0.059 S 
ATOM      4  O   UNL     1      12.748   5.589  -1.045  0.00  0.00    -0.153 OA
ATOM      5  O   UNL     1      13.092   3.180  -0.409  0.00  0.00    -0.153 OA
BRANCH   1  21
ATOM     21  C   UNL     1      11.507   4.631   1.041  0.00  0.00    +0.105 A 
ATOM     22  C   UNL     1      11.585   3.656   2.036  0.00  0.00    +0.030 A 
ATOM     23  C   UNL     1      10.865   5.842   1.300  0.00  0.00    +0.030 A 
ATOM     26  C   UNL     1      11.021   3.893   3.290  0.00  0.00    +0.025 A 
ATOM     27  C   UNL     1      10.300   6.079   2.554  0.00  0.00    +0.025 A 
ATOM     29  C   UNL     1      10.378   5.104   3.549  0.00  0.00    +0.033 A 
BRANCH  29  13
ATOM      8  O   UNL     1      11.506   6.495   5.970  0.00  0.00    -0.276 OA
ATOM     13  N   UNL     1       9.814   5.340   4.802  0.00  0.00    -0.286 N 
ATOM     36  C   UNL     1      10.388   5.995   5.900  0.00  0.00    +0.214 C 
ATOM     38  C   UNL     1       9.446   6.044   7.077  0.00  0.00    +0.109 C 
ATOM     41  H   UNL     1       8.866   4.989   4.925  0.00  0.00    +0.155 HD
ENDBRANCH  29  13
ENDBRANCH   1  21
ENDBRANCH   9   1
ENDBRANCH  16   9
TORSDOF 6
ENDMDL
MODEL 8
REMARK VINA RESULT:      -7.4     27.066     29.686
REMARK  Name = 11912188
REMARK  7 active torsions:
REMARK  status: ('A' for Active; 'I' for Inactive)
REMARK    1  A    between atoms: S_1  and  N_9
REMARK    2  A    between atoms: S_1  and  C_21
REMARK    3  A    between atoms: N_9  and  C_16
REMARK    4  A    between atoms: N_10  and  C_17
REMARK    5  A    between atoms: N_13  and  C_29
REMARK    6  A    between atoms: C_24  and  C_30
REMARK    7  A    between atoms: C_36  and  C_38
REMARK                            x       y       z     vdW  Elec       q    Type
REMARK                         _______ _______ _______ _____ _____    ______ ____
ROOT
ATOM      2  O   UNL     1      15.650   8.602   3.878  0.00  0.00    -0.370 OA
ATOM      3  O   UNL     1      14.577  10.428   6.176  0.00  0.00    -0.370 OA
ATOM     14  C   UNL     1      15.433   9.273   6.150  0.00  0.00    +0.170 C 
ATOM     15  C   UNL     1      14.902   8.343   5.077  0.00  0.00    +0.171 C 
ATOM     16  C   UNL     1      16.809   9.653   5.662  0.00  0.00    +0.133 C 
ATOM     17  C   UNL     1      13.463   8.765   4.899  0.00  0.00    +0.130 C 
ATOM     18  C   UNL     1      16.661   9.583   4.155  0.00  0.00    +0.183 C 
ATOM     19  C   UNL     1      13.506  10.243   5.239  0.00  0.00    +0.185 C 
ENDROOT
BRANCH  17  10
ATOM     10  N   UNL     1      12.620   8.060   5.839  0.00  0.00    -0.306 N 
ATOM     11  N   UNL     1      11.871   6.587   4.207  0.00  0.00    -0.214 NA
ATOM     12  N   UNL     1      11.100   6.425   6.484  0.00  0.00    -0.223 NA
ATOM     20  C   UNL     1      11.830   6.977   5.495  0.00  0.00    +0.216 A 
ATOM     24  C   UNL     1      11.089   5.530   3.906  0.00  0.00    +0.076 A 
ATOM     25  C   UNL     1      10.342   5.373   6.114  0.00  0.00    +0.116 A 
ATOM     28  C   UNL     1      10.296   4.876   4.827  0.00  0.00    +0.048 A 
ATOM     40  H   UNL     1      12.633   8.325   6.817  0.00  0.00    +0.149 HD
BRANCH  24  30
ATOM      6  O   UNL     1      13.068   3.077   0.162  0.00  0.00    -0.453 OA
ATOM      7  O   UNL     1      11.371   3.838  -1.370  0.00  0.00    -0.453 OA
ATOM     30  C   UNL     1      11.132   5.108   2.527  0.00  0.00    +0.004 A 
ATOM     31  C   UNL     1      12.156   4.264   2.091  0.00  0.00    +0.059 A 
ATOM     32  C   UNL     1      10.142   5.552   1.632  0.00  0.00    +0.014 A 
ATOM     33  C   UNL     1      12.155   3.888   0.763  0.00  0.00    +0.167 A 
ATOM     34  C   UNL     1      10.164   5.156   0.292  0.00  0.00    +0.050 A 
ATOM     35  C   UNL     1      11.186   4.323  -0.112  0.00  0.00    +0.166 A 
ATOM     37  C   UNL     1      12.564   3.049  -1.189  0.00  0.00    +0.466 C 
ENDBRANCH  24  30
ENDBRANCH  17  10
BRANCH  16   9
ATOM      9  N   UNL     1      17.796   8.641   6.113  0.00  0.00    -0.182 NA
ATOM     39  H   UNL     1      17.433   7.767   6.513  0.00  0.00    +0.148 HD
BRANCH   9   1
ATOM      1  S   UNL     1      19.420   9.084   6.330  0.00  0.00    +0.059 S 
ATOM      4  O   UNL     1      19.892   8.582   7.606  0.00  0.00    -0.153 OA
ATOM      5  O   UNL     1      19.570  10.488   5.996  0.00  0.00    -0.153 OA
BRANCH   1  21
ATOM     21  C   UNL     1      20.223   8.164   5.052  0.00  0.00    +0.105 A 
ATOM     22  C   UNL     1      19.780   8.269   3.733  0.00  0.00    +0.030 A 
ATOM     23  C   UNL     1      21.299   7.333   5.362  0.00  0.00    +0.030 A 
ATOM     26  C   UNL     1      20.414   7.543   2.725  0.00  0.00    +0.025 A 
ATOM     27  C   UNL     1      21.933   6.606   4.354  0.00  0.00    +0.025 A 
ATOM     29  C   UNL     1      21.490   6.711   3.035  0.00  0.00    +0.033 A 
BRANCH  29  13
ATOM      8  O   UNL     1      22.861   7.642   0.520  0.00  0.00    -0.276 OA
ATOM     13  N   UNL     1      22.124   5.985   2.027  0.00  0.00    -0.286 N 
ATOM     36  C   UNL     1      22.748   6.472   0.870  0.00  0.00    +0.214 C 
ATOM     38  C   UNL     1      23.316   5.356   0.030  0.00  0.00    +0.109 C 
ATOM     41  H   UNL     1      22.129   4.975   2.157  0.00  0.00    +0.155 HD
ENDBRANCH  29  13
ENDBRANCH   1  21
ENDBRANCH   9   1
ENDBRANCH  16   9
TORSDOF 6
ENDMDL
MODEL 9
REMARK VINA RESULT:      -7.4      1.686      2.242
REMARK  Name = 11912188
REMARK  7 active torsions:
REMARK  status: ('A' for Active; 'I' for Inactive)
REMARK    1  A    between atoms: S_1  and  N_9
REMARK    2  A    between atoms: S_1  and  C_21
REMARK    3  A    between atoms: N_9  and  C_16
REMARK    4  A    between atoms: N_10  and  C_17
REMARK    5  A    between atoms: N_13  and  C_29
REMARK    6  A    between atoms: C_24  and  C_30
REMARK    7  A    between atoms: C_36  and  C_38
REMARK                            x       y       z     vdW  Elec       q    Type
REMARK                         _______ _______ _______ _____ _____    ______ ____
ROOT
ATOM      2  O   UNL     1      -8.257 -10.857   9.592  0.00  0.00    -0.370 OA
ATOM      3  O   UNL     1      -6.673  -8.214   9.068  0.00  0.00    -0.370 OA
ATOM     14  C   UNL     1      -6.861  -9.420   8.309  0.00  0.00    +0.170 C 
ATOM     15  C   UNL     1      -6.880 -10.574   9.291  0.00  0.00    +0.171 C 
ATOM     16  C   UNL     1      -8.237  -9.438   7.689  0.00  0.00    +0.133 C 
ATOM     17  C   UNL     1      -6.179 -10.032  10.514  0.00  0.00    +0.130 C 
ATOM     18  C   UNL     1      -9.098 -10.001   8.803  0.00  0.00    +0.183 C 
ATOM     19  C   UNL     1      -6.502  -8.551  10.453  0.00  0.00    +0.185 C 
ENDROOT
BRANCH  17  10
ATOM     10  N   UNL     1      -4.751 -10.238  10.398  0.00  0.00    -0.306 N 
ATOM     11  N   UNL     1      -4.493 -10.409  12.699  0.00  0.00    -0.214 NA
ATOM     12  N   UNL     1      -2.608 -10.607  11.212  0.00  0.00    -0.223 NA
ATOM     20  C   UNL     1      -3.915 -10.427  11.484  0.00  0.00    +0.216 A 
ATOM     24  C   UNL     1      -3.649 -10.595  13.735  0.00  0.00    +0.076 A 
ATOM     25  C   UNL     1      -1.821 -10.787  12.293  0.00  0.00    +0.116 A 
ATOM     28  C   UNL     1      -2.290 -10.791  13.591  0.00  0.00    +0.048 A 
ATOM     40  H   UNL     1      -4.330 -10.302   9.478  0.00  0.00    +0.149 HD
BRANCH  24  30
ATOM      6  O   UNL     1      -7.343  -9.619  16.793  0.00  0.00    -0.453 OA
ATOM      7  O   UNL     1      -6.132 -10.472  18.695  0.00  0.00    -0.453 OA
ATOM     30  C   UNL     1      -4.266 -10.579  15.040  0.00  0.00    +0.004 A 
ATOM     31  C   UNL     1      -5.558 -10.068  15.190  0.00  0.00    +0.059 A 
ATOM     32  C   UNL     1      -3.559 -11.076  16.149  0.00  0.00    +0.014 A 
ATOM     33  C   UNL     1      -6.105 -10.074  16.457  0.00  0.00    +0.167 A 
ATOM     34  C   UNL     1      -4.137 -11.070  17.421  0.00  0.00    +0.050 A 
ATOM     35  C   UNL     1      -5.413 -10.561  17.542  0.00  0.00    +0.166 A 
ATOM     37  C   UNL     1      -7.353  -9.876  18.213  0.00  0.00    +0.466 C 
ENDBRANCH  24  30
ENDBRANCH  17  10
BRANCH  16   9
ATOM      9  N   UNL     1      -8.251 -10.366   6.532  0.00  0.00    -0.182 NA
ATOM     39  H   UNL     1      -8.382 -11.367   6.725  0.00  0.00    +0.148 HD
BRANCH   9   1
ATOM      1  S   UNL     1      -7.672  -9.844   5.025  0.00  0.00    +0.059 S 
ATOM      4  O   UNL     1      -7.131  -8.504   5.151  0.00  0.00    -0.153 OA
ATOM      5  O   UNL     1      -8.671 -10.136   4.014  0.00  0.00    -0.153 OA
BRANCH   1  21
ATOM     21  C   UNL     1      -6.322 -10.952   4.748  0.00  0.00    +0.105 A 
ATOM     22  C   UNL     1      -6.274 -11.716   3.581  0.00  0.00    +0.030 A 
ATOM     23  C   UNL     1      -5.306 -11.062   5.697  0.00  0.00    +0.030 A 
ATOM     26  C   UNL     1      -5.209 -12.589   3.364  0.00  0.00    +0.025 A 
ATOM     27  C   UNL     1      -4.240 -11.937   5.479  0.00  0.00    +0.025 A 
ATOM     29  C   UNL     1      -4.192 -12.700   4.312  0.00  0.00    +0.033 A 
BRANCH  29  13
ATOM      8  O   UNL     1      -1.932 -12.573   2.327  0.00  0.00    -0.276 OA
ATOM     13  N   UNL     1      -3.127 -13.574   4.095  0.00  0.00    -0.286 N 
ATOM     36  C   UNL     1      -2.098 -13.467   3.150  0.00  0.00    +0.214 C 
ATOM     38  C   UNL     1      -1.136 -14.624   3.237  0.00  0.00    +0.109 C 
ATOM     41  H   UNL     1      -3.103 -14.390   4.705  0.00  0.00    +0.155 HD
ENDBRANCH  29  13
ENDBRANCH   1  21
ENDBRANCH   9   1
ENDBRANCH  16   9
TORSDOF 6
ENDMDL
MODEL 10
REMARK VINA RESULT:      -7.3     22.158     24.043
REMARK  Name = 11912188
REMARK  7 active torsions:
REMARK  status: ('A' for Active; 'I' for Inactive)
REMARK    1  A    between atoms: S_1  and  N_9
REMARK    2  A    between atoms: S_1  and  C_21
REMARK    3  A    between atoms: N_9  and  C_16
REMARK    4  A    between atoms: N_10  and  C_17
REMARK    5  A    between atoms: N_13  and  C_29
REMARK    6  A    between atoms: C_24  and  C_30
REMARK    7  A    between atoms: C_36  and  C_38
REMARK                            x       y       z     vdW  Elec       q    Type
REMARK                         _______ _______ _______ _____ _____    ______ ____
ROOT
ATOM      2  O   UNL     1      -0.092   9.961   0.758  0.00  0.00    -0.370 OA
ATOM      3  O   UNL     1       1.144  12.742   1.468  0.00  0.00    -0.370 OA
ATOM     14  C   UNL     1       1.646  11.396   1.518  0.00  0.00    +0.170 C 
ATOM     15  C   UNL     1       0.500  10.502   1.950  0.00  0.00    +0.171 C 
ATOM     16  C   UNL     1       1.988  10.913   0.130  0.00  0.00    +0.133 C 
ATOM     17  C   UNL     1      -0.465  11.441   2.634  0.00  0.00    +0.130 C 
ATOM     18  C   UNL     1       0.657  10.402  -0.384  0.00  0.00    +0.183 C 
ATOM     19  C   UNL     1      -0.221  12.753   1.911  0.00  0.00    +0.185 C 
ENDROOT
BRANCH  17  10
ATOM     10  N   UNL     1      -0.122  11.571   4.034  0.00  0.00    -0.306 N 
ATOM     11  N   UNL     1      -1.829  10.138   4.682  0.00  0.00    -0.214 NA
ATOM     12  N   UNL     1      -0.359  11.143   6.304  0.00  0.00    -0.223 NA
ATOM     20  C   UNL     1      -0.799  10.922   5.051  0.00  0.00    +0.216 A 
ATOM     24  C   UNL     1      -2.468   9.521   5.698  0.00  0.00    +0.076 A 
ATOM     25  C   UNL     1      -1.042  10.496   7.271  0.00  0.00    +0.116 A 
ATOM     28  C   UNL     1      -2.115   9.663   7.025  0.00  0.00    +0.048 A 
ATOM     40  H   UNL     1       0.686  12.121   4.300  0.00  0.00    +0.149 HD
BRANCH  24  30
ATOM      6  O   UNL     1      -6.980   8.784   3.952  0.00  0.00    -0.453 OA
ATOM      7  O   UNL     1      -6.784   6.391   4.163  0.00  0.00    -0.453 OA
ATOM     30  C   UNL     1      -3.572   8.677   5.307  0.00  0.00    +0.004 A 
ATOM     31  C   UNL     1      -4.744   9.253   4.811  0.00  0.00    +0.059 A 
ATOM     32  C   UNL     1      -3.458   7.281   5.430  0.00  0.00    +0.014 A 
ATOM     33  C   UNL     1      -5.771   8.407   4.451  0.00  0.00    +0.167 A 
ATOM     34  C   UNL     1      -4.513   6.445   5.058  0.00  0.00    +0.050 A 
ATOM     35  C   UNL     1      -5.659   7.040   4.571  0.00  0.00    +0.166 A 
ATOM     37  C   UNL     1      -7.616   7.502   3.771  0.00  0.00    +0.466 C 
ENDBRANCH  24  30
ENDBRANCH  17  10
BRANCH  16   9
ATOM      9  N   UNL     1       2.953   9.790   0.215  0.00  0.00    -0.182 NA
ATOM     39  H   UNL     1       2.728   9.016   0.852  0.00  0.00    +0.148 HD
BRANCH   9   1
ATOM      1  S   UNL     1       4.526   9.981  -0.393  0.00  0.00    +0.059 S 
ATOM      4  O   UNL     1       4.687  11.329  -0.905  0.00  0.00    -0.153 OA
ATOM      5  O   UNL     1       4.845   8.839  -1.230  0.00  0.00    -0.153 OA
BRANCH   1  21
ATOM     21  C   UNL     1       5.505   9.834   1.071  0.00  0.00    +0.105 A 
ATOM     22  C   UNL     1       4.949  10.136   2.315  0.00  0.00    +0.030 A 
ATOM     23  C   UNL     1       6.832   9.415   0.983  0.00  0.00    +0.030 A 
ATOM     26  C   UNL     1       5.722  10.019   3.470  0.00  0.00    +0.025 A 
ATOM     27  C   UNL     1       7.605   9.298   2.139  0.00  0.00    +0.025 A 
ATOM     29  C   UNL     1       7.050   9.601   3.383  0.00  0.00    +0.033 A 
BRANCH  29  13
ATOM      8  O   UNL     1       7.944   7.158   4.900  0.00  0.00    -0.276 OA
ATOM     13  N   UNL     1       7.822   9.485   4.538  0.00  0.00    -0.286 N 
ATOM     36  C   UNL     1       8.210   8.315   5.207  0.00  0.00    +0.214 C 
ATOM     38  C   UNL     1       9.047   8.618   6.424  0.00  0.00    +0.109 C 
ATOM     41  H   UNL     1       8.141  10.366   4.939  0.00  0.00    +0.155 HD
ENDBRANCH  29  13
ENDBRANCH   1  21
ENDBRANCH   9   1
ENDBRANCH  16   9
TORSDOF 6
ENDMDL
