MODEL 1
REMARK VINA RESULT:      -7.5      0.000      0.000
REMARK  Name = 11865883
REMARK  4 active torsions:
REMARK  status: ('A' for Active; 'I' for Inactive)
REMARK    1  A    between atoms: N_9  and  C_17
REMARK    2  A    between atoms: C_21  and  C_22
REMARK    3  A    between atoms: C_27  and  C_29
REMARK    4  A    between atoms: C_28  and  C_30
REMARK                            x       y       z     vdW  Elec       q    Type
REMARK                         _______ _______ _______ _____ _____    ______ ____
ROOT
ATOM      1  O   UNL     1      -9.421 -10.967  16.255  0.00  0.00    -0.273 OA
ATOM      2  O   UNL     1      -4.711 -12.180  19.199  0.00  0.00    -0.274 OA
ATOM      3  O   UNL     1     -10.881  -9.211  18.221  0.00  0.00    -0.275 OA
ATOM      6  N   UNL     1     -10.313 -11.360  18.865  0.00  0.00    -0.288 N 
ATOM      7  N   UNL     1      -7.191 -10.984  16.887  0.00  0.00    -0.287 N 
ATOM      8  N   UNL     1      -6.925 -12.606  19.398  0.00  0.00    -0.309 N 
ATOM     11  C   UNL     1      -8.881 -11.243  18.596  0.00  0.00    +0.182 C 
ATOM     12  C   UNL     1      -8.308 -12.617  18.960  0.00  0.00    +0.104 C 
ATOM     13  C   UNL     1      -6.155 -10.754  17.895  0.00  0.00    +0.164 C 
ATOM     14  C   UNL     1      -9.278 -13.126  20.021  0.00  0.00    +0.043 C 
ATOM     15  C   UNL     1     -10.621 -12.643  19.492  0.00  0.00    +0.110 C 
ATOM     16  C   UNL     1      -4.932 -10.331  17.066  0.00  0.00    +0.055 C 
ATOM     17  C   UNL     1      -5.146 -11.050  15.733  0.00  0.00    +0.093 C 
ATOM     18  C   UNL     1      -8.558 -11.028  17.128  0.00  0.00    +0.239 C 
ATOM     19  C   UNL     1      -6.650 -10.934  15.538  0.00  0.00    +0.131 C 
ATOM     20  C   UNL     1      -5.863 -11.943  18.820  0.00  0.00    +0.234 C 
ATOM     22  C   UNL     1     -11.176 -10.280  18.757  0.00  0.00    +0.219 C 
ATOM     36  H   UNL     1      -6.670 -13.335  20.058  0.00  0.00    +0.149 HD
ENDROOT
BRANCH  22  21
ATOM      5  O   UNL     1     -15.976  -7.779  21.687  0.00  0.00    -0.276 OA
ATOM     10  N   UNL     1     -15.044  -9.350  20.253  0.00  0.00    -0.302 N 
ATOM     21  C   UNL     1     -12.543 -10.480  19.338  0.00  0.00    +0.078 C 
ATOM     23  C   UNL     1     -13.608  -9.989  18.353  0.00  0.00    +0.032 C 
ATOM     24  C   UNL     1     -12.644  -9.730  20.669  0.00  0.00    +0.032 C 
ATOM     25  C   UNL     1     -15.004 -10.061  18.969  0.00  0.00    +0.108 C 
ATOM     26  C   UNL     1     -14.060  -9.808  21.236  0.00  0.00    +0.108 C 
ATOM     28  C   UNL     1     -15.943  -8.339  20.588  0.00  0.00    +0.212 C 
ATOM     30  C   UNL     1     -16.922  -7.923  19.520  0.00  0.00    +0.109 C 
ENDBRANCH  22  21
BRANCH  17   9
ATOM      4  O   UNL     1      -4.345 -12.364  13.317  0.00  0.00    -0.270 OA
ATOM      9  N   UNL     1      -4.395 -10.473  14.657  0.00  0.00    -0.307 N 
ATOM     27  C   UNL     1      -4.052 -11.189  13.520  0.00  0.00    +0.244 C 
ATOM     37  H   UNL     1      -4.020  -9.542  14.807  0.00  0.00    +0.149 HD
BRANCH  27  29
ATOM     29  C   UNL     1      -3.250 -10.455  12.508  0.00  0.00    +0.037 A 
ATOM     31  C   UNL     1      -1.893 -10.312  12.710  0.00  0.00    +0.013 A 
ATOM     32  C   UNL     1      -3.887  -9.941  11.398  0.00  0.00    +0.013 A 
ATOM     33  C   UNL     1      -1.139  -9.623  11.760  0.00  0.00    +0.001 A 
ATOM     34  C   UNL     1      -3.133  -9.251  10.448  0.00  0.00    +0.001 A 
ATOM     35  C   UNL     1      -1.759  -9.093  10.629  0.00  0.00    +0.000 A 
ENDBRANCH  27  29
ENDBRANCH  17   9
TORSDOF 3
ENDMDL
MODEL 2
REMARK VINA RESULT:      -7.5      3.887      7.460
REMARK  Name = 11865883
REMARK  4 active torsions:
REMARK  status: ('A' for Active; 'I' for Inactive)
REMARK    1  A    between atoms: N_9  and  C_17
REMARK    2  A    between atoms: C_21  and  C_22
REMARK    3  A    between atoms: C_27  and  C_29
REMARK    4  A    between atoms: C_28  and  C_30
REMARK                            x       y       z     vdW  Elec       q    Type
REMARK                         _______ _______ _______ _____ _____    ______ ____
ROOT
ATOM      1  O   UNL     1      -6.144 -11.903  12.533  0.00  0.00    -0.273 OA
ATOM      2  O   UNL     1      -1.496  -9.181  10.714  0.00  0.00    -0.274 OA
ATOM      3  O   UNL     1      -6.961 -10.148  14.842  0.00  0.00    -0.275 OA
ATOM      6  N   UNL     1      -4.851 -11.098  14.865  0.00  0.00    -0.288 N 
ATOM      7  N   UNL     1      -4.750 -10.638  11.181  0.00  0.00    -0.287 N 
ATOM      8  N   UNL     1      -2.119 -10.293  12.584  0.00  0.00    -0.309 N 
ATOM     11  C   UNL     1      -4.415 -10.571  13.573  0.00  0.00    +0.182 C 
ATOM     12  C   UNL     1      -2.994 -11.119  13.394  0.00  0.00    +0.104 C 
ATOM     13  C   UNL     1      -3.874  -9.481  10.988  0.00  0.00    +0.164 C 
ATOM     14  C   UNL     1      -2.508 -11.294  14.829  0.00  0.00    +0.043 C 
ATOM     15  C   UNL     1      -3.758 -11.798  15.536  0.00  0.00    +0.110 C 
ATOM     16  C   UNL     1      -4.055  -9.133   9.503  0.00  0.00    +0.055 C 
ATOM     17  C   UNL     1      -4.388 -10.482   8.864  0.00  0.00    +0.093 C 
ATOM     18  C   UNL     1      -5.221 -11.102  12.401  0.00  0.00    +0.239 C 
ATOM     19  C   UNL     1      -5.275 -11.131   9.917  0.00  0.00    +0.131 C 
ATOM     20  C   UNL     1      -2.404  -9.699  11.372  0.00  0.00    +0.234 C 
ATOM     22  C   UNL     1      -6.060 -10.740  15.440  0.00  0.00    +0.219 C 
ATOM     36  H   UNL     1      -1.131 -10.343  12.817  0.00  0.00    +0.149 HD
ENDROOT
BRANCH  22  21
ATOM      5  O   UNL     1      -9.684 -10.672  20.414  0.00  0.00    -0.276 OA
ATOM     10  N   UNL     1      -7.995 -11.607  19.123  0.00  0.00    -0.302 N 
ATOM     21  C   UNL     1      -6.237 -11.126  16.877  0.00  0.00    +0.078 C 
ATOM     23  C   UNL     1      -7.076 -12.402  16.978  0.00  0.00    +0.032 C 
ATOM     24  C   UNL     1      -6.904  -9.974  17.634  0.00  0.00    +0.032 C 
ATOM     25  C   UNL     1      -7.381 -12.749  18.434  0.00  0.00    +0.108 C 
ATOM     26  C   UNL     1      -7.212 -10.371  19.076  0.00  0.00    +0.108 C 
ATOM     28  C   UNL     1      -9.204 -11.639  19.816  0.00  0.00    +0.212 C 
ATOM     30  C   UNL     1      -9.952 -12.948  19.814  0.00  0.00    +0.109 C 
ENDBRANCH  22  21
BRANCH  17   9
ATOM      4  O   UNL     1      -6.680  -8.871   8.264  0.00  0.00    -0.270 OA
ATOM      9  N   UNL     1      -5.033 -10.356   7.590  0.00  0.00    -0.307 N 
ATOM     27  C   UNL     1      -6.142  -9.548   7.392  0.00  0.00    +0.244 C 
ATOM     37  H   UNL     1      -4.713 -10.975   6.852  0.00  0.00    +0.149 HD
BRANCH  27  29
ATOM     29  C   UNL     1      -6.708  -9.547   6.019  0.00  0.00    +0.037 A 
ATOM     31  C   UNL     1      -6.555 -10.672   5.235  0.00  0.00    +0.013 A 
ATOM     32  C   UNL     1      -7.370  -8.422   5.571  0.00  0.00    +0.013 A 
ATOM     33  C   UNL     1      -7.087 -10.671   3.945  0.00  0.00    +0.001 A 
ATOM     34  C   UNL     1      -7.901  -8.422   4.282  0.00  0.00    +0.001 A 
ATOM     35  C   UNL     1      -7.760  -9.547   3.469  0.00  0.00    +0.000 A 
ENDBRANCH  27  29
ENDBRANCH  17   9
TORSDOF 3
ENDMDL
MODEL 3
REMARK VINA RESULT:      -7.5     29.411     33.725
REMARK  Name = 11865883
REMARK  4 active torsions:
REMARK  status: ('A' for Active; 'I' for Inactive)
REMARK    1  A    between atoms: N_9  and  C_17
REMARK    2  A    between atoms: C_21  and  C_22
REMARK    3  A    between atoms: C_27  and  C_29
REMARK    4  A    between atoms: C_28  and  C_30
REMARK                            x       y       z     vdW  Elec       q    Type
REMARK                         _______ _______ _______ _____ _____    ______ ____
ROOT
ATOM      1  O   UNL     1      19.282   5.878  22.604  0.00  0.00    -0.273 OA
ATOM      2  O   UNL     1      23.920   7.968  20.067  0.00  0.00    -0.274 OA
ATOM      3  O   UNL     1      17.230   6.248  20.428  0.00  0.00    -0.275 OA
ATOM      6  N   UNL     1      18.366   8.107  21.208  0.00  0.00    -0.288 N 
ATOM      7  N   UNL     1      21.365   5.949  21.591  0.00  0.00    -0.287 N 
ATOM      8  N   UNL     1      21.925   8.779  20.764  0.00  0.00    -0.309 N 
ATOM     11  C   UNL     1      19.713   7.597  20.960  0.00  0.00    +0.182 C 
ATOM     12  C   UNL     1      20.644   8.718  21.440  0.00  0.00    +0.104 C 
ATOM     13  C   UNL     1      22.212   6.308  20.452  0.00  0.00    +0.164 C 
ATOM     14  C   UNL     1      19.797   9.973  21.252  0.00  0.00    +0.043 C 
ATOM     15  C   UNL     1      18.412   9.494  21.664  0.00  0.00    +0.110 C 
ATOM     16  C   UNL     1      23.309   5.232  20.464  0.00  0.00    +0.055 C 
ATOM     17  C   UNL     1      23.413   4.852  21.941  0.00  0.00    +0.093 C 
ATOM     18  C   UNL     1      20.060   6.377  21.795  0.00  0.00    +0.239 C 
ATOM     19  C   UNL     1      21.960   4.890  22.391  0.00  0.00    +0.131 C 
ATOM     20  C   UNL     1      22.779   7.734  20.480  0.00  0.00    +0.234 C 
ATOM     22  C   UNL     1      17.230   7.420  20.808  0.00  0.00    +0.219 C 
ATOM     36  H   UNL     1      22.339   9.704  20.695  0.00  0.00    +0.149 HD
ENDROOT
BRANCH  22  21
ATOM      5  O   UNL     1      11.293   7.735  19.220  0.00  0.00    -0.276 OA
ATOM     10  N   UNL     1      13.066   8.246  20.630  0.00  0.00    -0.302 N 
ATOM     21  C   UNL     1      15.948   8.193  20.869  0.00  0.00    +0.078 C 
ATOM     23  C   UNL     1      15.043   7.622  21.964  0.00  0.00    +0.032 C 
ATOM     24  C   UNL     1      15.255   8.135  19.505  0.00  0.00    +0.032 C 
ATOM     25  C   UNL     1      13.678   8.306  21.964  0.00  0.00    +0.108 C 
ATOM     26  C   UNL     1      13.886   8.808  19.556  0.00  0.00    +0.108 C 
ATOM     28  C   UNL     1      11.797   7.744  20.346  0.00  0.00    +0.212 C 
ATOM     30  C   UNL     1      11.017   7.181  21.507  0.00  0.00    +0.109 C 
ENDBRANCH  22  21
BRANCH  17   9
ATOM      4  O   UNL     1      26.221   4.289  21.885  0.00  0.00    -0.270 OA
ATOM      9  N   UNL     1      24.031   3.576  22.151  0.00  0.00    -0.307 N 
ATOM     27  C   UNL     1      25.406   3.398  22.105  0.00  0.00    +0.244 C 
ATOM     37  H   UNL     1      23.414   2.774  22.223  0.00  0.00    +0.149 HD
BRANCH  27  29
ATOM     29  C   UNL     1      25.888   2.009  22.318  0.00  0.00    +0.037 A 
ATOM     31  C   UNL     1      27.119   1.814  22.911  0.00  0.00    +0.013 A 
ATOM     32  C   UNL     1      25.090   0.958  21.917  0.00  0.00    +0.013 A 
ATOM     33  C   UNL     1      27.572   0.510  23.110  0.00  0.00    +0.001 A 
ATOM     34  C   UNL     1      25.543  -0.346  22.116  0.00  0.00    +0.001 A 
ATOM     35  C   UNL     1      26.784  -0.569  22.714  0.00  0.00    +0.000 A 
ENDBRANCH  27  29
ENDBRANCH  17   9
TORSDOF 3
ENDMDL
MODEL 4
REMARK VINA RESULT:      -7.4     29.300     34.725
REMARK  Name = 11865883
REMARK  4 active torsions:
REMARK  status: ('A' for Active; 'I' for Inactive)
REMARK    1  A    between atoms: N_9  and  C_17
REMARK    2  A    between atoms: C_21  and  C_22
REMARK    3  A    between atoms: C_27  and  C_29
REMARK    4  A    between atoms: C_28  and  C_30
REMARK                            x       y       z     vdW  Elec       q    Type
REMARK                         _______ _______ _______ _____ _____    ______ ____
ROOT
ATOM      1  O   UNL     1      20.413   4.320  20.403  0.00  0.00    -0.273 OA
ATOM      2  O   UNL     1      20.233   9.928  21.318  0.00  0.00    -0.274 OA
ATOM      3  O   UNL     1      22.069   3.415  22.752  0.00  0.00    -0.275 OA
ATOM      6  N   UNL     1      22.974   4.963  21.288  0.00  0.00    -0.288 N 
ATOM      7  N   UNL     1      19.574   6.415  20.932  0.00  0.00    -0.287 N 
ATOM      8  N   UNL     1      21.826   8.395  20.829  0.00  0.00    -0.309 N 
ATOM     11  C   UNL     1      21.899   5.947  21.398  0.00  0.00    +0.182 C 
ATOM     12  C   UNL     1      22.320   7.083  20.459  0.00  0.00    +0.104 C 
ATOM     13  C   UNL     1      19.618   7.634  21.741  0.00  0.00    +0.164 C 
ATOM     14  C   UNL     1      23.842   6.984  20.458  0.00  0.00    +0.043 C 
ATOM     15  C   UNL     1      24.069   5.480  20.471  0.00  0.00    +0.110 C 
ATOM     16  C   UNL     1      18.148   8.076  21.810  0.00  0.00    +0.055 C 
ATOM     17  C   UNL     1      17.561   7.547  20.502  0.00  0.00    +0.093 C 
ATOM     18  C   UNL     1      20.564   5.443  20.877  0.00  0.00    +0.239 C 
ATOM     19  C   UNL     1      18.257   6.203  20.351  0.00  0.00    +0.131 C 
ATOM     20  C   UNL     1      20.546   8.737  21.215  0.00  0.00    +0.234 C 
ATOM     22  C   UNL     1      23.015   3.821  22.074  0.00  0.00    +0.219 C 
ATOM     36  H   UNL     1      22.417   9.177  20.561  0.00  0.00    +0.149 HD
ENDROOT
BRANCH  22  21
ATOM      5  O   UNL     1      27.044   0.375  25.199  0.00  0.00    -0.276 OA
ATOM     10  N   UNL     1      26.027   1.053  23.224  0.00  0.00    -0.302 N 
ATOM     21  C   UNL     1      24.308   3.065  22.056  0.00  0.00    +0.078 C 
ATOM     23  C   UNL     1      24.040   1.571  21.859  0.00  0.00    +0.032 C 
ATOM     24  C   UNL     1      25.061   3.316  23.366  0.00  0.00    +0.032 C 
ATOM     25  C   UNL     1      25.330   0.760  21.965  0.00  0.00    +0.108 C 
ATOM     26  C   UNL     1      26.329   2.469  23.440  0.00  0.00    +0.108 C 
ATOM     28  C   UNL     1      26.431   0.105  24.163  0.00  0.00    +0.212 C 
ATOM     30  C   UNL     1      26.078  -1.331  23.868  0.00  0.00    +0.109 C 
ENDBRANCH  22  21
BRANCH  17   9
ATOM      4  O   UNL     1      15.679   9.561  19.719  0.00  0.00    -0.270 OA
ATOM      9  N   UNL     1      16.132   7.437  20.532  0.00  0.00    -0.307 N 
ATOM     27  C   UNL     1      15.296   8.469  20.131  0.00  0.00    +0.244 C 
ATOM     37  H   UNL     1      15.745   6.607  20.970  0.00  0.00    +0.149 HD
BRANCH  27  29
ATOM     29  C   UNL     1      13.839   8.207  20.247  0.00  0.00    +0.037 A 
ATOM     31  C   UNL     1      13.415   7.105  20.962  0.00  0.00    +0.013 A 
ATOM     32  C   UNL     1      12.955   9.074  19.639  0.00  0.00    +0.013 A 
ATOM     33  C   UNL     1      12.047   6.859  21.071  0.00  0.00    +0.001 A 
ATOM     34  C   UNL     1      11.587   8.827  19.748  0.00  0.00    +0.001 A 
ATOM     35  C   UNL     1      11.133   7.720  20.465  0.00  0.00    +0.000 A 
ENDBRANCH  27  29
ENDBRANCH  17   9
TORSDOF 3
ENDMDL
MODEL 5
REMARK VINA RESULT:      -7.0      6.644     14.276
REMARK  Name = 11865883
REMARK  4 active torsions:
REMARK  status: ('A' for Active; 'I' for Inactive)
REMARK    1  A    between atoms: N_9  and  C_17
REMARK    2  A    between atoms: C_21  and  C_22
REMARK    3  A    between atoms: C_27  and  C_29
REMARK    4  A    between atoms: C_28  and  C_30
REMARK                            x       y       z     vdW  Elec       q    Type
REMARK                         _______ _______ _______ _____ _____    ______ ____
ROOT
ATOM      1  O   UNL     1      -4.652 -13.357   8.306  0.00  0.00    -0.273 OA
ATOM      2  O   UNL     1      -5.609  -7.842   9.301  0.00  0.00    -0.274 OA
ATOM      3  O   UNL     1      -2.541 -13.188   6.163  0.00  0.00    -0.275 OA
ATOM      6  N   UNL     1      -4.586 -12.173   5.786  0.00  0.00    -0.288 N 
ATOM      7  N   UNL     1      -4.675 -11.313   9.398  0.00  0.00    -0.287 N 
ATOM      8  N   UNL     1      -5.892  -9.270   7.568  0.00  0.00    -0.309 N 
ATOM     11  C   UNL     1      -4.581 -11.335   6.983  0.00  0.00    +0.182 C 
ATOM     12  C   UNL     1      -5.907 -10.567   6.920  0.00  0.00    +0.104 C 
ATOM     13  C   UNL     1      -4.339  -9.888   9.435  0.00  0.00    +0.164 C 
ATOM     14  C   UNL     1      -6.195 -10.498   5.424  0.00  0.00    +0.043 C 
ATOM     15  C   UNL     1      -5.739 -11.867   4.941  0.00  0.00    +0.110 C 
ATOM     16  C   UNL     1      -4.111  -9.610  10.929  0.00  0.00    +0.055 C 
ATOM     17  C   UNL     1      -5.019 -10.627  11.619  0.00  0.00    +0.093 C 
ATOM     18  C   UNL     1      -4.616 -12.129   8.276  0.00  0.00    +0.239 C 
ATOM     19  C   UNL     1      -4.864 -11.856  10.734  0.00  0.00    +0.131 C 
ATOM     20  C   UNL     1      -5.380  -8.952   8.808  0.00  0.00    +0.234 C 
ATOM     22  C   UNL     1      -3.498 -12.951   5.423  0.00  0.00    +0.219 C 
ATOM     36  H   UNL     1      -6.520  -8.576   7.170  0.00  0.00    +0.149 HD
ENDROOT
BRANCH  22  21
ATOM      5  O   UNL     1      -0.653 -13.607   0.004  0.00  0.00    -0.276 OA
ATOM     10  N   UNL     1      -2.135 -14.328   1.640  0.00  0.00    -0.302 N 
ATOM     21  C   UNL     1      -3.538 -13.522   4.038  0.00  0.00    +0.078 C 
ATOM     23  C   UNL     1      -2.730 -14.820   3.982  0.00  0.00    +0.032 C 
ATOM     24  C   UNL     1      -2.985 -12.493   3.048  0.00  0.00    +0.032 C 
ATOM     25  C   UNL     1      -2.646 -15.358   2.555  0.00  0.00    +0.108 C 
ATOM     26  C   UNL     1      -2.897 -13.078   1.641  0.00  0.00    +0.108 C 
ATOM     28  C   UNL     1      -1.043 -14.477   0.787  0.00  0.00    +0.212 C 
ATOM     30  C   UNL     1      -0.310 -15.793   0.850  0.00  0.00    +0.109 C 
ENDBRANCH  22  21
BRANCH  17   9
ATOM      4  O   UNL     1      -6.419  -9.714  13.945  0.00  0.00    -0.270 OA
ATOM      9  N   UNL     1      -4.655 -10.871  12.984  0.00  0.00    -0.307 N 
ATOM     27  C   UNL     1      -5.397 -10.387  14.051  0.00  0.00    +0.244 C 
ATOM     37  H   UNL     1      -3.759 -11.321  13.146  0.00  0.00    +0.149 HD
BRANCH  27  29
ATOM     29  C   UNL     1      -4.872 -10.704  15.403  0.00  0.00    +0.037 A 
ATOM     31  C   UNL     1      -3.509 -10.823  15.577  0.00  0.00    +0.013 A 
ATOM     32  C   UNL     1      -5.764 -10.868  16.443  0.00  0.00    +0.013 A 
ATOM     33  C   UNL     1      -3.015 -11.121  16.848  0.00  0.00    +0.001 A 
ATOM     34  C   UNL     1      -5.271 -11.166  17.713  0.00  0.00    +0.001 A 
ATOM     35  C   UNL     1      -3.896 -11.292  17.915  0.00  0.00    +0.000 A 
ENDBRANCH  27  29
ENDBRANCH  17   9
TORSDOF 3
ENDMDL
MODEL 6
REMARK VINA RESULT:      -7.0     10.876     15.369
REMARK  Name = 11865883
REMARK  4 active torsions:
REMARK  status: ('A' for Active; 'I' for Inactive)
REMARK    1  A    between atoms: N_9  and  C_17
REMARK    2  A    between atoms: C_21  and  C_22
REMARK    3  A    between atoms: C_27  and  C_29
REMARK    4  A    between atoms: C_28  and  C_30
REMARK                            x       y       z     vdW  Elec       q    Type
REMARK                         _______ _______ _______ _____ _____    ______ ____
ROOT
ATOM      1  O   UNL     1      -9.051  -9.589   3.883  0.00  0.00    -0.273 OA
ATOM      2  O   UNL     1     -10.468  -5.867   7.941  0.00  0.00    -0.274 OA
ATOM      3  O   UNL     1      -9.023  -7.801   1.458  0.00  0.00    -0.275 OA
ATOM      6  N   UNL     1     -10.973  -7.961   2.694  0.00  0.00    -0.288 N 
ATOM      7  N   UNL     1      -8.864  -8.216   5.741  0.00  0.00    -0.287 N 
ATOM      8  N   UNL     1     -11.452  -6.740   6.099  0.00  0.00    -0.309 N 
ATOM     11  C   UNL     1     -10.390  -7.578   3.978  0.00  0.00    +0.182 C 
ATOM     12  C   UNL     1     -11.562  -7.639   4.966  0.00  0.00    +0.104 C 
ATOM     13  C   UNL     1      -8.964  -6.891   6.357  0.00  0.00    +0.164 C 
ATOM     14  C   UNL     1     -12.773  -7.359   4.082  0.00  0.00    +0.043 C 
ATOM     15  C   UNL     1     -12.423  -8.108   2.805  0.00  0.00    +0.110 C 
ATOM     16  C   UNL     1      -7.885  -6.920   7.451  0.00  0.00    +0.055 C 
ATOM     17  C   UNL     1      -7.811  -8.398   7.833  0.00  0.00    +0.093 C 
ATOM     18  C   UNL     1      -9.357  -8.566   4.491  0.00  0.00    +0.239 C 
ATOM     19  C   UNL     1      -7.975  -9.091   6.488  0.00  0.00    +0.131 C 
ATOM     20  C   UNL     1     -10.351  -6.523   6.900  0.00  0.00    +0.234 C 
ATOM     22  C   UNL     1     -10.248  -7.927   1.513  0.00  0.00    +0.219 C 
ATOM     36  H   UNL     1     -12.334  -6.409   6.481  0.00  0.00    +0.149 HD
ENDROOT
BRANCH  22  21
ATOM      5  O   UNL     1     -11.259  -5.942  -4.224  0.00  0.00    -0.276 OA
ATOM     10  N   UNL     1     -11.312  -7.589  -2.587  0.00  0.00    -0.302 N 
ATOM     21  C   UNL     1     -11.048  -8.064   0.254  0.00  0.00    +0.078 C 
ATOM     23  C   UNL     1     -10.273  -8.895  -0.772  0.00  0.00    +0.032 C 
ATOM     24  C   UNL     1     -11.366  -6.673  -0.300  0.00  0.00    +0.032 C 
ATOM     25  C   UNL     1     -11.007  -8.944  -2.110  0.00  0.00    +0.108 C 
ATOM     26  C   UNL     1     -12.078  -6.768  -1.648  0.00  0.00    +0.108 C 
ATOM     28  C   UNL     1     -10.963  -7.076  -3.835  0.00  0.00    +0.212 C 
ATOM     30  C   UNL     1     -10.172  -7.983  -4.743  0.00  0.00    +0.109 C 
ENDBRANCH  22  21
BRANCH  17   9
ATOM      4  O   UNL     1      -7.470  -8.876  10.637  0.00  0.00    -0.270 OA
ATOM      9  N   UNL     1      -6.589  -8.746   8.497  0.00  0.00    -0.307 N 
ATOM     27  C   UNL     1      -6.519  -8.960   9.865  0.00  0.00    +0.244 C 
ATOM     37  H   UNL     1      -5.741  -8.719   7.940  0.00  0.00    +0.149 HD
BRANCH  27  29
ATOM     29  C   UNL     1      -5.174  -9.288  10.404  0.00  0.00    +0.037 A 
ATOM     31  C   UNL     1      -4.059  -8.896   9.692  0.00  0.00    +0.013 A 
ATOM     32  C   UNL     1      -5.082  -9.972  11.597  0.00  0.00    +0.013 A 
ATOM     33  C   UNL     1      -2.795  -9.203  10.197  0.00  0.00    +0.001 A 
ATOM     34  C   UNL     1      -3.818 -10.279  12.102  0.00  0.00    +0.001 A 
ATOM     35  C   UNL     1      -2.675  -9.894  11.401  0.00  0.00    +0.000 A 
ENDBRANCH  27  29
ENDBRANCH  17   9
TORSDOF 3
ENDMDL
MODEL 7
REMARK VINA RESULT:      -6.9     12.727     18.314
REMARK  Name = 11865883
REMARK  4 active torsions:
REMARK  status: ('A' for Active; 'I' for Inactive)
REMARK    1  A    between atoms: N_9  and  C_17
REMARK    2  A    between atoms: C_21  and  C_22
REMARK    3  A    between atoms: C_27  and  C_29
REMARK    4  A    between atoms: C_28  and  C_30
REMARK                            x       y       z     vdW  Elec       q    Type
REMARK                         _______ _______ _______ _____ _____    ______ ____
ROOT
ATOM      1  O   UNL     1      -1.827 -14.369   0.465  0.00  0.00    -0.273 OA
ATOM      2  O   UNL     1       3.576 -15.580   1.754  0.00  0.00    -0.274 OA
ATOM      3  O   UNL     1      -2.402 -12.171   2.443  0.00  0.00    -0.275 OA
ATOM      6  N   UNL     1      -1.727 -14.234   3.245  0.00  0.00    -0.288 N 
ATOM      7  N   UNL     1       0.478 -14.520   0.270  0.00  0.00    -0.287 N 
ATOM      8  N   UNL     1       1.570 -15.729   2.790  0.00  0.00    -0.309 N 
ATOM     11  C   UNL     1      -0.487 -14.315   2.477  0.00  0.00    +0.182 C 
ATOM     12  C   UNL     1       0.123 -15.666   2.872  0.00  0.00    +0.104 C 
ATOM     13  C   UNL     1       1.818 -14.240   0.789  0.00  0.00    +0.164 C 
ATOM     14  C   UNL     1      -0.416 -15.888   4.282  0.00  0.00    +0.043 C 
ATOM     15  C   UNL     1      -1.838 -15.358   4.172  0.00  0.00    +0.110 C 
ATOM     16  C   UNL     1       2.673 -14.091  -0.479  0.00  0.00    +0.055 C 
ATOM     17  C   UNL     1       1.962 -14.990  -1.490  0.00  0.00    +0.093 C 
ATOM     18  C   UNL     1      -0.709 -14.379   0.976  0.00  0.00    +0.239 C 
ATOM     19  C   UNL     1       0.495 -14.748  -1.166  0.00  0.00    +0.131 C 
ATOM     20  C   UNL     1       2.376 -15.287   1.763  0.00  0.00    +0.234 C 
ATOM     22  C   UNL     1      -2.526 -13.101   3.242  0.00  0.00    +0.219 C 
ATOM     36  H   UNL     1       2.017 -16.364   3.445  0.00  0.00    +0.149 HD
ENDROOT
BRANCH  22  21
ATOM      5  O   UNL     1      -5.073 -10.017   7.920  0.00  0.00    -0.276 OA
ATOM     10  N   UNL     1      -5.188 -11.520   6.154  0.00  0.00    -0.302 N 
ATOM     21  C   UNL     1      -3.596 -13.057   4.290  0.00  0.00    +0.078 C 
ATOM     23  C   UNL     1      -4.757 -12.178   3.817  0.00  0.00    +0.032 C 
ATOM     24  C   UNL     1      -3.006 -12.522   5.597  0.00  0.00    +0.032 C 
ATOM     25  C   UNL     1      -5.805 -12.010   4.915  0.00  0.00    +0.108 C 
ATOM     26  C   UNL     1      -4.090 -12.348   6.658  0.00  0.00    +0.108 C 
ATOM     28  C   UNL     1      -5.589 -10.390   6.863  0.00  0.00    +0.212 C 
ATOM     30  C   UNL     1      -6.724  -9.590   6.275  0.00  0.00    +0.109 C 
ENDBRANCH  22  21
BRANCH  17   9
ATOM      4  O   UNL     1       1.269 -12.600  -2.910  0.00  0.00    -0.270 OA
ATOM      9  N   UNL     1       2.294 -14.679  -2.849  0.00  0.00    -0.307 N 
ATOM     27  C   UNL     1       1.915 -13.491  -3.456  0.00  0.00    +0.244 C 
ATOM     37  H   UNL     1       2.726 -15.417  -3.396  0.00  0.00    +0.149 HD
BRANCH  27  29
ATOM     29  C   UNL     1       2.315 -13.331  -4.877  0.00  0.00    +0.037 A 
ATOM     31  C   UNL     1       3.048 -14.333  -5.479  0.00  0.00    +0.013 A 
ATOM     32  C   UNL     1       1.940 -12.188  -5.551  0.00  0.00    +0.013 A 
ATOM     33  C   UNL     1       3.424 -14.184  -6.814  0.00  0.00    +0.001 A 
ATOM     34  C   UNL     1       2.315 -12.038  -6.886  0.00  0.00    +0.001 A 
ATOM     35  C   UNL     1       3.057 -13.037  -7.517  0.00  0.00    +0.000 A 
ENDBRANCH  27  29
ENDBRANCH  17   9
TORSDOF 3
ENDMDL
MODEL 8
REMARK VINA RESULT:      -6.9     26.591     29.127
REMARK  Name = 11865883
REMARK  4 active torsions:
REMARK  status: ('A' for Active; 'I' for Inactive)
REMARK    1  A    between atoms: N_9  and  C_17
REMARK    2  A    between atoms: C_21  and  C_22
REMARK    3  A    between atoms: C_27  and  C_29
REMARK    4  A    between atoms: C_28  and  C_30
REMARK                            x       y       z     vdW  Elec       q    Type
REMARK                         _______ _______ _______ _____ _____    ______ ____
ROOT
ATOM      1  O   UNL     1      -6.351   9.103  38.921  0.00  0.00    -0.273 OA
ATOM      2  O   UNL     1      -1.264   9.479  36.410  0.00  0.00    -0.274 OA
ATOM      3  O   UNL     1      -8.036   8.092  36.637  0.00  0.00    -0.275 OA
ATOM      6  N   UNL     1      -6.902  10.092  36.376  0.00  0.00    -0.288 N 
ATOM      7  N   UNL     1      -4.143   8.636  38.392  0.00  0.00    -0.287 N 
ATOM      8  N   UNL     1      -3.279  10.486  36.193  0.00  0.00    -0.309 N 
ATOM     11  C   UNL     1      -5.570   9.571  36.681  0.00  0.00    +0.182 C 
ATOM     12  C   UNL     1      -4.646  10.789  36.570  0.00  0.00    +0.104 C 
ATOM     13  C   UNL     1      -3.117   8.297  37.404  0.00  0.00    +0.164 C 
ATOM     14  C   UNL     1      -5.370  11.681  35.566  0.00  0.00    +0.043 C 
ATOM     15  C   UNL     1      -6.829  11.489  35.954  0.00  0.00    +0.110 C 
ATOM     16  C   UNL     1      -2.109   7.456  38.203  0.00  0.00    +0.055 C 
ATOM     17  C   UNL     1      -2.245   8.001  39.624  0.00  0.00    +0.093 C 
ATOM     18  C   UNL     1      -5.431   9.067  38.106  0.00  0.00    +0.239 C 
ATOM     19  C   UNL     1      -3.742   8.250  39.736  0.00  0.00    +0.131 C 
ATOM     20  C   UNL     1      -2.465   9.494  36.698  0.00  0.00    +0.234 C 
ATOM     22  C   UNL     1      -8.012   9.268  36.270  0.00  0.00    +0.219 C 
ATOM     36  H   UNL     1      -2.797  11.213  35.671  0.00  0.00    +0.149 HD
ENDROOT
BRANCH  22  21
ATOM      5  O   UNL     1     -12.383   9.015  31.945  0.00  0.00    -0.276 OA
ATOM     10  N   UNL     1     -11.608   9.654  34.039  0.00  0.00    -0.302 N 
ATOM     21  C   UNL     1      -9.234   9.897  35.675  0.00  0.00    +0.078 C 
ATOM     23  C   UNL     1     -10.491   9.189  36.187  0.00  0.00    +0.032 C 
ATOM     24  C   UNL     1      -9.151   9.821  34.148  0.00  0.00    +0.032 C 
ATOM     25  C   UNL     1     -11.745   9.724  35.500  0.00  0.00    +0.108 C 
ATOM     26  C   UNL     1     -10.433  10.343  33.502  0.00  0.00    +0.108 C 
ATOM     28  C   UNL     1     -12.505   9.032  33.173  0.00  0.00    +0.212 C 
ATOM     30  C   UNL     1     -13.688   8.342  33.805  0.00  0.00    +0.109 C 
ENDBRANCH  22  21
BRANCH  17   9
ATOM      4  O   UNL     1       0.442   7.848  40.604  0.00  0.00    -0.270 OA
ATOM      9  N   UNL     1      -1.752   7.098  40.622  0.00  0.00    -0.307 N 
ATOM     27  C   UNL     1      -0.428   7.097  41.036  0.00  0.00    +0.244 C 
ATOM     37  H   UNL     1      -2.387   6.373  40.938  0.00  0.00    +0.149 HD
BRANCH  27  29
ATOM     29  C   UNL     1      -0.069   6.082  42.059  0.00  0.00    +0.037 A 
ATOM     31  C   UNL     1       1.265   5.814  42.292  0.00  0.00    +0.013 A 
ATOM     32  C   UNL     1      -1.079   5.439  42.744  0.00  0.00    +0.013 A 
ATOM     33  C   UNL     1       1.603   4.861  43.253  0.00  0.00    +0.001 A 
ATOM     34  C   UNL     1      -0.741   4.486  43.705  0.00  0.00    +0.001 A 
ATOM     35  C   UNL     1       0.600   4.197  43.959  0.00  0.00    +0.000 A 
ENDBRANCH  27  29
ENDBRANCH  17   9
TORSDOF 3
ENDMDL
MODEL 9
REMARK VINA RESULT:      -6.8     26.530     31.310
REMARK  Name = 11865883
REMARK  4 active torsions:
REMARK  status: ('A' for Active; 'I' for Inactive)
REMARK    1  A    between atoms: N_9  and  C_17
REMARK    2  A    between atoms: C_21  and  C_22
REMARK    3  A    between atoms: C_27  and  C_29
REMARK    4  A    between atoms: C_28  and  C_30
REMARK                            x       y       z     vdW  Elec       q    Type
REMARK                         _______ _______ _______ _____ _____    ______ ____
ROOT
ATOM      1  O   UNL     1       9.844   6.463  -0.430  0.00  0.00    -0.273 OA
ATOM      2  O   UNL     1      13.979   3.077   1.511  0.00  0.00    -0.274 OA
ATOM      3  O   UNL     1       8.737   4.778  -2.669  0.00  0.00    -0.275 OA
ATOM      6  N   UNL     1      10.976   5.360  -2.724  0.00  0.00    -0.288 N 
ATOM      7  N   UNL     1      11.013   5.038   0.977  0.00  0.00    -0.287 N 
ATOM      8  N   UNL     1      13.543   4.202  -0.404  0.00  0.00    -0.309 N 
ATOM     11  C   UNL     1      11.322   4.820  -1.411  0.00  0.00    +0.182 C 
ATOM     12  C   UNL     1      12.816   5.129  -1.249  0.00  0.00    +0.104 C 
ATOM     13  C   UNL     1      11.684   3.759   1.218  0.00  0.00    +0.164 C 
ATOM     14  C   UNL     1      13.318   5.163  -2.688  0.00  0.00    +0.043 C 
ATOM     15  C   UNL     1      12.168   5.840  -3.419  0.00  0.00    +0.110 C 
ATOM     16  C   UNL     1      11.452   3.507   2.716  0.00  0.00    +0.055 C 
ATOM     17  C   UNL     1      11.352   4.916   3.298  0.00  0.00    +0.093 C 
ATOM     18  C   UNL     1      10.621   5.524  -0.263  0.00  0.00    +0.239 C 
ATOM     19  C   UNL     1      10.582   5.662   2.218  0.00  0.00    +0.131 C 
ATOM     20  C   UNL     1      13.168   3.713   0.830  0.00  0.00    +0.234 C 
ATOM     22  C   UNL     1       9.722   5.186  -3.287  0.00  0.00    +0.219 C 
ATOM     36  H   UNL     1      14.525   4.077  -0.636  0.00  0.00    +0.149 HD
ENDROOT
BRANCH  22  21
ATOM      5  O   UNL     1       6.294   5.040  -8.397  0.00  0.00    -0.276 OA
ATOM     10  N   UNL     1       7.943   5.986  -7.063  0.00  0.00    -0.302 N 
ATOM     21  C   UNL     1       9.606   5.538  -4.739  0.00  0.00    +0.078 C 
ATOM     23  C   UNL     1       8.789   6.822  -4.904  0.00  0.00    +0.032 C 
ATOM     24  C   UNL     1       8.953   4.377  -5.493  0.00  0.00    +0.032 C 
ATOM     25  C   UNL     1       8.546   7.136  -6.379  0.00  0.00    +0.108 C 
ATOM     26  C   UNL     1       8.707   4.741  -6.955  0.00  0.00    +0.108 C 
ATOM     28  C   UNL     1       6.763   6.015  -7.804  0.00  0.00    +0.212 C 
ATOM     30  C   UNL     1       6.034   7.334  -7.864  0.00  0.00    +0.109 C 
ENDBRANCH  22  21
BRANCH  17   9
ATOM      4  O   UNL     1      11.883   6.752   5.433  0.00  0.00    -0.270 OA
ATOM      9  N   UNL     1      10.701   4.952   4.575  0.00  0.00    -0.307 N 
ATOM     27  C   UNL     1      11.025   5.882   5.551  0.00  0.00    +0.244 C 
ATOM     37  H   UNL     1      10.063   4.190   4.786  0.00  0.00    +0.149 HD
BRANCH  27  29
ATOM     29  C   UNL     1      10.277   5.769   6.830  0.00  0.00    +0.037 A 
ATOM     31  C   UNL     1      10.224   4.545   7.464  0.00  0.00    +0.013 A 
ATOM     32  C   UNL     1       9.660   6.891   7.342  0.00  0.00    +0.013 A 
ATOM     33  C   UNL     1       9.522   4.438   8.665  0.00  0.00    +0.001 A 
ATOM     34  C   UNL     1       8.958   6.784   8.543  0.00  0.00    +0.001 A 
ATOM     35  C   UNL     1       8.889   5.558   9.204  0.00  0.00    +0.000 A 
ENDBRANCH  27  29
ENDBRANCH  17   9
TORSDOF 3
ENDMDL
MODEL 10
REMARK VINA RESULT:      -6.7     10.027     14.417
REMARK  Name = 11865883
REMARK  4 active torsions:
REMARK  status: ('A' for Active; 'I' for Inactive)
REMARK    1  A    between atoms: N_9  and  C_17
REMARK    2  A    between atoms: C_21  and  C_22
REMARK    3  A    between atoms: C_27  and  C_29
REMARK    4  A    between atoms: C_28  and  C_30
REMARK                            x       y       z     vdW  Elec       q    Type
REMARK                         _______ _______ _______ _____ _____    ______ ____
ROOT
ATOM      1  O   UNL     1      -6.953  -8.100   4.964  0.00  0.00    -0.273 OA
ATOM      2  O   UNL     1     -12.569  -7.253   4.705  0.00  0.00    -0.274 OA
ATOM      3  O   UNL     1      -6.760  -9.891   7.379  0.00  0.00    -0.275 OA
ATOM      6  N   UNL     1      -7.735  -7.806   7.620  0.00  0.00    -0.288 N 
ATOM      7  N   UNL     1      -9.140  -8.215   4.206  0.00  0.00    -0.287 N 
ATOM      8  N   UNL     1     -10.897  -6.741   6.142  0.00  0.00    -0.309 N 
ATOM     11  C   UNL     1      -8.747  -7.972   6.579  0.00  0.00    +0.182 C 
ATOM     12  C   UNL     1      -9.516  -6.645   6.574  0.00  0.00    +0.104 C 
ATOM     13  C   UNL     1     -10.549  -8.544   4.436  0.00  0.00    +0.164 C 
ATOM     14  C   UNL     1      -9.360  -6.151   8.008  0.00  0.00    +0.043 C 
ATOM     15  C   UNL     1      -7.926  -6.545   8.333  0.00  0.00    +0.110 C 
ATOM     16  C   UNL     1     -11.049  -8.976   3.049  0.00  0.00    +0.055 C 
ATOM     17  C   UNL     1     -10.163  -8.180   2.091  0.00  0.00    +0.093 C 
ATOM     18  C   UNL     1      -8.161  -8.123   5.186  0.00  0.00    +0.239 C 
ATOM     19  C   UNL     1      -8.811  -8.218   2.790  0.00  0.00    +0.131 C 
ATOM     20  C   UNL     1     -11.393  -7.419   5.049  0.00  0.00    +0.234 C 
ATOM     22  C   UNL     1      -6.896  -8.839   8.007  0.00  0.00    +0.219 C 
ATOM     36  H   UNL     1     -11.531  -6.060   6.550  0.00  0.00    +0.149 HD
ENDROOT
BRANCH  22  21
ATOM      5  O   UNL     1      -4.513 -11.266  13.137  0.00  0.00    -0.276 OA
ATOM     10  N   UNL     1      -4.539  -9.678  11.442  0.00  0.00    -0.302 N 
ATOM     21  C   UNL     1      -6.120  -8.610   9.268  0.00  0.00    +0.078 C 
ATOM     23  C   UNL     1      -4.660  -9.022   9.068  0.00  0.00    +0.032 C 
ATOM     24  C   UNL     1      -6.760  -9.406  10.409  0.00  0.00    +0.032 C 
ATOM     25  C   UNL     1      -3.874  -8.920  10.374  0.00  0.00    +0.108 C 
ATOM     26  C   UNL     1      -5.931  -9.296  11.687  0.00  0.00    +0.108 C 
ATOM     28  C   UNL     1      -3.941 -10.666  12.223  0.00  0.00    +0.212 C 
ATOM     30  C   UNL     1      -2.506 -11.003  11.906  0.00  0.00    +0.109 C 
ENDBRANCH  22  21
BRANCH  17   9
ATOM      4  O   UNL     1     -10.887  -6.841  -0.336  0.00  0.00    -0.270 OA
ATOM      9  N   UNL     1     -10.126  -8.732   0.769  0.00  0.00    -0.307 N 
ATOM     27  C   UNL     1     -10.496  -8.005  -0.353  0.00  0.00    +0.244 C 
ATOM     37  H   UNL     1      -9.924  -9.724   0.692  0.00  0.00    +0.149 HD
BRANCH  27  29
ATOM     29  C   UNL     1     -10.426  -8.729  -1.648  0.00  0.00    +0.037 A 
ATOM     31  C   UNL     1     -11.573  -9.311  -2.148  0.00  0.00    +0.013 A 
ATOM     32  C   UNL     1      -9.218  -8.797  -2.310  0.00  0.00    +0.013 A 
ATOM     33  C   UNL     1     -11.509  -9.991  -3.364  0.00  0.00    +0.001 A 
ATOM     34  C   UNL     1      -9.154  -9.477  -3.526  0.00  0.00    +0.001 A 
ATOM     35  C   UNL     1     -10.300 -10.074  -4.053  0.00  0.00    +0.000 A 
ENDBRANCH  27  29
ENDBRANCH  17   9
TORSDOF 3
ENDMDL
