REMARK  Name = 11911838
REMARK  8 active torsions:
REMARK  status: ('A' for Active; 'I' for Inactive)
REMARK    1  A    between atoms: N_7  and  C_14
REMARK    2  A    between atoms: N_8  and  C_15
REMARK    3  A    between atoms: N_11  and  C_35
REMARK    4  A    between atoms: N_11  and  C_36
REMARK    5  A    between atoms: N_11  and  C_37
REMARK    6  A    between atoms: C_18  and  C_20
REMARK    7  A    between atoms: C_21  and  C_26
REMARK    8  A    between atoms: C_29  and  C_32
REMARK                            x       y       z     vdW  Elec       q    Type
REMARK                         _______ _______ _______ _____ _____    ______ ____
ROOT
ATOM      4  O   UNL     1       0.239   1.659   1.885  0.00  0.00    -0.370 OA
ATOM      5  O   UNL     1      -0.378   4.474   0.689  0.00  0.00    -0.370 OA
ATOM     12  C   UNL     1      -0.824   3.147   0.364  0.00  0.00    +0.171 C 
ATOM     13  C   UNL     1       0.353   2.213   0.564  0.00  0.00    +0.171 C 
ATOM     14  C   UNL     1      -1.845   2.673   1.374  0.00  0.00    +0.130 C 
ATOM     15  C   UNL     1       1.560   3.117   0.478  0.00  0.00    +0.130 C 
ATOM     16  C   UNL     1      -0.969   2.138   2.494  0.00  0.00    +0.185 C 
ATOM     17  C   UNL     1       1.024   4.439   0.995  0.00  0.00    +0.185 C 
ENDROOT
BRANCH  15   8
ATOM      8  N   UNL     1       1.980   3.252  -0.900  0.00  0.00    -0.306 N 
ATOM      9  N   UNL     1       3.271   1.294  -0.814  0.00  0.00    -0.214 NA
ATOM     10  N   UNL     1       3.136   2.600  -2.835  0.00  0.00    -0.223 NA
ATOM     19  C   UNL     1       2.821   2.355  -1.535  0.00  0.00    +0.216 A 
ATOM     21  C   UNL     1       4.088   0.440  -1.464  0.00  0.00    +0.076 A 
ATOM     24  C   UNL     1       3.957   1.705  -3.423  0.00  0.00    +0.116 A 
ATOM     25  C   UNL     1       4.469   0.596  -2.781  0.00  0.00    +0.048 A 
ATOM     39  H   UNL     1       1.609   4.010  -1.462  0.00  0.00    +0.149 HD
BRANCH  21  26
ATOM     26  C   UNL     1       4.553  -0.679  -0.681  0.00  0.00    +0.001 A 
ATOM     30  C   UNL     1       5.799  -1.252  -0.947  0.00  0.00    +0.012 A 
ATOM     31  C   UNL     1       3.758  -1.195   0.345  0.00  0.00    +0.012 A 
ATOM     33  C   UNL     1       6.248  -2.334  -0.191  0.00  0.00    +0.024 A 
ATOM     34  C   UNL     1       4.207  -2.277   1.102  0.00  0.00    +0.024 A 
ATOM     35  C   UNL     1       5.452  -2.847   0.834  0.00  0.00    +0.029 A 
BRANCH  35  11
ATOM     11  N   UNL     1       5.906  -3.942   1.599  0.00  0.00    -0.336 N 
ATOM     36  C   UNL     1       5.506  -4.085   2.985  0.00  0.00    +0.129 C 
ATOM     37  C   UNL     1       6.789  -4.930   1.014  0.00  0.00    +0.129 C 
ENDBRANCH  35  11
ENDBRANCH  21  26
ENDBRANCH  15   8
BRANCH  14   7
ATOM      6  O   UNL     1      -4.511   2.001   2.202  0.00  0.00    -0.270 OA
ATOM      7  N   UNL     1      -2.682   1.635   0.823  0.00  0.00    -0.304 N 
ATOM     18  C   UNL     1      -3.964   1.384   1.292  0.00  0.00    +0.244 C 
ATOM     38  H   UNL     1      -2.253   1.011   0.148  0.00  0.00    +0.149 HD
BRANCH  18  20
ATOM     20  C   UNL     1      -4.687   0.264   0.637  0.00  0.00    +0.037 A 
ATOM     22  C   UNL     1      -4.364  -0.068  -0.662  0.00  0.00    +0.013 A 
ATOM     23  C   UNL     1      -5.659  -0.408   1.349  0.00  0.00    +0.013 A 
ATOM     27  C   UNL     1      -5.045  -1.119  -1.278  0.00  0.00    +0.013 A 
ATOM     28  C   UNL     1      -6.340  -1.459   0.733  0.00  0.00    +0.013 A 
ATOM     29  C   UNL     1      -6.032  -1.814  -0.580  0.00  0.00    +0.055 A 
BRANCH  29  32
ATOM      1  F   UNL     1      -7.436  -2.567  -2.364  0.00  0.00    -0.166 F 
ATOM      2  F   UNL     1      -7.696  -3.527  -0.437  0.00  0.00    -0.166 F 
ATOM      3  F   UNL     1      -5.925  -3.946  -1.627  0.00  0.00    -0.166 F 
ATOM     32  C   UNL     1      -6.759  -2.938  -1.238  0.00  0.00    +0.417 C 
ENDBRANCH  29  32
ENDBRANCH  18  20
ENDBRANCH  14   7
TORSDOF 6
