MODEL 1
REMARK VINA RESULT:      -6.5      0.000      0.000
REMARK  Name = 56775298
REMARK  5 active torsions:
REMARK  status: ('A' for Active; 'I' for Inactive)
REMARK    1  A    between atoms: O_4  and  C_23
REMARK    2  A    between atoms: O_4  and  C_24
REMARK    3  A    between atoms: N_6  and  C_17
REMARK    4  A    between atoms: C_8  and  C_14
REMARK    5  A    between atoms: C_17  and  C_18
REMARK                            x       y       z     vdW  Elec       q    Type
REMARK                         _______ _______ _______ _____ _____    ______ ____
ROOT
ATOM      1  O   UNL     1      13.162  10.564  17.766  0.00  0.00    -0.364 OA
ATOM      2  O   UNL     1      12.190  13.261  21.586  0.00  0.00    -0.275 OA
ATOM      3  O   UNL     1      13.205   7.071  17.089  0.00  0.00    -0.273 OA
ATOM      5  N   UNL     1      12.890  11.254  20.670  0.00  0.00    -0.297 N 
ATOM      6  N   UNL     1      13.933   8.192  18.994  0.00  0.00    -0.288 N 
ATOM      7  C   UNL     1      14.083   9.460  19.696  0.00  0.00    +0.124 C 
ATOM      9  C   UNL     1      14.165  10.674  18.773  0.00  0.00    +0.158 C 
ATOM     10  C   UNL     1      12.883   9.796  20.587  0.00  0.00    +0.133 C 
ATOM     13  C   UNL     1      13.804  11.833  19.692  0.00  0.00    +0.141 C 
ATOM     14  C   UNL     1      12.156  12.034  21.548  0.00  0.00    +0.219 C 
ATOM     15  C   UNL     1      13.475   8.118  17.681  0.00  0.00    +0.242 C 
ATOM     16  C   UNL     1      13.401   9.444  16.944  0.00  0.00    +0.256 C 
ENDROOT
BRANCH  14   8
ATOM      8  C   UNL     1      11.292  11.308  22.527  0.00  0.00    +0.075 C 
ATOM     11  C   UNL     1      10.664  12.073  23.655  0.00  0.00    +0.013 C 
ATOM     12  C   UNL     1      11.784  11.114  23.932  0.00  0.00    +0.013 C 
ENDBRANCH  14   8
BRANCH   6  17
ATOM     17  C   UNL     1      14.125   6.978  19.776  0.00  0.00    +0.143 C 
BRANCH  17  18
ATOM     18  C   UNL     1      15.579   6.654  19.959  0.00  0.00    -0.030 A 
ATOM     19  C   UNL     1      16.195   6.880  21.191  0.00  0.00    +0.009 A 
ATOM     20  C   UNL     1      16.315   6.128  18.896  0.00  0.00    +0.009 A 
ATOM     21  C   UNL     1      17.547   6.578  21.359  0.00  0.00    +0.046 A 
ATOM     22  C   UNL     1      17.667   5.829  19.066  0.00  0.00    +0.046 A 
ATOM     23  C   UNL     1      18.283   6.053  20.298  0.00  0.00    +0.120 A 
BRANCH  23   4
ATOM      4  O   UNL     1      19.601   5.759  20.463  0.00  0.00    -0.495 OA
ATOM     24  C   UNL     1      20.293   6.442  21.508  0.00  0.00    +0.277 C 
ENDBRANCH  23   4
ENDBRANCH  17  18
ENDBRANCH   6  17
TORSDOF 4
ENDMDL
MODEL 2
REMARK VINA RESULT:      -6.3      3.543      5.258
REMARK  Name = 56775298
REMARK  5 active torsions:
REMARK  status: ('A' for Active; 'I' for Inactive)
REMARK    1  A    between atoms: O_4  and  C_23
REMARK    2  A    between atoms: O_4  and  C_24
REMARK    3  A    between atoms: N_6  and  C_17
REMARK    4  A    between atoms: C_8  and  C_14
REMARK    5  A    between atoms: C_17  and  C_18
REMARK                            x       y       z     vdW  Elec       q    Type
REMARK                         _______ _______ _______ _____ _____    ______ ____
ROOT
ATOM      1  O   UNL     1      10.563   8.604  22.713  0.00  0.00    -0.364 OA
ATOM      2  O   UNL     1      13.101  12.443  23.988  0.00  0.00    -0.275 OA
ATOM      3  O   UNL     1      11.275   5.557  21.019  0.00  0.00    -0.273 OA
ATOM      5  N   UNL     1      12.769  10.628  22.591  0.00  0.00    -0.297 N 
ATOM      6  N   UNL     1      12.051   7.700  20.547  0.00  0.00    -0.288 N 
ATOM      7  C   UNL     1      12.080   9.110  20.915  0.00  0.00    +0.124 C 
ATOM      9  C   UNL     1      10.857   9.569  21.706  0.00  0.00    +0.158 C 
ATOM     10  C   UNL     1      13.239   9.458  21.855  0.00  0.00    +0.133 C 
ATOM     13  C   UNL     1      11.341  10.843  22.384  0.00  0.00    +0.141 C 
ATOM     14  C   UNL     1      13.535  11.466  23.384  0.00  0.00    +0.219 C 
ATOM     15  C   UNL     1      11.241   6.775  21.201  0.00  0.00    +0.242 C 
ATOM     16  C   UNL     1      10.200   7.371  22.133  0.00  0.00    +0.256 C 
ENDROOT
BRANCH  14   8
ATOM      8  C   UNL     1      14.993  11.155  23.473  0.00  0.00    +0.075 C 
ATOM     11  C   UNL     1      15.927  12.184  24.040  0.00  0.00    +0.013 C 
ATOM     12  C   UNL     1      15.951  11.878  22.572  0.00  0.00    +0.013 C 
ENDBRANCH  14   8
BRANCH   6  17
ATOM     17  C   UNL     1      13.031   7.254  19.565  0.00  0.00    +0.143 C 
BRANCH  17  18
ATOM     18  C   UNL     1      13.007   8.099  18.325  0.00  0.00    -0.030 A 
ATOM     19  C   UNL     1      14.169   8.742  17.896  0.00  0.00    +0.009 A 
ATOM     20  C   UNL     1      11.822   8.243  17.602  0.00  0.00    +0.009 A 
ATOM     21  C   UNL     1      14.146   9.528  16.744  0.00  0.00    +0.046 A 
ATOM     22  C   UNL     1      11.800   9.031  16.451  0.00  0.00    +0.046 A 
ATOM     23  C   UNL     1      12.962   9.672  16.021  0.00  0.00    +0.120 A 
BRANCH  23   4
ATOM      4  O   UNL     1      12.939  10.438  14.898  0.00  0.00    -0.495 OA
ATOM     24  C   UNL     1      13.927  11.463  14.790  0.00  0.00    +0.277 C 
ENDBRANCH  23   4
ENDBRANCH  17  18
ENDBRANCH   6  17
TORSDOF 4
ENDMDL
MODEL 3
REMARK VINA RESULT:      -5.9      2.685      4.144
REMARK  Name = 56775298
REMARK  5 active torsions:
REMARK  status: ('A' for Active; 'I' for Inactive)
REMARK    1  A    between atoms: O_4  and  C_23
REMARK    2  A    between atoms: O_4  and  C_24
REMARK    3  A    between atoms: N_6  and  C_17
REMARK    4  A    between atoms: C_8  and  C_14
REMARK    5  A    between atoms: C_17  and  C_18
REMARK                            x       y       z     vdW  Elec       q    Type
REMARK                         _______ _______ _______ _____ _____    ______ ____
ROOT
ATOM      1  O   UNL     1      12.291   9.420  16.296  0.00  0.00    -0.364 OA
ATOM      2  O   UNL     1      15.661  12.506  14.911  0.00  0.00    -0.275 OA
ATOM      3  O   UNL     1      11.077   8.247  19.428  0.00  0.00    -0.273 OA
ATOM      5  N   UNL     1      14.816  11.023  16.474  0.00  0.00    -0.297 N 
ATOM      6  N   UNL     1      13.274   8.667  18.785  0.00  0.00    -0.288 N 
ATOM      7  C   UNL     1      14.187   9.136  17.750  0.00  0.00    +0.124 C 
ATOM      9  C   UNL     1      13.646   8.981  16.330  0.00  0.00    +0.158 C 
ATOM     10  C   UNL     1      14.473  10.638  17.839  0.00  0.00    +0.133 C 
ATOM     13  C   UNL     1      14.493   9.961  15.528  0.00  0.00    +0.141 C 
ATOM     14  C   UNL     1      15.386  12.219  16.073  0.00  0.00    +0.219 C 
ATOM     15  C   UNL     1      11.909   8.511  18.558  0.00  0.00    +0.242 C 
ATOM     16  C   UNL     1      11.479   8.598  17.104  0.00  0.00    +0.256 C 
ENDROOT
BRANCH  14   8
ATOM      8  C   UNL     1      15.707  13.203  17.150  0.00  0.00    +0.075 C 
ATOM     11  C   UNL     1      16.625  14.350  16.844  0.00  0.00    +0.013 C 
ATOM     12  C   UNL     1      17.093  13.230  17.727  0.00  0.00    +0.013 C 
ENDBRANCH  14   8
BRANCH   6  17
ATOM     17  C   UNL     1      13.817   8.522  20.129  0.00  0.00    +0.143 C 
BRANCH  17  18
ATOM     18  C   UNL     1      15.165   7.862  20.120  0.00  0.00    -0.030 A 
ATOM     19  C   UNL     1      16.228   8.435  20.818  0.00  0.00    +0.009 A 
ATOM     20  C   UNL     1      15.355   6.675  19.412  0.00  0.00    +0.009 A 
ATOM     21  C   UNL     1      17.481   7.821  20.809  0.00  0.00    +0.046 A 
ATOM     22  C   UNL     1      16.608   6.061  19.402  0.00  0.00    +0.046 A 
ATOM     23  C   UNL     1      17.670   6.634  20.101  0.00  0.00    +0.120 A 
BRANCH  23   4
ATOM      4  O   UNL     1      18.892   6.035  20.093  0.00  0.00    -0.495 OA
ATOM     24  C   UNL     1      19.943   6.693  20.798  0.00  0.00    +0.277 C 
ENDBRANCH  23   4
ENDBRANCH  17  18
ENDBRANCH   6  17
TORSDOF 4
ENDMDL
MODEL 4
REMARK VINA RESULT:      -5.8      1.961      2.506
REMARK  Name = 56775298
REMARK  5 active torsions:
REMARK  status: ('A' for Active; 'I' for Inactive)
REMARK    1  A    between atoms: O_4  and  C_23
REMARK    2  A    between atoms: O_4  and  C_24
REMARK    3  A    between atoms: N_6  and  C_17
REMARK    4  A    between atoms: C_8  and  C_14
REMARK    5  A    between atoms: C_17  and  C_18
REMARK                            x       y       z     vdW  Elec       q    Type
REMARK                         _______ _______ _______ _____ _____    ______ ____
ROOT
ATOM      1  O   UNL     1      12.448   9.191  17.180  0.00  0.00    -0.364 OA
ATOM      2  O   UNL     1      13.568  13.805  17.690  0.00  0.00    -0.275 OA
ATOM      3  O   UNL     1      12.146   6.410  19.379  0.00  0.00    -0.273 OA
ATOM      5  N   UNL     1      13.703  11.613  18.420  0.00  0.00    -0.297 N 
ATOM      6  N   UNL     1      13.746   8.100  19.383  0.00  0.00    -0.288 N 
ATOM      7  C   UNL     1      14.232   9.339  18.788  0.00  0.00    +0.124 C 
ATOM      9  C   UNL     1      13.825   9.526  17.328  0.00  0.00    +0.158 C 
ATOM     10  C   UNL     1      13.659  10.590  19.461  0.00  0.00    +0.133 C 
ATOM     13  C   UNL     1      13.984  11.026  17.115  0.00  0.00    +0.141 C 
ATOM     14  C   UNL     1      13.523  12.975  18.594  0.00  0.00    +0.219 C 
ATOM     15  C   UNL     1      12.679   7.384  18.845  0.00  0.00    +0.242 C 
ATOM     16  C   UNL     1      12.233   7.826  17.462  0.00  0.00    +0.256 C 
ENDROOT
BRANCH  14   8
ATOM      8  C   UNL     1      13.286  13.446  19.991  0.00  0.00    +0.075 C 
ATOM     11  C   UNL     1      11.881  13.720  20.442  0.00  0.00    +0.013 C 
ATOM     12  C   UNL     1      12.832  14.859  20.219  0.00  0.00    +0.013 C 
ENDBRANCH  14   8
BRANCH   6  17
ATOM     17  C   UNL     1      14.316   7.716  20.668  0.00  0.00    +0.143 C 
BRANCH  17  18
ATOM     18  C   UNL     1      15.731   7.235  20.532  0.00  0.00    -0.030 A 
ATOM     19  C   UNL     1      16.077   6.370  19.493  0.00  0.00    +0.009 A 
ATOM     20  C   UNL     1      16.699   7.653  21.445  0.00  0.00    +0.009 A 
ATOM     21  C   UNL     1      17.393   5.923  19.368  0.00  0.00    +0.046 A 
ATOM     22  C   UNL     1      18.015   7.205  21.320  0.00  0.00    +0.046 A 
ATOM     23  C   UNL     1      18.361   6.340  20.281  0.00  0.00    +0.120 A 
BRANCH  23   4
ATOM      4  O   UNL     1      19.644   5.905  20.159  0.00  0.00    -0.495 OA
ATOM     24  C   UNL     1      20.674   6.779  20.618  0.00  0.00    +0.277 C 
ENDBRANCH  23   4
ENDBRANCH  17  18
ENDBRANCH   6  17
TORSDOF 4
ENDMDL
MODEL 5
REMARK VINA RESULT:      -5.7     30.659     31.734
REMARK  Name = 56775298
REMARK  5 active torsions:
REMARK  status: ('A' for Active; 'I' for Inactive)
REMARK    1  A    between atoms: O_4  and  C_23
REMARK    2  A    between atoms: O_4  and  C_24
REMARK    3  A    between atoms: N_6  and  C_17
REMARK    4  A    between atoms: C_8  and  C_14
REMARK    5  A    between atoms: C_17  and  C_18
REMARK                            x       y       z     vdW  Elec       q    Type
REMARK                         _______ _______ _______ _____ _____    ______ ____
ROOT
ATOM      1  O   UNL     1     -15.368   7.912  32.738  0.00  0.00    -0.364 OA
ATOM      2  O   UNL     1     -11.922  10.032  35.274  0.00  0.00    -0.275 OA
ATOM      3  O   UNL     1     -17.034   4.771  32.876  0.00  0.00    -0.273 OA
ATOM      5  N   UNL     1     -12.960   8.110  34.510  0.00  0.00    -0.297 N 
ATOM      6  N   UNL     1     -14.777   5.236  33.203  0.00  0.00    -0.288 N 
ATOM      7  C   UNL     1     -13.724   6.241  33.281  0.00  0.00    +0.124 C 
ATOM      9  C   UNL     1     -14.022   7.513  32.491  0.00  0.00    +0.158 C 
ATOM     10  C   UNL     1     -13.507   6.770  34.702  0.00  0.00    +0.133 C 
ATOM     13  C   UNL     1     -13.090   8.539  33.122  0.00  0.00    +0.141 C 
ATOM     14  C   UNL     1     -12.372   8.908  35.477  0.00  0.00    +0.219 C 
ATOM     15  C   UNL     1     -16.081   5.551  32.831  0.00  0.00    +0.242 C 
ATOM     16  C   UNL     1     -16.272   6.944  32.255  0.00  0.00    +0.256 C 
ENDROOT
BRANCH  14   8
ATOM      8  C   UNL     1     -12.263   8.327  36.849  0.00  0.00    +0.075 C 
ATOM     11  C   UNL     1     -11.426   9.031  37.876  0.00  0.00    +0.013 C 
ATOM     12  C   UNL     1     -10.957   7.732  37.289  0.00  0.00    +0.013 C 
ENDBRANCH  14   8
BRANCH   6  17
ATOM     17  C   UNL     1     -14.454   3.902  33.691  0.00  0.00    +0.143 C 
BRANCH  17  18
ATOM     18  C   UNL     1     -14.373   2.901  32.576  0.00  0.00    -0.030 A 
ATOM     19  C   UNL     1     -14.943   1.637  32.730  0.00  0.00    +0.009 A 
ATOM     20  C   UNL     1     -13.726   3.235  31.385  0.00  0.00    +0.009 A 
ATOM     21  C   UNL     1     -14.867   0.707  31.692  0.00  0.00    +0.046 A 
ATOM     22  C   UNL     1     -13.650   2.304  30.349  0.00  0.00    +0.046 A 
ATOM     23  C   UNL     1     -14.221   1.040  30.503  0.00  0.00    +0.120 A 
BRANCH  23   4
ATOM      4  O   UNL     1     -14.147   0.134  29.491  0.00  0.00    -0.495 OA
ATOM     24  C   UNL     1     -13.191  -0.917  29.629  0.00  0.00    +0.277 C 
ENDBRANCH  23   4
ENDBRANCH  17  18
ENDBRANCH   6  17
TORSDOF 4
ENDMDL
MODEL 6
REMARK VINA RESULT:      -5.7     27.470     29.127
REMARK  Name = 56775298
REMARK  5 active torsions:
REMARK  status: ('A' for Active; 'I' for Inactive)
REMARK    1  A    between atoms: O_4  and  C_23
REMARK    2  A    between atoms: O_4  and  C_24
REMARK    3  A    between atoms: N_6  and  C_17
REMARK    4  A    between atoms: C_8  and  C_14
REMARK    5  A    between atoms: C_17  and  C_18
REMARK                            x       y       z     vdW  Elec       q    Type
REMARK                         _______ _______ _______ _____ _____    ______ ____
ROOT
ATOM      1  O   UNL     1      -7.913 -11.875  18.839  0.00  0.00    -0.364 OA
ATOM      2  O   UNL     1     -11.637  -9.434  17.115  0.00  0.00    -0.275 OA
ATOM      3  O   UNL     1      -4.416 -11.281  19.114  0.00  0.00    -0.273 OA
ATOM      5  N   UNL     1      -9.369  -9.895  17.125  0.00  0.00    -0.297 N 
ATOM      6  N   UNL     1      -5.842 -10.777  17.345  0.00  0.00    -0.288 N 
ATOM      7  C   UNL     1      -7.200 -10.783  16.817  0.00  0.00    +0.124 C 
ATOM      9  C   UNL     1      -8.097 -11.858  17.426  0.00  0.00    +0.158 C 
ATOM     10  C   UNL     1      -7.966  -9.492  17.124  0.00  0.00    +0.133 C 
ATOM     13  C   UNL     1      -9.501 -11.348  17.128  0.00  0.00    +0.141 C 
ATOM     14  C   UNL     1     -10.470  -9.055  17.114  0.00  0.00    +0.219 C 
ATOM     15  C   UNL     1      -5.513 -11.371  18.561  0.00  0.00    +0.242 C 
ATOM     16  C   UNL     1      -6.594 -12.251  19.166  0.00  0.00    +0.256 C 
ENDROOT
BRANCH  14   8
ATOM      8  C   UNL     1     -10.191  -7.588  17.068  0.00  0.00    +0.075 C 
ATOM     11  C   UNL     1     -11.296  -6.645  16.693  0.00  0.00    +0.013 C 
ATOM     12  C   UNL     1     -10.165  -6.890  15.739  0.00  0.00    +0.013 C 
ENDBRANCH  14   8
BRANCH   6  17
ATOM     17  C   UNL     1      -4.858  -9.978  16.628  0.00  0.00    +0.143 C 
BRANCH  17  18
ATOM     18  C   UNL     1      -3.893 -10.834  15.860  0.00  0.00    -0.030 A 
ATOM     19  C   UNL     1      -4.365 -11.889  15.078  0.00  0.00    +0.009 A 
ATOM     20  C   UNL     1      -2.524 -10.575  15.929  0.00  0.00    +0.009 A 
ATOM     21  C   UNL     1      -3.468 -12.684  14.365  0.00  0.00    +0.046 A 
ATOM     22  C   UNL     1      -1.627 -11.371  15.216  0.00  0.00    +0.046 A 
ATOM     23  C   UNL     1      -2.100 -12.425  14.434  0.00  0.00    +0.120 A 
BRANCH  23   4
ATOM      4  O   UNL     1      -1.225 -13.200  13.738  0.00  0.00    -0.495 OA
ATOM     24  C   UNL     1      -1.563 -14.577  13.576  0.00  0.00    +0.277 C 
ENDBRANCH  23   4
ENDBRANCH  17  18
ENDBRANCH   6  17
TORSDOF 4
ENDMDL
MODEL 7
REMARK VINA RESULT:      -5.5     27.504     29.093
REMARK  Name = 56775298
REMARK  5 active torsions:
REMARK  status: ('A' for Active; 'I' for Inactive)
REMARK    1  A    between atoms: O_4  and  C_23
REMARK    2  A    between atoms: O_4  and  C_24
REMARK    3  A    between atoms: N_6  and  C_17
REMARK    4  A    between atoms: C_8  and  C_14
REMARK    5  A    between atoms: C_17  and  C_18
REMARK                            x       y       z     vdW  Elec       q    Type
REMARK                         _______ _______ _______ _____ _____    ______ ____
ROOT
ATOM      1  O   UNL     1      -2.374 -12.939  14.440  0.00  0.00    -0.364 OA
ATOM      2  O   UNL     1      -5.119 -13.073  18.345  0.00  0.00    -0.275 OA
ATOM      3  O   UNL     1      -1.693 -10.526  11.916  0.00  0.00    -0.273 OA
ATOM      5  N   UNL     1      -4.664 -12.231  16.238  0.00  0.00    -0.297 N 
ATOM      6  N   UNL     1      -3.726 -11.040  12.926  0.00  0.00    -0.288 N 
ATOM      7  C   UNL     1      -4.444 -11.829  13.919  0.00  0.00    +0.124 C 
ATOM      9  C   UNL     1      -3.771 -13.156  14.261  0.00  0.00    +0.158 C 
ATOM     10  C   UNL     1      -4.533 -11.135  15.282  0.00  0.00    +0.133 C 
ATOM     13  C   UNL     1      -4.381 -13.516  15.609  0.00  0.00    +0.141 C 
ATOM     14  C   UNL     1      -5.019 -12.124  17.572  0.00  0.00    +0.219 C 
ATOM     15  C   UNL     1      -2.377 -11.246  12.645  0.00  0.00    +0.242 C 
ATOM     16  C   UNL     1      -1.777 -12.509  13.237  0.00  0.00    +0.256 C 
ENDROOT
BRANCH  14   8
ATOM      8  C   UNL     1      -5.324 -10.752  18.076  0.00  0.00    +0.075 C 
ATOM     11  C   UNL     1      -6.008 -10.595  19.402  0.00  0.00    +0.013 C 
ATOM     12  C   UNL     1      -6.754 -10.296  18.135  0.00  0.00    +0.013 C 
ENDBRANCH  14   8
BRANCH   6  17
ATOM     17  C   UNL     1      -4.433  -9.907  12.345  0.00  0.00    +0.143 C 
BRANCH  17  18
ATOM     18  C   UNL     1      -4.640 -10.072  10.868  0.00  0.00    -0.030 A 
ATOM     19  C   UNL     1      -4.219  -9.074   9.988  0.00  0.00    +0.009 A 
ATOM     20  C   UNL     1      -5.256 -11.223  10.375  0.00  0.00    +0.009 A 
ATOM     21  C   UNL     1      -4.412  -9.228   8.615  0.00  0.00    +0.046 A 
ATOM     22  C   UNL     1      -5.450 -11.376   9.002  0.00  0.00    +0.046 A 
ATOM     23  C   UNL     1      -5.027 -10.379   8.122  0.00  0.00    +0.120 A 
BRANCH  23   4
ATOM      4  O   UNL     1      -5.215 -10.529   6.783  0.00  0.00    -0.495 OA
ATOM     24  C   UNL     1      -6.259  -9.762   6.183  0.00  0.00    +0.277 C 
ENDBRANCH  23   4
ENDBRANCH  17  18
ENDBRANCH   6  17
TORSDOF 4
ENDMDL
MODEL 8
REMARK VINA RESULT:      -5.4     27.455     29.808
REMARK  Name = 56775298
REMARK  5 active torsions:
REMARK  status: ('A' for Active; 'I' for Inactive)
REMARK    1  A    between atoms: O_4  and  C_23
REMARK    2  A    between atoms: O_4  and  C_24
REMARK    3  A    between atoms: N_6  and  C_17
REMARK    4  A    between atoms: C_8  and  C_14
REMARK    5  A    between atoms: C_17  and  C_18
REMARK                            x       y       z     vdW  Elec       q    Type
REMARK                         _______ _______ _______ _____ _____    ______ ____
ROOT
ATOM      1  O   UNL     1      -4.640 -12.014  17.851  0.00  0.00    -0.364 OA
ATOM      2  O   UNL     1      -1.855 -10.195  14.424  0.00  0.00    -0.275 OA
ATOM      3  O   UNL     1      -7.888 -13.460  17.959  0.00  0.00    -0.273 OA
ATOM      5  N   UNL     1      -3.959 -10.704  15.243  0.00  0.00    -0.297 N 
ATOM      6  N   UNL     1      -7.154 -11.625  16.731  0.00  0.00    -0.288 N 
ATOM      7  C   UNL     1      -6.044 -10.758  16.354  0.00  0.00    +0.124 C 
ATOM      9  C   UNL     1      -4.927 -10.695  17.393  0.00  0.00    +0.158 C 
ATOM     10  C   UNL     1      -5.310 -11.237  15.099  0.00  0.00    +0.133 C 
ATOM     13  C   UNL     1      -3.735 -10.191  16.590  0.00  0.00    +0.141 C 
ATOM     14  C   UNL     1      -2.982 -10.653  14.263  0.00  0.00    +0.219 C 
ATOM     15  C   UNL     1      -7.027 -12.619  17.699  0.00  0.00    +0.242 C 
ATOM     16  C   UNL     1      -5.751 -12.564  18.521  0.00  0.00    +0.256 C 
ENDROOT
BRANCH  14   8
ATOM      8  C   UNL     1      -3.360 -11.174  12.915  0.00  0.00    +0.075 C 
ATOM     11  C   UNL     1      -2.468 -10.885  11.743  0.00  0.00    +0.013 C 
ATOM     12  C   UNL     1      -3.801 -10.206  11.855  0.00  0.00    +0.013 C 
ENDBRANCH  14   8
BRANCH   6  17
ATOM     17  C   UNL     1      -8.370 -11.524  15.935  0.00  0.00    +0.143 C 
BRANCH  17  18
ATOM     18  C   UNL     1      -9.072 -10.215  16.147  0.00  0.00    -0.030 A 
ATOM     19  C   UNL     1      -9.332  -9.764  17.442  0.00  0.00    +0.009 A 
ATOM     20  C   UNL     1      -9.465  -9.449  15.050  0.00  0.00    +0.009 A 
ATOM     21  C   UNL     1      -9.985  -8.547  17.638  0.00  0.00    +0.046 A 
ATOM     22  C   UNL     1     -10.119  -8.232  15.247  0.00  0.00    +0.046 A 
ATOM     23  C   UNL     1     -10.378  -7.781  16.541  0.00  0.00    +0.120 A 
BRANCH  23   4
ATOM      4  O   UNL     1     -11.014  -6.594  16.733  0.00  0.00    -0.495 OA
ATOM     24  C   UNL     1     -11.399  -5.867  15.567  0.00  0.00    +0.277 C 
ENDBRANCH  23   4
ENDBRANCH  17  18
ENDBRANCH   6  17
TORSDOF 4
ENDMDL
MODEL 9
REMARK VINA RESULT:      -5.4     27.235     29.037
REMARK  Name = 56775298
REMARK  5 active torsions:
REMARK  status: ('A' for Active; 'I' for Inactive)
REMARK    1  A    between atoms: O_4  and  C_23
REMARK    2  A    between atoms: O_4  and  C_24
REMARK    3  A    between atoms: N_6  and  C_17
REMARK    4  A    between atoms: C_8  and  C_14
REMARK    5  A    between atoms: C_17  and  C_18
REMARK                            x       y       z     vdW  Elec       q    Type
REMARK                         _______ _______ _______ _____ _____    ______ ____
ROOT
ATOM      1  O   UNL     1      -4.083 -14.820  15.129  0.00  0.00    -0.364 OA
ATOM      2  O   UNL     1      -7.102 -13.275  18.491  0.00  0.00    -0.275 OA
ATOM      3  O   UNL     1      -1.112 -13.558  13.632  0.00  0.00    -0.273 OA
ATOM      5  N   UNL     1      -5.541 -12.838  16.839  0.00  0.00    -0.297 N 
ATOM      6  N   UNL     1      -3.048 -12.407  14.218  0.00  0.00    -0.288 N 
ATOM      7  C   UNL     1      -4.375 -12.452  14.819  0.00  0.00    +0.124 C 
ATOM      9  C   UNL     1      -5.036 -13.827  14.758  0.00  0.00    +0.158 C 
ATOM     10  C   UNL     1      -4.362 -12.151  16.321  0.00  0.00    +0.133 C 
ATOM     13  C   UNL     1      -6.100 -13.748  15.845  0.00  0.00    +0.141 C 
ATOM     14  C   UNL     1      -6.106 -12.677  18.092  0.00  0.00    +0.219 C 
ATOM     15  C   UNL     1      -2.284 -13.553  14.011  0.00  0.00    +0.242 C 
ATOM     16  C   UNL     1      -3.024 -14.867  14.200  0.00  0.00    +0.256 C 
ENDROOT
BRANCH  14   8
ATOM      8  C   UNL     1      -5.458 -11.679  18.995  0.00  0.00    +0.075 C 
ATOM     11  C   UNL     1      -6.148 -11.290  20.270  0.00  0.00    +0.013 C 
ATOM     12  C   UNL     1      -6.067 -10.314  19.133  0.00  0.00    +0.013 C 
ENDBRANCH  14   8
BRANCH   6  17
ATOM     17  C   UNL     1      -2.472 -11.089  13.987  0.00  0.00    +0.143 C 
BRANCH  17  18
ATOM     18  C   UNL     1      -2.988 -10.466  12.723  0.00  0.00    -0.030 A 
ATOM     19  C   UNL     1      -2.099 -10.105  11.709  0.00  0.00    +0.009 A 
ATOM     20  C   UNL     1      -4.356 -10.246  12.562  0.00  0.00    +0.009 A 
ATOM     21  C   UNL     1      -2.579  -9.526  10.534  0.00  0.00    +0.046 A 
ATOM     22  C   UNL     1      -4.835  -9.665  11.387  0.00  0.00    +0.046 A 
ATOM     23  C   UNL     1      -3.946  -9.306  10.373  0.00  0.00    +0.120 A 
BRANCH  23   4
ATOM      4  O   UNL     1      -4.414  -8.741   9.227  0.00  0.00    -0.495 OA
ATOM     24  C   UNL     1      -5.792  -8.946   8.918  0.00  0.00    +0.277 C 
ENDBRANCH  23   4
ENDBRANCH  17  18
ENDBRANCH   6  17
TORSDOF 4
ENDMDL
MODEL 10
REMARK VINA RESULT:      -5.4     28.398     30.032
REMARK  Name = 56775298
REMARK  5 active torsions:
REMARK  status: ('A' for Active; 'I' for Inactive)
REMARK    1  A    between atoms: O_4  and  C_23
REMARK    2  A    between atoms: O_4  and  C_24
REMARK    3  A    between atoms: N_6  and  C_17
REMARK    4  A    between atoms: C_8  and  C_14
REMARK    5  A    between atoms: C_17  and  C_18
REMARK                            x       y       z     vdW  Elec       q    Type
REMARK                         _______ _______ _______ _____ _____    ______ ____
ROOT
ATOM      1  O   UNL     1     -10.580 -12.125  17.609  0.00  0.00    -0.364 OA
ATOM      2  O   UNL     1     -12.850  -8.870  14.953  0.00  0.00    -0.275 OA
ATOM      3  O   UNL     1      -7.991 -12.030  20.048  0.00  0.00    -0.273 OA
ATOM      5  N   UNL     1     -10.978  -9.548  16.133  0.00  0.00    -0.297 N 
ATOM      6  N   UNL     1      -8.166 -10.823  18.066  0.00  0.00    -0.288 N 
ATOM      7  C   UNL     1      -8.952 -10.510  16.879  0.00  0.00    +0.124 C 
ATOM      9  C   UNL     1      -9.907 -11.624  16.457  0.00  0.00    +0.158 C 
ATOM     10  C   UNL     1      -9.892  -9.319  17.082  0.00  0.00    +0.133 C 
ATOM     13  C   UNL     1     -10.921 -10.898  15.583  0.00  0.00    +0.141 C 
ATOM     14  C   UNL     1     -11.952  -8.638  15.757  0.00  0.00    +0.219 C 
ATOM     15  C   UNL     1      -8.543 -11.816  18.968  0.00  0.00    +0.242 C 
ATOM     16  C   UNL     1      -9.666 -12.725  18.499  0.00  0.00    +0.256 C 
ENDROOT
BRANCH  14   8
ATOM      8  C   UNL     1     -11.866  -7.276  16.365  0.00  0.00    +0.075 C 
ATOM     11  C   UNL     1     -12.589  -6.136  15.710  0.00  0.00    +0.013 C 
ATOM     12  C   UNL     1     -11.092  -6.205  15.653  0.00  0.00    +0.013 C 
ENDBRANCH  14   8
BRANCH   6  17
ATOM     17  C   UNL     1      -7.046  -9.942  18.368  0.00  0.00    +0.143 C 
BRANCH  17  18
ATOM     18  C   UNL     1      -5.804 -10.342  17.627  0.00  0.00    -0.030 A 
ATOM     19  C   UNL     1      -5.622  -9.943  16.302  0.00  0.00    +0.009 A 
ATOM     20  C   UNL     1      -4.830 -11.113  18.262  0.00  0.00    +0.009 A 
ATOM     21  C   UNL     1      -4.467 -10.315  15.614  0.00  0.00    +0.046 A 
ATOM     22  C   UNL     1      -3.676 -11.486  17.573  0.00  0.00    +0.046 A 
ATOM     23  C   UNL     1      -3.494 -11.086  16.249  0.00  0.00    +0.120 A 
BRANCH  23   4
ATOM      4  O   UNL     1      -2.368 -11.448  15.578  0.00  0.00    -0.495 OA
ATOM     24  C   UNL     1      -1.224 -10.607  15.727  0.00  0.00    +0.277 C 
ENDBRANCH  23   4
ENDBRANCH  17  18
ENDBRANCH   6  17
TORSDOF 4
ENDMDL
