MODEL 1
REMARK VINA RESULT:      -6.4      0.000      0.000
REMARK  Name = 51137316
REMARK  5 active torsions:
REMARK  status: ('A' for Active; 'I' for Inactive)
REMARK    1  A    between atoms: N_2  and  C_10
REMARK    2  A    between atoms: C_6  and  C_11
REMARK    3  A    between atoms: C_10  and  C_12
REMARK    4  A    between atoms: C_10  and  C_13
REMARK    5  A    between atoms: C_14  and  C_15
REMARK                            x       y       z     vdW  Elec       q    Type
REMARK                         _______ _______ _______ _____ _____    ______ ____
ROOT
ATOM      1  O   UNL     1      16.554   7.267  20.340  0.00  0.00    -0.420 OA
ATOM      3  N   UNL     1      15.587   6.313  18.562  0.00  0.00    -0.112 NA
ATOM      4  N   UNL     1      16.814   5.707  18.759  0.00  0.00    -0.107 NA
ATOM     11  C   UNL     1      15.477   7.216  19.508  0.00  0.00    +0.222 A 
ATOM     14  C   UNL     1      17.342   6.295  19.806  0.00  0.00    +0.248 A 
ENDROOT
BRANCH  14  15
ATOM      5  N   UNL     1      21.046   5.650  21.743  0.00  0.00    -0.263 NA
ATOM     15  C   UNL     1      18.599   6.076  20.462  0.00  0.00    +0.041 A 
ATOM     16  C   UNL     1      18.917   6.789  21.614  0.00  0.00    +0.033 A 
ATOM     17  C   UNL     1      19.502   5.152  19.952  0.00  0.00    +0.033 A 
ATOM     18  C   UNL     1      20.143   6.540  22.211  0.00  0.00    +0.111 A 
ATOM     19  C   UNL     1      20.701   4.977  20.623  0.00  0.00    +0.111 A 
ENDBRANCH  14  15
BRANCH  11   6
ATOM      2  N   UNL     1      12.117   8.291  20.498  0.00  0.00    -0.299 NA
ATOM      6  C   UNL     1      14.350   8.182  19.790  0.00  0.00    +0.092 C 
ATOM      7  C   UNL     1      13.393   7.683  20.881  0.00  0.00    +0.097 C 
ATOM      8  C   UNL     1      13.443   8.488  18.586  0.00  0.00    +0.029 C 
ATOM      9  C   UNL     1      12.039   8.120  19.047  0.00  0.00    +0.085 C 
BRANCH   2  10
ATOM     10  C   UNL     1      10.986   7.690  21.188  0.00  0.00    +0.050 C 
ATOM     12  C   UNL     1      11.277   6.216  21.454  0.00  0.00    +0.024 C 
ATOM     13  C   UNL     1      10.703   8.436  22.490  0.00  0.00    +0.024 C 
ENDBRANCH   2  10
ENDBRANCH  11   6
TORSDOF 3
ENDMDL
MODEL 2
REMARK VINA RESULT:      -6.3      2.186      3.754
REMARK  Name = 51137316
REMARK  5 active torsions:
REMARK  status: ('A' for Active; 'I' for Inactive)
REMARK    1  A    between atoms: N_2  and  C_10
REMARK    2  A    between atoms: C_6  and  C_11
REMARK    3  A    between atoms: C_10  and  C_12
REMARK    4  A    between atoms: C_10  and  C_13
REMARK    5  A    between atoms: C_14  and  C_15
REMARK                            x       y       z     vdW  Elec       q    Type
REMARK                         _______ _______ _______ _____ _____    ______ ____
ROOT
ATOM      1  O   UNL     1      13.609   7.992  20.255  0.00  0.00    -0.420 OA
ATOM      3  N   UNL     1      12.334   7.388  18.518  0.00  0.00    -0.112 NA
ATOM      4  N   UNL     1      13.603   6.877  18.316  0.00  0.00    -0.107 NA
ATOM     11  C   UNL     1      12.384   8.030  19.661  0.00  0.00    +0.222 A 
ATOM     14  C   UNL     1      14.312   7.254  19.354  0.00  0.00    +0.248 A 
ENDROOT
BRANCH  14  15
ATOM      5  N   UNL     1      18.370   6.544  20.311  0.00  0.00    -0.263 NA
ATOM     15  C   UNL     1      15.688   7.013  19.679  0.00  0.00    +0.041 A 
ATOM     16  C   UNL     1      16.428   6.093  18.943  0.00  0.00    +0.033 A 
ATOM     17  C   UNL     1      16.288   7.698  20.729  0.00  0.00    +0.033 A 
ATOM     18  C   UNL     1      17.754   5.897  19.296  0.00  0.00    +0.111 A 
ATOM     19  C   UNL     1      17.619   7.429  21.003  0.00  0.00    +0.111 A 
ENDBRANCH  14  15
BRANCH  11   6
ATOM      2  N   UNL     1      10.934  10.369  22.081  0.00  0.00    -0.299 NA
ATOM      6  C   UNL     1      11.297   8.788  20.387  0.00  0.00    +0.092 C 
ATOM      7  C   UNL     1      11.757  10.164  20.887  0.00  0.00    +0.097 C 
ATOM      8  C   UNL     1      10.743   8.084  21.638  0.00  0.00    +0.029 C 
ATOM      9  C   UNL     1      10.945   9.080  22.772  0.00  0.00    +0.085 C 
BRANCH   2  10
ATOM     10  C   UNL     1      11.429  11.451  22.918  0.00  0.00    +0.050 C 
ATOM     12  C   UNL     1      10.979  12.788  22.337  0.00  0.00    +0.024 C 
ATOM     13  C   UNL     1      10.933  11.282  24.351  0.00  0.00    +0.024 C 
ENDBRANCH   2  10
ENDBRANCH  11   6
TORSDOF 3
ENDMDL
MODEL 3
REMARK VINA RESULT:      -6.0     26.281     27.758
REMARK  Name = 51137316
REMARK  5 active torsions:
REMARK  status: ('A' for Active; 'I' for Inactive)
REMARK    1  A    between atoms: N_2  and  C_10
REMARK    2  A    between atoms: C_6  and  C_11
REMARK    3  A    between atoms: C_10  and  C_12
REMARK    4  A    between atoms: C_10  and  C_13
REMARK    5  A    between atoms: C_14  and  C_15
REMARK                            x       y       z     vdW  Elec       q    Type
REMARK                         _______ _______ _______ _____ _____    ______ ____
ROOT
ATOM      1  O   UNL     1      -3.550 -10.958  14.704  0.00  0.00    -0.420 OA
ATOM      3  N   UNL     1      -1.366 -10.966  15.193  0.00  0.00    -0.112 NA
ATOM      4  N   UNL     1      -2.066 -10.734  16.363  0.00  0.00    -0.107 NA
ATOM     11  C   UNL     1      -2.272 -11.090  14.252  0.00  0.00    +0.222 A 
ATOM     14  C   UNL     1      -3.335 -10.738  16.030  0.00  0.00    +0.248 A 
ENDROOT
BRANCH  14  15
ATOM      5  N   UNL     1      -6.799 -10.183  18.393  0.00  0.00    -0.263 NA
ATOM     15  C   UNL     1      -4.510 -10.550  16.832  0.00  0.00    +0.041 A 
ATOM     16  C   UNL     1      -5.591  -9.834  16.328  0.00  0.00    +0.033 A 
ATOM     17  C   UNL     1      -4.572 -11.082  18.114  0.00  0.00    +0.033 A 
ATOM     18  C   UNL     1      -6.702  -9.681  17.142  0.00  0.00    +0.111 A 
ATOM     19  C   UNL     1      -5.729 -10.873  18.848  0.00  0.00    +0.111 A 
ENDBRANCH  14  15
BRANCH  11   6
ATOM      2  N   UNL     1      -3.167 -11.142  10.699  0.00  0.00    -0.299 NA
ATOM      6  C   UNL     1      -2.095 -11.352  12.774  0.00  0.00    +0.092 C 
ATOM      7  C   UNL     1      -2.858 -10.353  11.893  0.00  0.00    +0.097 C 
ATOM      8  C   UNL     1      -2.575 -12.735  12.300  0.00  0.00    +0.029 C 
ATOM      9  C   UNL     1      -3.595 -12.445  11.208  0.00  0.00    +0.085 C 
BRANCH   2  10
ATOM     10  C   UNL     1      -4.179 -10.513   9.864  0.00  0.00    +0.050 C 
ATOM     12  C   UNL     1      -3.749  -9.087   9.532  0.00  0.00    +0.024 C 
ATOM     13  C   UNL     1      -4.398 -11.328   8.593  0.00  0.00    +0.024 C 
ENDBRANCH   2  10
ENDBRANCH  11   6
TORSDOF 3
ENDMDL
MODEL 4
REMARK VINA RESULT:      -6.0      2.739      7.477
REMARK  Name = 51137316
REMARK  5 active torsions:
REMARK  status: ('A' for Active; 'I' for Inactive)
REMARK    1  A    between atoms: N_2  and  C_10
REMARK    2  A    between atoms: C_6  and  C_11
REMARK    3  A    between atoms: C_10  and  C_12
REMARK    4  A    between atoms: C_10  and  C_13
REMARK    5  A    between atoms: C_14  and  C_15
REMARK                            x       y       z     vdW  Elec       q    Type
REMARK                         _______ _______ _______ _____ _____    ______ ____
ROOT
ATOM      1  O   UNL     1      12.420   8.848  21.546  0.00  0.00    -0.420 OA
ATOM      3  N   UNL     1      11.112   7.046  21.763  0.00  0.00    -0.112 NA
ATOM      4  N   UNL     1      10.507   8.096  22.428  0.00  0.00    -0.107 NA
ATOM     11  C   UNL     1      12.224   7.531  21.264  0.00  0.00    +0.222 A 
ATOM     14  C   UNL     1      11.305   9.127  22.274  0.00  0.00    +0.248 A 
ENDROOT
BRANCH  14  15
ATOM      5  N   UNL     1      10.953  13.104  23.667  0.00  0.00    -0.263 NA
ATOM     15  C   UNL     1      11.186  10.476  22.747  0.00  0.00    +0.041 A 
ATOM     16  C   UNL     1      11.264  11.538  21.853  0.00  0.00    +0.033 A 
ATOM     17  C   UNL     1      10.991  10.726  24.100  0.00  0.00    +0.033 A 
ATOM     18  C   UNL     1      11.142  12.822  22.359  0.00  0.00    +0.111 A 
ATOM     19  C   UNL     1      10.882  12.047  24.506  0.00  0.00    +0.111 A 
ENDBRANCH  14  15
BRANCH  11   6
ATOM      2  N   UNL     1      15.611   6.684  20.151  0.00  0.00    -0.299 NA
ATOM      6  C   UNL     1      13.290   6.843  20.441  0.00  0.00    +0.092 C 
ATOM      7  C   UNL     1      14.602   6.640  21.211  0.00  0.00    +0.097 C 
ATOM      8  C   UNL     1      13.701   7.590  19.160  0.00  0.00    +0.029 C 
ATOM      9  C   UNL     1      15.205   7.793  19.289  0.00  0.00    +0.085 C 
BRANCH   2  10
ATOM     10  C   UNL     1      16.959   6.854  20.674  0.00  0.00    +0.050 C 
ATOM     12  C   UNL     1      17.956   6.186  19.732  0.00  0.00    +0.024 C 
ATOM     13  C   UNL     1      17.277   8.336  20.848  0.00  0.00    +0.024 C 
ENDBRANCH   2  10
ENDBRANCH  11   6
TORSDOF 3
ENDMDL
MODEL 5
REMARK VINA RESULT:      -5.9      1.812      2.757
REMARK  Name = 51137316
REMARK  5 active torsions:
REMARK  status: ('A' for Active; 'I' for Inactive)
REMARK    1  A    between atoms: N_2  and  C_10
REMARK    2  A    between atoms: C_6  and  C_11
REMARK    3  A    between atoms: C_10  and  C_12
REMARK    4  A    between atoms: C_10  and  C_13
REMARK    5  A    between atoms: C_14  and  C_15
REMARK                            x       y       z     vdW  Elec       q    Type
REMARK                         _______ _______ _______ _____ _____    ______ ____
ROOT
ATOM      1  O   UNL     1      16.629   6.991  20.423  0.00  0.00    -0.420 OA
ATOM      3  N   UNL     1      16.340   5.842  18.524  0.00  0.00    -0.112 NA
ATOM      4  N   UNL     1      17.660   5.703  18.913  0.00  0.00    -0.107 NA
ATOM     11  C   UNL     1      15.777   6.601  19.435  0.00  0.00    +0.222 A 
ATOM     14  C   UNL     1      17.782   6.389  20.024  0.00  0.00    +0.248 A 
ENDROOT
BRANCH  14  15
ATOM      5  N   UNL     1      21.145   7.009  22.512  0.00  0.00    -0.263 NA
ATOM     15  C   UNL     1      18.922   6.599  20.869  0.00  0.00    +0.041 A 
ATOM     16  C   UNL     1      20.047   5.792  20.736  0.00  0.00    +0.033 A 
ATOM     17  C   UNL     1      18.908   7.610  21.822  0.00  0.00    +0.033 A 
ATOM     18  C   UNL     1      21.123   6.036  21.574  0.00  0.00    +0.111 A 
ATOM     19  C   UNL     1      20.035   7.772  22.612  0.00  0.00    +0.111 A 
ENDBRANCH  14  15
BRANCH  11   6
ATOM      2  N   UNL     1      12.779   8.486  18.493  0.00  0.00    -0.299 NA
ATOM      6  C   UNL     1      14.350   7.089  19.532  0.00  0.00    +0.092 C 
ATOM      7  C   UNL     1      13.739   7.430  18.165  0.00  0.00    +0.097 C 
ATOM      8  C   UNL     1      14.157   8.363  20.373  0.00  0.00    +0.029 C 
ATOM      9  C   UNL     1      13.482   9.355  19.437  0.00  0.00    +0.085 C 
BRANCH   2  10
ATOM     10  C   UNL     1      12.321   9.205  17.313  0.00  0.00    +0.050 C 
ATOM     12  C   UNL     1      13.384   9.120  16.222  0.00  0.00    +0.024 C 
ATOM     13  C   UNL     1      10.991   8.634  16.828  0.00  0.00    +0.024 C 
ENDBRANCH   2  10
ENDBRANCH  11   6
TORSDOF 3
ENDMDL
MODEL 6
REMARK VINA RESULT:      -5.4     25.665     27.879
REMARK  Name = 51137316
REMARK  5 active torsions:
REMARK  status: ('A' for Active; 'I' for Inactive)
REMARK    1  A    between atoms: N_2  and  C_10
REMARK    2  A    between atoms: C_6  and  C_11
REMARK    3  A    between atoms: C_10  and  C_12
REMARK    4  A    between atoms: C_10  and  C_13
REMARK    5  A    between atoms: C_14  and  C_15
REMARK                            x       y       z     vdW  Elec       q    Type
REMARK                         _______ _______ _______ _____ _____    ______ ____
ROOT
ATOM      1  O   UNL     1      -3.607 -10.492  11.966  0.00  0.00    -0.420 OA
ATOM      3  N   UNL     1      -1.447  -9.909  11.932  0.00  0.00    -0.112 NA
ATOM      4  N   UNL     1      -2.051  -9.381  10.806  0.00  0.00    -0.107 NA
ATOM     11  C   UNL     1      -2.393 -10.549  12.579  0.00  0.00    +0.222 A 
ATOM     14  C   UNL     1      -3.310  -9.746  10.868  0.00  0.00    +0.248 A 
ENDROOT
BRANCH  14  15
ATOM      5  N   UNL     1      -6.524  -8.976   8.230  0.00  0.00    -0.263 NA
ATOM     15  C   UNL     1      -4.400  -9.485   9.973  0.00  0.00    +0.041 A 
ATOM     16  C   UNL     1      -5.354  -8.526  10.297  0.00  0.00    +0.033 A 
ATOM     17  C   UNL     1      -4.507 -10.189   8.780  0.00  0.00    +0.033 A 
ATOM     18  C   UNL     1      -6.388  -8.311   9.398  0.00  0.00    +0.111 A 
ATOM     19  C   UNL     1      -5.579  -9.900   7.950  0.00  0.00    +0.111 A 
ENDBRANCH  14  15
BRANCH  11   6
ATOM      2  N   UNL     1      -3.505 -11.779  15.847  0.00  0.00    -0.299 NA
ATOM      6  C   UNL     1      -2.319 -11.320  13.877  0.00  0.00    +0.092 C 
ATOM      7  C   UNL     1      -3.697 -11.754  14.395  0.00  0.00    +0.097 C 
ATOM      8  C   UNL     1      -1.685 -10.554  15.050  0.00  0.00    +0.029 C 
ATOM      9  C   UNL     1      -2.740 -10.570  16.147  0.00  0.00    +0.085 C 
BRANCH   2  10
ATOM     10  C   UNL     1      -4.765 -11.833  16.572  0.00  0.00    +0.050 C 
ATOM     12  C   UNL     1      -4.969 -13.238  17.132  0.00  0.00    +0.024 C 
ATOM     13  C   UNL     1      -4.779 -10.793  17.688  0.00  0.00    +0.024 C 
ENDBRANCH   2  10
ENDBRANCH  11   6
TORSDOF 3
ENDMDL
MODEL 7
REMARK VINA RESULT:      -5.2     25.843     28.401
REMARK  Name = 51137316
REMARK  5 active torsions:
REMARK  status: ('A' for Active; 'I' for Inactive)
REMARK    1  A    between atoms: N_2  and  C_10
REMARK    2  A    between atoms: C_6  and  C_11
REMARK    3  A    between atoms: C_10  and  C_12
REMARK    4  A    between atoms: C_10  and  C_13
REMARK    5  A    between atoms: C_14  and  C_15
REMARK                            x       y       z     vdW  Elec       q    Type
REMARK                         _______ _______ _______ _____ _____    ______ ____
ROOT
ATOM      1  O   UNL     1      -5.215 -10.120  16.561  0.00  0.00    -0.420 OA
ATOM      3  N   UNL     1      -3.866 -11.378  17.828  0.00  0.00    -0.112 NA
ATOM      4  N   UNL     1      -5.115 -11.357  18.422  0.00  0.00    -0.107 NA
ATOM     11  C   UNL     1      -3.972 -10.644  16.746  0.00  0.00    +0.222 A 
ATOM     14  C   UNL     1      -5.868 -10.612  17.649  0.00  0.00    +0.248 A 
ENDROOT
BRANCH  14  15
ATOM      5  N   UNL     1      -9.939  -9.520  18.005  0.00  0.00    -0.263 NA
ATOM     15  C   UNL     1      -7.249 -10.242  17.770  0.00  0.00    +0.041 A 
ATOM     16  C   UNL     1      -7.734  -9.127  17.094  0.00  0.00    +0.033 A 
ATOM     17  C   UNL     1      -8.107 -10.995  18.563  0.00  0.00    +0.033 A 
ATOM     18  C   UNL     1      -9.076  -8.812  17.243  0.00  0.00    +0.111 A 
ATOM     19  C   UNL     1      -9.431 -10.596  18.646  0.00  0.00    +0.111 A 
ENDBRANCH  14  15
BRANCH  11   6
ATOM      2  N   UNL     1      -2.067 -10.997  13.635  0.00  0.00    -0.299 NA
ATOM      6  C   UNL     1      -2.928 -10.309  15.705  0.00  0.00    +0.092 C 
ATOM      7  C   UNL     1      -3.348 -10.713  14.284  0.00  0.00    +0.097 C 
ATOM      8  C   UNL     1      -1.563 -10.987  15.915  0.00  0.00    +0.029 C 
ATOM      9  C   UNL     1      -1.302 -11.754  14.626  0.00  0.00    +0.085 C 
BRANCH   2  10
ATOM     10  C   UNL     1      -2.227 -11.725  12.385  0.00  0.00    +0.050 C 
ATOM     12  C   UNL     1      -2.592 -13.176  12.686  0.00  0.00    +0.024 C 
ATOM     13  C   UNL     1      -3.293 -11.061  11.519  0.00  0.00    +0.024 C 
ENDBRANCH   2  10
ENDBRANCH  11   6
TORSDOF 3
ENDMDL
MODEL 8
REMARK VINA RESULT:      -5.2     30.769     31.867
REMARK  Name = 51137316
REMARK  5 active torsions:
REMARK  status: ('A' for Active; 'I' for Inactive)
REMARK    1  A    between atoms: N_2  and  C_10
REMARK    2  A    between atoms: C_6  and  C_11
REMARK    3  A    between atoms: C_10  and  C_12
REMARK    4  A    between atoms: C_10  and  C_13
REMARK    5  A    between atoms: C_14  and  C_15
REMARK                            x       y       z     vdW  Elec       q    Type
REMARK                         _______ _______ _______ _____ _____    ______ ____
ROOT
ATOM      1  O   UNL     1     -12.311  -5.121  12.166  0.00  0.00    -0.420 OA
ATOM      3  N   UNL     1     -13.445  -3.196  12.054  0.00  0.00    -0.112 NA
ATOM      4  N   UNL     1     -13.507  -3.654  13.357  0.00  0.00    -0.107 NA
ATOM     11  C   UNL     1     -12.737  -4.083  11.396  0.00  0.00    +0.222 A 
ATOM     14  C   UNL     1     -12.832  -4.779  13.376  0.00  0.00    +0.248 A 
ENDROOT
BRANCH  14  15
ATOM      5  N   UNL     1     -12.040  -7.455  16.553  0.00  0.00    -0.263 NA
ATOM     15  C   UNL     1     -12.564  -5.687  14.453  0.00  0.00    +0.041 A 
ATOM     16  C   UNL     1     -11.285  -5.769  14.994  0.00  0.00    +0.033 A 
ATOM     17  C   UNL     1     -13.580  -6.488  14.961  0.00  0.00    +0.033 A 
ATOM     18  C   UNL     1     -11.077  -6.661  16.035  0.00  0.00    +0.111 A 
ATOM     19  C   UNL     1     -13.269  -7.348  16.002  0.00  0.00    +0.111 A 
ENDBRANCH  14  15
BRANCH  11   6
ATOM      2  N   UNL     1     -11.006  -5.248   8.384  0.00  0.00    -0.299 NA
ATOM      6  C   UNL     1     -12.343  -4.109   9.937  0.00  0.00    +0.092 C 
ATOM      7  C   UNL     1     -11.986  -5.516   9.437  0.00  0.00    +0.097 C 
ATOM      8  C   UNL     1     -11.118  -3.247   9.582  0.00  0.00    +0.029 C 
ATOM      9  C   UNL     1     -10.133  -4.212   8.935  0.00  0.00    +0.085 C 
BRANCH   2  10
ATOM     10  C   UNL     1     -10.270  -6.442   7.994  0.00  0.00    +0.050 C 
ATOM     12  C   UNL     1     -10.684  -6.855   6.584  0.00  0.00    +0.024 C 
ATOM     13  C   UNL     1      -8.768  -6.187   8.070  0.00  0.00    +0.024 C 
ENDBRANCH   2  10
ENDBRANCH  11   6
TORSDOF 3
ENDMDL
MODEL 9
REMARK VINA RESULT:      -5.1     26.407     27.991
REMARK  Name = 51137316
REMARK  5 active torsions:
REMARK  status: ('A' for Active; 'I' for Inactive)
REMARK    1  A    between atoms: N_2  and  C_10
REMARK    2  A    between atoms: C_6  and  C_11
REMARK    3  A    between atoms: C_10  and  C_12
REMARK    4  A    between atoms: C_10  and  C_13
REMARK    5  A    between atoms: C_14  and  C_15
REMARK                            x       y       z     vdW  Elec       q    Type
REMARK                         _______ _______ _______ _____ _____    ______ ____
ROOT
ATOM      1  O   UNL     1      -3.933 -10.755  14.473  0.00  0.00    -0.420 OA
ATOM      3  N   UNL     1      -1.989 -10.692  15.579  0.00  0.00    -0.112 NA
ATOM      4  N   UNL     1      -1.715 -10.929  14.244  0.00  0.00    -0.107 NA
ATOM     11  C   UNL     1      -3.294 -10.598  15.665  0.00  0.00    +0.222 A 
ATOM     14  C   UNL     1      -2.878 -10.957  13.638  0.00  0.00    +0.248 A 
ENDROOT
BRANCH  14  15
ATOM      5  N   UNL     1      -3.836 -11.567   9.564  0.00  0.00    -0.263 NA
ATOM     15  C   UNL     1      -3.203 -11.164  12.256  0.00  0.00    +0.041 A 
ATOM     16  C   UNL     1      -3.323 -10.077  11.397  0.00  0.00    +0.033 A 
ATOM     17  C   UNL     1      -3.400 -12.451  11.771  0.00  0.00    +0.033 A 
ATOM     18  C   UNL     1      -3.638 -10.330  10.071  0.00  0.00    +0.111 A 
ATOM     19  C   UNL     1      -3.712 -12.598  10.429  0.00  0.00    +0.111 A 
ENDBRANCH  14  15
BRANCH  11   6
ATOM      2  N   UNL     1      -5.809 -11.324  18.229  0.00  0.00    -0.299 NA
ATOM      6  C   UNL     1      -4.163 -10.346  16.877  0.00  0.00    +0.092 C 
ATOM      7  C   UNL     1      -4.500 -11.629  17.649  0.00  0.00    +0.097 C 
ATOM      8  C   UNL     1      -5.528  -9.704  16.572  0.00  0.00    +0.029 C 
ATOM      9  C   UNL     1      -6.554 -10.665  17.157  0.00  0.00    +0.085 C 
BRANCH   2  10
ATOM     10  C   UNL     1      -6.487 -12.513  18.725  0.00  0.00    +0.050 C 
ATOM     12  C   UNL     1      -7.692 -12.097  19.564  0.00  0.00    +0.024 C 
ATOM     13  C   UNL     1      -6.911 -13.405  17.562  0.00  0.00    +0.024 C 
ENDBRANCH   2  10
ENDBRANCH  11   6
TORSDOF 3
ENDMDL
MODEL 10
REMARK VINA RESULT:      -5.1     26.437     27.960
REMARK  Name = 51137316
REMARK  5 active torsions:
REMARK  status: ('A' for Active; 'I' for Inactive)
REMARK    1  A    between atoms: N_2  and  C_10
REMARK    2  A    between atoms: C_6  and  C_11
REMARK    3  A    between atoms: C_10  and  C_12
REMARK    4  A    between atoms: C_10  and  C_13
REMARK    5  A    between atoms: C_14  and  C_15
REMARK                            x       y       z     vdW  Elec       q    Type
REMARK                         _______ _______ _______ _____ _____    ______ ____
ROOT
ATOM      1  O   UNL     1      -4.340 -11.362  15.241  0.00  0.00    -0.420 OA
ATOM      3  N   UNL     1      -2.665 -11.015  16.685  0.00  0.00    -0.112 NA
ATOM      4  N   UNL     1      -2.265 -10.550  15.445  0.00  0.00    -0.107 NA
ATOM     11  C   UNL     1      -3.881 -11.479  16.518  0.00  0.00    +0.222 A 
ATOM     14  C   UNL     1      -3.273 -10.773  14.635  0.00  0.00    +0.248 A 
ENDROOT
BRANCH  14  15
ATOM      5  N   UNL     1      -3.713  -9.957  10.509  0.00  0.00    -0.263 NA
ATOM     15  C   UNL     1      -3.422 -10.497  13.235  0.00  0.00    +0.041 A 
ATOM     16  C   UNL     1      -4.691 -10.347  12.685  0.00  0.00    +0.033 A 
ATOM     17  C   UNL     1      -2.300 -10.377  12.424  0.00  0.00    +0.033 A 
ATOM     18  C   UNL     1      -4.781 -10.080  11.328  0.00  0.00    +0.111 A 
ATOM     19  C   UNL     1      -2.498 -10.109  11.079  0.00  0.00    +0.111 A 
ENDBRANCH  14  15
BRANCH  11   6
ATOM      2  N   UNL     1      -6.750 -11.706  18.787  0.00  0.00    -0.299 NA
ATOM      6  C   UNL     1      -4.816 -12.111  17.524  0.00  0.00    +0.092 C 
ATOM      7  C   UNL     1      -6.256 -11.588  17.414  0.00  0.00    +0.097 C 
ATOM      8  C   UNL     1      -4.431 -11.886  18.996  0.00  0.00    +0.029 C 
ATOM      9  C   UNL     1      -5.651 -11.227  19.626  0.00  0.00    +0.085 C 
BRANCH   2  10
ATOM     10  C   UNL     1      -7.978 -10.955  19.002  0.00  0.00    +0.050 C 
ATOM     12  C   UNL     1      -8.184  -9.978  17.848  0.00  0.00    +0.024 C 
ATOM     13  C   UNL     1      -9.164 -11.906  19.132  0.00  0.00    +0.024 C 
ENDBRANCH   2  10
ENDBRANCH  11   6
TORSDOF 3
ENDMDL
