MODEL 1
REMARK VINA RESULT:      -7.2      0.000      0.000
REMARK  Name = 44716394
REMARK  6 active torsions:
REMARK  status: ('A' for Active; 'I' for Inactive)
REMARK    1  A    between atoms: N_3  and  C_14
REMARK    2  A    between atoms: N_4  and  C_15
REMARK    3  A    between atoms: N_5  and  C_21
REMARK    4  A    between atoms: N_6  and  C_22
REMARK    5  A    between atoms: C_8  and  C_14
REMARK    6  A    between atoms: C_9  and  C_15
REMARK                            x       y       z     vdW  Elec       q    Type
REMARK                         _______ _______ _______ _____ _____    ______ ____
ROOT
ATOM      2  N   UNL     1      11.570   7.354  19.964  0.00  0.00    -0.298 NA
ATOM      7  C   UNL     1      13.312   8.968  21.027  0.00  0.00    -0.003 C 
ATOM      8  C   UNL     1      11.872   9.383  21.406  0.00  0.00    +0.020 C 
ATOM      9  C   UNL     1      12.499   7.863  18.918  0.00  0.00    +0.074 C 
ATOM     10  C   UNL     1      13.448   8.937  19.494  0.00  0.00    +0.024 C 
ATOM     11  C   UNL     1      10.881   8.483  20.634  0.00  0.00    +0.089 C 
ATOM     12  C   UNL     1      13.508   7.525  21.532  0.00  0.00    +0.019 C 
ATOM     13  C   UNL     1      12.378   6.638  20.981  0.00  0.00    +0.085 C 
ENDROOT
BRANCH   8  14
ATOM     14  C   UNL     1      11.590  10.865  21.166  0.00  0.00    +0.089 C 
BRANCH  14   3
ATOM      3  N   UNL     1      11.664  11.618  22.417  0.00  0.00    -0.300 NA
ATOM      5  N   UNL     1      10.485  13.010  24.659  0.00  0.00    -0.303 NA
ATOM     16  C   UNL     1      11.068  12.951  22.258  0.00  0.00    +0.100 C 
ATOM     17  C   UNL     1      11.004  10.888  23.505  0.00  0.00    +0.100 C 
ATOM     18  C   UNL     1      11.143  13.741  23.570  0.00  0.00    +0.099 C 
ATOM     19  C   UNL     1      11.079  11.677  24.817  0.00  0.00    +0.099 C 
ATOM     21  C   UNL     1      10.560  13.763  25.910  0.00  0.00    +0.105 C 
ENDBRANCH  14   3
ENDBRANCH   8  14
BRANCH   9  15
ATOM     15  C   UNL     1      11.759   8.365  17.676  0.00  0.00    +0.124 C 
BRANCH  15   4
ATOM      1  O   UNL     1      13.040   8.795  15.151  0.00  0.00    -0.253 OA
ATOM      4  N   UNL     1      12.340   9.608  17.197  0.00  0.00    -0.298 N 
ATOM      6  N   UNL     1      13.411  11.030  15.763  0.00  0.00    -0.269 N 
ATOM     20  C   UNL     1      12.946   9.726  15.948  0.00  0.00    +0.304 C 
ATOM     28  H   UNL     1      12.304  10.420  17.805  0.00  0.00    +0.150 HD
ATOM     29  H   UNL     1      13.252  11.684  16.526  0.00  0.00    +0.156 HD
BRANCH   6  22
ATOM     22  C   UNL     1      14.082  11.562  14.637  0.00  0.00    +0.035 A 
ATOM     23  C   UNL     1      13.372  12.288  13.681  0.00  0.00    +0.023 A 
ATOM     24  C   UNL     1      15.452  11.359  14.481  0.00  0.00    +0.023 A 
ATOM     25  C   UNL     1      14.032  12.812  12.570  0.00  0.00    +0.002 A 
ATOM     26  C   UNL     1      16.114  11.883  13.370  0.00  0.00    +0.002 A 
ATOM     27  C   UNL     1      15.403  12.610  12.414  0.00  0.00    +0.000 A 
ENDBRANCH   6  22
ENDBRANCH  15   4
ENDBRANCH   9  15
TORSDOF 5
ENDMDL
MODEL 2
REMARK VINA RESULT:      -6.6     27.477     29.322
REMARK  Name = 44716394
REMARK  6 active torsions:
REMARK  status: ('A' for Active; 'I' for Inactive)
REMARK    1  A    between atoms: N_3  and  C_14
REMARK    2  A    between atoms: N_4  and  C_15
REMARK    3  A    between atoms: N_5  and  C_21
REMARK    4  A    between atoms: N_6  and  C_22
REMARK    5  A    between atoms: C_8  and  C_14
REMARK    6  A    between atoms: C_9  and  C_15
REMARK                            x       y       z     vdW  Elec       q    Type
REMARK                         _______ _______ _______ _____ _____    ______ ____
ROOT
ATOM      2  N   UNL     1      -6.109 -10.459   9.834  0.00  0.00    -0.298 NA
ATOM      7  C   UNL     1      -3.936  -9.162  10.436  0.00  0.00    -0.003 C 
ATOM      8  C   UNL     1      -3.833 -10.642  10.868  0.00  0.00    +0.020 C 
ATOM      9  C   UNL     1      -6.446  -9.230  10.603  0.00  0.00    +0.074 C 
ATOM     10  C   UNL     1      -5.168  -8.520  11.101  0.00  0.00    +0.024 C 
ATOM     11  C   UNL     1      -5.196 -11.324  10.619  0.00  0.00    +0.089 C 
ATOM     12  C   UNL     1      -4.185  -9.156   8.915  0.00  0.00    +0.019 C 
ATOM     13  C   UNL     1      -5.402 -10.044   8.598  0.00  0.00    +0.085 C 
ENDROOT
BRANCH   8  14
ATOM     14  C   UNL     1      -3.371 -10.815  12.313  0.00  0.00    +0.089 C 
BRANCH  14   3
ATOM      3  N   UNL     1      -3.250 -12.231  12.656  0.00  0.00    -0.300 NA
ATOM      5  N   UNL     1      -2.607 -14.402  14.454  0.00  0.00    -0.303 NA
ATOM     16  C   UNL     1      -1.858 -12.576  12.967  0.00  0.00    +0.100 C 
ATOM     17  C   UNL     1      -4.126 -12.572  13.783  0.00  0.00    +0.100 C 
ATOM     18  C   UNL     1      -1.730 -14.060  13.328  0.00  0.00    +0.099 C 
ATOM     19  C   UNL     1      -4.000 -14.056  14.144  0.00  0.00    +0.099 C 
ATOM     21  C   UNL     1      -2.488 -15.818  14.795  0.00  0.00    +0.105 C 
ENDBRANCH  14   3
ENDBRANCH   8  14
BRANCH   9  15
ATOM     15  C   UNL     1      -7.425  -9.508  11.746  0.00  0.00    +0.124 C 
BRANCH  15   4
ATOM      1  O   UNL     1      -7.400 -11.117  14.115  0.00  0.00    -0.253 OA
ATOM      4  N   UNL     1      -6.833  -9.159  13.028  0.00  0.00    -0.298 N 
ATOM      6  N   UNL     1      -6.223  -9.411  15.216  0.00  0.00    -0.269 N 
ATOM     20  C   UNL     1      -6.869 -10.009  14.131  0.00  0.00    +0.304 C 
ATOM     28  H   UNL     1      -6.380  -8.255  13.117  0.00  0.00    +0.150 HD
ATOM     29  H   UNL     1      -5.835  -8.484  15.062  0.00  0.00    +0.156 HD
BRANCH   6  22
ATOM     22  C   UNL     1      -6.041  -9.938  16.516  0.00  0.00    +0.035 A 
ATOM     23  C   UNL     1      -4.818 -10.505  16.873  0.00  0.00    +0.023 A 
ATOM     24  C   UNL     1      -7.084  -9.891  17.441  0.00  0.00    +0.023 A 
ATOM     25  C   UNL     1      -4.637 -11.025  18.154  0.00  0.00    +0.002 A 
ATOM     26  C   UNL     1      -6.904 -10.411  18.723  0.00  0.00    +0.002 A 
ATOM     27  C   UNL     1      -5.680 -10.978  19.080  0.00  0.00    +0.000 A 
ENDBRANCH   6  22
ENDBRANCH  15   4
ENDBRANCH   9  15
TORSDOF 5
ENDMDL
MODEL 3
REMARK VINA RESULT:      -6.4     28.526     31.307
REMARK  Name = 44716394
REMARK  6 active torsions:
REMARK  status: ('A' for Active; 'I' for Inactive)
REMARK    1  A    between atoms: N_3  and  C_14
REMARK    2  A    between atoms: N_4  and  C_15
REMARK    3  A    between atoms: N_5  and  C_21
REMARK    4  A    between atoms: N_6  and  C_22
REMARK    5  A    between atoms: C_8  and  C_14
REMARK    6  A    between atoms: C_9  and  C_15
REMARK                            x       y       z     vdW  Elec       q    Type
REMARK                         _______ _______ _______ _____ _____    ______ ____
ROOT
ATOM      2  N   UNL     1     -13.239 -12.076  19.188  0.00  0.00    -0.298 NA
ATOM      7  C   UNL     1     -13.330  -9.493  19.481  0.00  0.00    -0.003 C 
ATOM      8  C   UNL     1     -12.758  -9.871  18.096  0.00  0.00    +0.020 C 
ATOM      9  C   UNL     1     -12.567 -11.683  20.457  0.00  0.00    +0.074 C 
ATOM     10  C   UNL     1     -12.475 -10.146  20.583  0.00  0.00    +0.024 C 
ATOM     11  C   UNL     1     -12.592 -11.406  18.034  0.00  0.00    +0.089 C 
ATOM     12  C   UNL     1     -14.738 -10.114  19.567  0.00  0.00    +0.019 C 
ATOM     13  C   UNL     1     -14.648 -11.619  19.257  0.00  0.00    +0.085 C 
ENDROOT
BRANCH   8  14
ATOM     14  C   UNL     1     -11.452  -9.150  17.768  0.00  0.00    +0.089 C 
BRANCH  14   3
ATOM      3  N   UNL     1     -11.709  -7.918  17.024  0.00  0.00    -0.300 NA
ATOM      5  N   UNL     1     -11.885  -6.365  14.592  0.00  0.00    -0.303 NA
ATOM     16  C   UNL     1     -10.503  -7.477  16.313  0.00  0.00    +0.100 C 
ATOM     17  C   UNL     1     -12.821  -8.099  16.084  0.00  0.00    +0.100 C 
ATOM     18  C   UNL     1     -10.772  -6.185  15.532  0.00  0.00    +0.099 C 
ATOM     19  C   UNL     1     -13.091  -6.808  15.303  0.00  0.00    +0.099 C 
ATOM     21  C   UNL     1     -12.144  -5.133  13.851  0.00  0.00    +0.105 C 
ENDBRANCH  14   3
ENDBRANCH   8  14
BRANCH   9  15
ATOM     15  C   UNL     1     -11.200 -12.350  20.624  0.00  0.00    +0.124 C 
BRANCH  15   4
ATOM      1  O   UNL     1      -9.140 -12.621  18.653  0.00  0.00    -0.253 OA
ATOM      4  N   UNL     1     -10.129 -11.406  20.350  0.00  0.00    -0.298 N 
ATOM      6  N   UNL     1      -8.270 -10.550  19.333  0.00  0.00    -0.269 N 
ATOM     20  C   UNL     1      -9.166 -11.621  19.367  0.00  0.00    +0.304 C 
ATOM     28  H   UNL     1     -10.084 -10.558  20.906  0.00  0.00    +0.150 HD
ATOM     29  H   UNL     1      -8.433  -9.797  19.997  0.00  0.00    +0.156 HD
BRANCH   6  22
ATOM     22  C   UNL     1      -7.152 -10.380  18.483  0.00  0.00    +0.035 A 
ATOM     23  C   UNL     1      -5.904 -10.873  18.866  0.00  0.00    +0.023 A 
ATOM     24  C   UNL     1      -7.296  -9.719  17.264  0.00  0.00    +0.023 A 
ATOM     25  C   UNL     1      -4.801 -10.705  18.029  0.00  0.00    +0.002 A 
ATOM     26  C   UNL     1      -6.193  -9.551  16.426  0.00  0.00    +0.002 A 
ATOM     27  C   UNL     1      -4.945 -10.045  16.809  0.00  0.00    +0.000 A 
ENDBRANCH   6  22
ENDBRANCH  15   4
ENDBRANCH   9  15
TORSDOF 5
ENDMDL
MODEL 4
REMARK VINA RESULT:      -6.4     15.135     20.742
REMARK  Name = 44716394
REMARK  6 active torsions:
REMARK  status: ('A' for Active; 'I' for Inactive)
REMARK    1  A    between atoms: N_3  and  C_14
REMARK    2  A    between atoms: N_4  and  C_15
REMARK    3  A    between atoms: N_5  and  C_21
REMARK    4  A    between atoms: N_6  and  C_22
REMARK    5  A    between atoms: C_8  and  C_14
REMARK    6  A    between atoms: C_9  and  C_15
REMARK                            x       y       z     vdW  Elec       q    Type
REMARK                         _______ _______ _______ _____ _____    ______ ____
ROOT
ATOM      2  N   UNL     1      13.681   5.786   0.839  0.00  0.00    -0.298 NA
ATOM      7  C   UNL     1      13.537   3.189   0.839  0.00  0.00    -0.003 C 
ATOM      8  C   UNL     1      13.258   3.756  -0.571  0.00  0.00    +0.020 C 
ATOM      9  C   UNL     1      12.761   5.327   1.915  0.00  0.00    +0.074 C 
ATOM     10  C   UNL     1      12.541   3.800   1.842  0.00  0.00    +0.024 C 
ATOM     11  C   UNL     1      13.213   5.298  -0.481  0.00  0.00    +0.089 C 
ATOM     12  C   UNL     1      14.944   3.669   1.244  0.00  0.00    +0.019 C 
ATOM     13  C   UNL     1      15.018   5.200   1.100  0.00  0.00    +0.085 C 
ENDROOT
BRANCH   8  14
ATOM     14  C   UNL     1      11.988   3.193  -1.205  0.00  0.00    +0.089 C 
BRANCH  14   3
ATOM      3  N   UNL     1      11.869   3.617  -2.599  0.00  0.00    -0.300 NA
ATOM      5  N   UNL     1      11.004   3.266  -5.335  0.00  0.00    -0.303 NA
ATOM     16  C   UNL     1      12.540   2.667  -3.494  0.00  0.00    +0.100 C 
ATOM     17  C   UNL     1      10.459   3.770  -2.978  0.00  0.00    +0.100 C 
ATOM     18  C   UNL     1      12.413   3.111  -4.956  0.00  0.00    +0.099 C 
ATOM     19  C   UNL     1      10.332   4.216  -4.439  0.00  0.00    +0.099 C 
ATOM     21  C   UNL     1      10.885   3.693  -6.727  0.00  0.00    +0.105 C 
ENDBRANCH  14   3
ENDBRANCH   8  14
BRANCH   9  15
ATOM     15  C   UNL     1      11.437   6.093   1.916  0.00  0.00    +0.124 C 
BRANCH  15   4
ATOM      1  O   UNL     1      11.700   6.535   4.733  0.00  0.00    -0.253 OA
ATOM      4  N   UNL     1      10.555   5.597   2.960  0.00  0.00    -0.298 N 
ATOM      6  N   UNL     1       9.760   5.260   5.077  0.00  0.00    -0.269 N 
ATOM     20  C   UNL     1      10.762   5.863   4.312  0.00  0.00    +0.304 C 
ATOM     28  H   UNL     1       9.759   5.029   2.686  0.00  0.00    +0.150 HD
ATOM     29  H   UNL     1       9.052   4.735   4.569  0.00  0.00    +0.156 HD
BRANCH   6  22
ATOM     22  C   UNL     1       9.606   5.287   6.483  0.00  0.00    +0.035 A 
ATOM     23  C   UNL     1       9.859   4.140   7.234  0.00  0.00    +0.023 A 
ATOM     24  C   UNL     1       9.200   6.460   7.117  0.00  0.00    +0.023 A 
ATOM     25  C   UNL     1       9.706   4.165   8.620  0.00  0.00    +0.002 A 
ATOM     26  C   UNL     1       9.047   6.487   8.504  0.00  0.00    +0.002 A 
ATOM     27  C   UNL     1       9.301   5.339   9.256  0.00  0.00    +0.000 A 
ENDBRANCH   6  22
ENDBRANCH  15   4
ENDBRANCH   9  15
TORSDOF 5
ENDMDL
MODEL 5
REMARK VINA RESULT:      -6.4      4.304      7.719
REMARK  Name = 44716394
REMARK  6 active torsions:
REMARK  status: ('A' for Active; 'I' for Inactive)
REMARK    1  A    between atoms: N_3  and  C_14
REMARK    2  A    between atoms: N_4  and  C_15
REMARK    3  A    between atoms: N_5  and  C_21
REMARK    4  A    between atoms: N_6  and  C_22
REMARK    5  A    between atoms: C_8  and  C_14
REMARK    6  A    between atoms: C_9  and  C_15
REMARK                            x       y       z     vdW  Elec       q    Type
REMARK                         _______ _______ _______ _____ _____    ______ ____
ROOT
ATOM      2  N   UNL     1      12.357   7.331  21.612  0.00  0.00    -0.298 NA
ATOM      7  C   UNL     1      12.777   9.395  20.086  0.00  0.00    -0.003 C 
ATOM      8  C   UNL     1      11.970   8.311  19.337  0.00  0.00    +0.020 C 
ATOM      9  C   UNL     1      13.807   7.666  21.596  0.00  0.00    +0.074 C 
ATOM     10  C   UNL     1      14.104   8.793  20.582  0.00  0.00    +0.024 C 
ATOM     11  C   UNL     1      11.876   7.058  20.236  0.00  0.00    +0.089 C 
ATOM     12  C   UNL     1      11.957   9.781  21.332  0.00  0.00    +0.019 C 
ATOM     13  C   UNL     1      11.623   8.510  22.132  0.00  0.00    +0.085 C 
ENDROOT
BRANCH   8  14
ATOM     14  C   UNL     1      12.544   7.975  17.962  0.00  0.00    +0.089 C 
BRANCH  14   3
ATOM      3  N   UNL     1      12.843   9.193  17.210  0.00  0.00    -0.300 NA
ATOM      5  N   UNL     1      13.883  10.617  14.920  0.00  0.00    -0.303 NA
ATOM     16  C   UNL     1      14.288   9.328  16.989  0.00  0.00    +0.100 C 
ATOM     17  C   UNL     1      12.125   9.204  15.930  0.00  0.00    +0.100 C 
ATOM     18  C   UNL     1      14.602  10.604  16.199  0.00  0.00    +0.099 C 
ATOM     19  C   UNL     1      12.438  10.480  15.141  0.00  0.00    +0.099 C 
ATOM     21  C   UNL     1      14.180  11.835  14.169  0.00  0.00    +0.105 C 
ENDBRANCH  14   3
ENDBRANCH   8  14
BRANCH   9  15
ATOM     15  C   UNL     1      14.687   6.438  21.354  0.00  0.00    +0.124 C 
BRANCH  15   4
ATOM      1  O   UNL     1      17.100   6.574  19.818  0.00  0.00    -0.253 OA
ATOM      4  N   UNL     1      16.031   6.658  21.864  0.00  0.00    -0.298 N 
ATOM      6  N   UNL     1      18.299   6.932  21.802  0.00  0.00    -0.269 N 
ATOM     20  C   UNL     1      17.151   6.709  21.038  0.00  0.00    +0.304 C 
ATOM     28  H   UNL     1      16.151   6.773  22.865  0.00  0.00    +0.150 HD
ATOM     29  H   UNL     1      18.168   7.022  22.807  0.00  0.00    +0.156 HD
BRANCH   6  22
ATOM     22  C   UNL     1      19.635   7.049  21.351  0.00  0.00    +0.035 A 
ATOM     23  C   UNL     1      20.329   5.916  20.928  0.00  0.00    +0.023 A 
ATOM     24  C   UNL     1      20.257   8.297  21.329  0.00  0.00    +0.023 A 
ATOM     25  C   UNL     1      21.646   6.031  20.484  0.00  0.00    +0.002 A 
ATOM     26  C   UNL     1      21.574   8.412  20.884  0.00  0.00    +0.002 A 
ATOM     27  C   UNL     1      22.269   7.278  20.461  0.00  0.00    +0.000 A 
ENDBRANCH   6  22
ENDBRANCH  15   4
ENDBRANCH   9  15
TORSDOF 5
ENDMDL
MODEL 6
REMARK VINA RESULT:      -6.2     28.151     30.560
REMARK  Name = 44716394
REMARK  6 active torsions:
REMARK  status: ('A' for Active; 'I' for Inactive)
REMARK    1  A    between atoms: N_3  and  C_14
REMARK    2  A    between atoms: N_4  and  C_15
REMARK    3  A    between atoms: N_5  and  C_21
REMARK    4  A    between atoms: N_6  and  C_22
REMARK    5  A    between atoms: C_8  and  C_14
REMARK    6  A    between atoms: C_9  and  C_15
REMARK                            x       y       z     vdW  Elec       q    Type
REMARK                         _______ _______ _______ _____ _____    ______ ____
ROOT
ATOM      2  N   UNL     1     -12.438  -8.486  14.491  0.00  0.00    -0.298 NA
ATOM      7  C   UNL     1     -12.871  -6.240  15.729  0.00  0.00    -0.003 C 
ATOM      8  C   UNL     1     -12.880  -6.036  14.197  0.00  0.00    +0.020 C 
ATOM      9  C   UNL     1     -11.377  -8.253  15.509  0.00  0.00    +0.074 C 
ATOM     10  C   UNL     1     -11.526  -6.857  16.154  0.00  0.00    +0.024 C 
ATOM     11  C   UNL     1     -12.476  -7.365  13.521  0.00  0.00    +0.089 C 
ATOM     12  C   UNL     1     -13.968  -7.273  16.049  0.00  0.00    +0.019 C 
ATOM     13  C   UNL     1     -13.743  -8.533  15.194  0.00  0.00    +0.085 C 
ENDROOT
BRANCH   8  14
ATOM     14  C   UNL     1     -11.994  -4.879  13.739  0.00  0.00    +0.089 C 
BRANCH  14   3
ATOM      3  N   UNL     1     -12.738  -3.962  12.878  0.00  0.00    -0.300 NA
ATOM      5  N   UNL     1     -14.691  -3.359  10.834  0.00  0.00    -0.303 NA
ATOM     16  C   UNL     1     -12.471  -4.244  11.462  0.00  0.00    +0.100 C 
ATOM     17  C   UNL     1     -14.177  -4.040  13.153  0.00  0.00    +0.100 C 
ATOM     18  C   UNL     1     -13.251  -3.283  10.558  0.00  0.00    +0.099 C 
ATOM     19  C   UNL     1     -14.958  -3.078  12.250  0.00  0.00    +0.099 C 
ATOM     21  C   UNL     1     -15.434  -2.439   9.974  0.00  0.00    +0.105 C 
ENDBRANCH  14   3
ENDBRANCH   8  14
BRANCH   9  15
ATOM     15  C   UNL     1      -9.971  -8.473  14.947  0.00  0.00    +0.124 C 
BRANCH  15   4
ATOM      1  O   UNL     1      -8.282 -10.656  15.711  0.00  0.00    -0.253 OA
ATOM      4  N   UNL     1      -8.984  -8.476  16.015  0.00  0.00    -0.298 N 
ATOM      6  N   UNL     1      -7.349  -9.299  17.384  0.00  0.00    -0.269 N 
ATOM     20  C   UNL     1      -8.203  -9.589  16.317  0.00  0.00    +0.304 C 
ATOM     28  H   UNL     1      -8.867  -7.629  16.562  0.00  0.00    +0.150 HD
ATOM     29  H   UNL     1      -7.410  -8.362  17.775  0.00  0.00    +0.156 HD
BRANCH   6  22
ATOM     22  C   UNL     1      -6.401 -10.153  17.994  0.00  0.00    +0.035 A 
ATOM     23  C   UNL     1      -5.225 -10.483  17.321  0.00  0.00    +0.023 A 
ATOM     24  C   UNL     1      -6.642 -10.665  19.269  0.00  0.00    +0.023 A 
ATOM     25  C   UNL     1      -4.290 -11.325  17.922  0.00  0.00    +0.002 A 
ATOM     26  C   UNL     1      -5.706 -11.507  19.871  0.00  0.00    +0.002 A 
ATOM     27  C   UNL     1      -4.530 -11.838  19.197  0.00  0.00    +0.000 A 
ENDBRANCH   6  22
ENDBRANCH  15   4
ENDBRANCH   9  15
TORSDOF 5
ENDMDL
MODEL 7
REMARK VINA RESULT:      -6.2     27.239     28.773
REMARK  Name = 44716394
REMARK  6 active torsions:
REMARK  status: ('A' for Active; 'I' for Inactive)
REMARK    1  A    between atoms: N_3  and  C_14
REMARK    2  A    between atoms: N_4  and  C_15
REMARK    3  A    between atoms: N_5  and  C_21
REMARK    4  A    between atoms: N_6  and  C_22
REMARK    5  A    between atoms: C_8  and  C_14
REMARK    6  A    between atoms: C_9  and  C_15
REMARK                            x       y       z     vdW  Elec       q    Type
REMARK                         _______ _______ _______ _____ _____    ______ ____
ROOT
ATOM      2  N   UNL     1      -6.840 -12.824  18.206  0.00  0.00    -0.298 NA
ATOM      7  C   UNL     1      -6.333 -10.325  18.720  0.00  0.00    -0.003 C 
ATOM      8  C   UNL     1      -7.471 -10.455  17.683  0.00  0.00    +0.020 C 
ATOM      9  C   UNL     1      -5.385 -12.556  18.043  0.00  0.00    +0.074 C 
ATOM     10  C   UNL     1      -5.079 -11.049  18.196  0.00  0.00    +0.024 C 
ATOM     11  C   UNL     1      -7.630 -11.946  17.310  0.00  0.00    +0.089 C 
ATOM     12  C   UNL     1      -6.795 -11.072  19.987  0.00  0.00    +0.019 C 
ATOM     13  C   UNL     1      -7.208 -12.505  19.607  0.00  0.00    +0.085 C 
ENDROOT
BRANCH   8  14
ATOM     14  C   UNL     1      -7.260  -9.584  16.447  0.00  0.00    +0.089 C 
BRANCH  14   3
ATOM      3  N   UNL     1      -8.451  -8.788  16.159  0.00  0.00    -0.300 NA
ATOM      5  N   UNL     1     -11.309  -8.354  16.103  0.00  0.00    -0.303 NA
ATOM     16  C   UNL     1      -9.305  -9.463  15.174  0.00  0.00    +0.100 C 
ATOM     17  C   UNL     1      -9.204  -8.514  17.388  0.00  0.00    +0.100 C 
ATOM     18  C   UNL     1     -10.556  -8.630  14.873  0.00  0.00    +0.099 C 
ATOM     19  C   UNL     1     -10.455  -7.680  17.088  0.00  0.00    +0.099 C 
ATOM     21  C   UNL     1     -12.499  -7.556  15.815  0.00  0.00    +0.105 C 
ENDBRANCH  14   3
ENDBRANCH   8  14
BRANCH   9  15
ATOM     15  C   UNL     1      -4.832 -13.118  16.732  0.00  0.00    +0.124 C 
BRANCH  15   4
ATOM      1  O   UNL     1      -5.266 -12.622  13.945  0.00  0.00    -0.253 OA
ATOM      4  N   UNL     1      -4.230 -12.063  15.932  0.00  0.00    -0.298 N 
ATOM      6  N   UNL     1      -3.782 -10.808  14.075  0.00  0.00    -0.269 N 
ATOM     20  C   UNL     1      -4.500 -11.897  14.576  0.00  0.00    +0.304 C 
ATOM     28  H   UNL     1      -3.582 -11.428  16.386  0.00  0.00    +0.150 HD
ATOM     29  H   UNL     1      -3.189 -10.310  14.734  0.00  0.00    +0.156 HD
BRANCH   6  22
ATOM     22  C   UNL     1      -3.775 -10.307  12.752  0.00  0.00    +0.035 A 
ATOM     23  C   UNL     1      -2.590 -10.296  12.017  0.00  0.00    +0.023 A 
ATOM     24  C   UNL     1      -4.952  -9.823  12.183  0.00  0.00    +0.023 A 
ATOM     25  C   UNL     1      -2.582  -9.801  10.714  0.00  0.00    +0.002 A 
ATOM     26  C   UNL     1      -4.946  -9.328  10.879  0.00  0.00    +0.002 A 
ATOM     27  C   UNL     1      -3.760  -9.317  10.143  0.00  0.00    +0.000 A 
ENDBRANCH   6  22
ENDBRANCH  15   4
ENDBRANCH   9  15
TORSDOF 5
ENDMDL
MODEL 8
REMARK VINA RESULT:      -6.1     27.834     29.848
REMARK  Name = 44716394
REMARK  6 active torsions:
REMARK  status: ('A' for Active; 'I' for Inactive)
REMARK    1  A    between atoms: N_3  and  C_14
REMARK    2  A    between atoms: N_4  and  C_15
REMARK    3  A    between atoms: N_5  and  C_21
REMARK    4  A    between atoms: N_6  and  C_22
REMARK    5  A    between atoms: C_8  and  C_14
REMARK    6  A    between atoms: C_9  and  C_15
REMARK                            x       y       z     vdW  Elec       q    Type
REMARK                         _______ _______ _______ _____ _____    ______ ____
ROOT
ATOM      2  N   UNL     1     -17.251   4.452  25.475  0.00  0.00    -0.298 NA
ATOM      7  C   UNL     1     -18.613   2.571  26.648  0.00  0.00    -0.003 C 
ATOM      8  C   UNL     1     -17.328   2.897  27.441  0.00  0.00    +0.020 C 
ATOM      9  C   UNL     1     -17.561   3.367  24.505  0.00  0.00    +0.074 C 
ATOM     10  C   UNL     1     -18.239   2.170  25.210  0.00  0.00    +0.024 C 
ATOM     11  C   UNL     1     -16.491   3.911  26.628  0.00  0.00    +0.089 C 
ATOM     12  C   UNL     1     -19.427   3.877  26.560  0.00  0.00    +0.019 C 
ATOM     13  C   UNL     1     -18.537   4.991  25.982  0.00  0.00    +0.085 C 
ENDROOT
BRANCH   8  14
ATOM     14  C   UNL     1     -16.513   1.657  27.803  0.00  0.00    +0.089 C 
BRANCH  14   3
ATOM      3  N   UNL     1     -15.693   1.899  28.988  0.00  0.00    -0.300 NA
ATOM      5  N   UNL     1     -15.054   1.577  31.789  0.00  0.00    -0.303 NA
ATOM     16  C   UNL     1     -16.469   2.582  30.030  0.00  0.00    +0.100 C 
ATOM     17  C   UNL     1     -15.138   0.641  29.503  0.00  0.00    +0.100 C 
ATOM     18  C   UNL     1     -15.610   2.834  31.274  0.00  0.00    +0.099 C 
ATOM     19  C   UNL     1     -14.278   0.893  30.747  0.00  0.00    +0.099 C 
ATOM     21  C   UNL     1     -14.231   1.819  32.973  0.00  0.00    +0.105 C 
ENDBRANCH  14   3
ENDBRANCH   8  14
BRANCH   9  15
ATOM     15  C   UNL     1     -16.332   2.933  23.704  0.00  0.00    +0.124 C 
BRANCH  15   4
ATOM      1  O   UNL     1     -14.127   4.759  23.763  0.00  0.00    -0.253 OA
ATOM      4  N   UNL     1     -15.998   3.926  22.695  0.00  0.00    -0.298 N 
ATOM      6  N   UNL     1     -14.831   5.618  21.696  0.00  0.00    -0.269 N 
ATOM     20  C   UNL     1     -14.900   4.776  22.808  0.00  0.00    +0.304 C 
ATOM     28  H   UNL     1     -16.597   4.001  21.879  0.00  0.00    +0.150 HD
ATOM     29  H   UNL     1     -15.555   5.503  20.990  0.00  0.00    +0.156 HD
BRANCH   6  22
ATOM     22  C   UNL     1     -13.872   6.622  21.424  0.00  0.00    +0.035 A 
ATOM     23  C   UNL     1     -14.215   7.967  21.557  0.00  0.00    +0.023 A 
ATOM     24  C   UNL     1     -12.585   6.267  21.023  0.00  0.00    +0.023 A 
ATOM     25  C   UNL     1     -13.270   8.957  21.289  0.00  0.00    +0.002 A 
ATOM     26  C   UNL     1     -11.638   7.257  20.755  0.00  0.00    +0.002 A 
ATOM     27  C   UNL     1     -11.982   8.603  20.888  0.00  0.00    +0.000 A 
ENDBRANCH   6  22
ENDBRANCH  15   4
ENDBRANCH   9  15
TORSDOF 5
ENDMDL
MODEL 9
REMARK VINA RESULT:      -6.1     27.339     29.884
REMARK  Name = 44716394
REMARK  6 active torsions:
REMARK  status: ('A' for Active; 'I' for Inactive)
REMARK    1  A    between atoms: N_3  and  C_14
REMARK    2  A    between atoms: N_4  and  C_15
REMARK    3  A    between atoms: N_5  and  C_21
REMARK    4  A    between atoms: N_6  and  C_22
REMARK    5  A    between atoms: C_8  and  C_14
REMARK    6  A    between atoms: C_9  and  C_15
REMARK                            x       y       z     vdW  Elec       q    Type
REMARK                         _______ _______ _______ _____ _____    ______ ____
ROOT
ATOM      2  N   UNL     1     -11.406  -9.330  16.895  0.00  0.00    -0.298 NA
ATOM      7  C   UNL     1      -9.265 -10.181  15.688  0.00  0.00    -0.003 C 
ATOM      8  C   UNL     1      -9.093 -10.241  17.223  0.00  0.00    +0.020 C 
ATOM      9  C   UNL     1     -10.954  -8.328  15.893  0.00  0.00    +0.074 C 
ATOM     10  C   UNL     1      -9.603  -8.739  15.268  0.00  0.00    +0.024 C 
ATOM     11  C   UNL     1     -10.331  -9.593  17.882  0.00  0.00    +0.089 C 
ATOM     12  C   UNL     1     -10.485 -11.055  15.340  0.00  0.00    +0.019 C 
ATOM     13  C   UNL     1     -11.692 -10.596  16.178  0.00  0.00    +0.085 C 
ENDROOT
BRANCH   8  14
ATOM     14  C   UNL     1      -7.795  -9.600  17.708  0.00  0.00    +0.089 C 
BRANCH  14   3
ATOM      3  N   UNL     1      -6.632 -10.301  17.167  0.00  0.00    -0.300 NA
ATOM      5  N   UNL     1      -3.808 -10.555  16.606  0.00  0.00    -0.303 NA
ATOM     16  C   UNL     1      -5.992  -9.510  16.109  0.00  0.00    +0.100 C 
ATOM     17  C   UNL     1      -5.669 -10.610  18.231  0.00  0.00    +0.100 C 
ATOM     18  C   UNL     1      -4.771 -10.244  15.543  0.00  0.00    +0.099 C 
ATOM     19  C   UNL     1      -4.449 -11.345  17.665  0.00  0.00    +0.099 C 
ATOM     21  C   UNL     1      -2.646 -11.258  16.065  0.00  0.00    +0.105 C 
ENDBRANCH  14   3
ENDBRANCH   8  14
BRANCH   9  15
ATOM     15  C   UNL     1     -10.908  -6.910  16.467  0.00  0.00    +0.124 C 
BRANCH  15   4
ATOM      1  O   UNL     1     -13.147  -6.273  14.800  0.00  0.00    -0.253 OA
ATOM      4  N   UNL     1     -10.945  -5.921  15.401  0.00  0.00    -0.298 N 
ATOM      6  N   UNL     1     -11.824  -4.680  13.695  0.00  0.00    -0.269 N 
ATOM     20  C   UNL     1     -12.085  -5.677  14.638  0.00  0.00    +0.304 C 
ATOM     28  H   UNL     1     -10.100  -5.393  15.207  0.00  0.00    +0.150 HD
ATOM     29  H   UNL     1     -10.886  -4.287  13.693  0.00  0.00    +0.156 HD
BRANCH   6  22
ATOM     22  C   UNL     1     -12.710  -4.142  12.732  0.00  0.00    +0.035 A 
ATOM     23  C   UNL     1     -12.313  -4.043  11.399  0.00  0.00    +0.023 A 
ATOM     24  C   UNL     1     -13.979  -3.711  13.115  0.00  0.00    +0.023 A 
ATOM     25  C   UNL     1     -13.186  -3.512  10.449  0.00  0.00    +0.002 A 
ATOM     26  C   UNL     1     -14.853  -3.181  12.165  0.00  0.00    +0.002 A 
ATOM     27  C   UNL     1     -14.456  -3.081  10.831  0.00  0.00    +0.000 A 
ENDBRANCH   6  22
ENDBRANCH  15   4
ENDBRANCH   9  15
TORSDOF 5
ENDMDL
MODEL 10
REMARK VINA RESULT:      -6.0     13.248     16.654
REMARK  Name = 44716394
REMARK  6 active torsions:
REMARK  status: ('A' for Active; 'I' for Inactive)
REMARK    1  A    between atoms: N_3  and  C_14
REMARK    2  A    between atoms: N_4  and  C_15
REMARK    3  A    between atoms: N_5  and  C_21
REMARK    4  A    between atoms: N_6  and  C_22
REMARK    5  A    between atoms: C_8  and  C_14
REMARK    6  A    between atoms: C_9  and  C_15
REMARK                            x       y       z     vdW  Elec       q    Type
REMARK                         _______ _______ _______ _____ _____    ______ ____
ROOT
ATOM      2  N   UNL     1      10.213   5.738   6.157  0.00  0.00    -0.298 NA
ATOM      7  C   UNL     1       9.243   7.524   7.781  0.00  0.00    -0.003 C 
ATOM      8  C   UNL     1       8.340   7.362   6.537  0.00  0.00    +0.020 C 
ATOM      9  C   UNL     1      11.258   6.744   6.491  0.00  0.00    +0.074 C 
ATOM     10  C   UNL     1      10.668   7.898   7.333  0.00  0.00    +0.024 C 
ATOM     11  C   UNL     1       9.036   6.401   5.546  0.00  0.00    +0.089 C 
ATOM     12  C   UNL     1       9.325   6.142   8.458  0.00  0.00    +0.019 C 
ATOM     13  C   UNL     1       9.777   5.097   7.422  0.00  0.00    +0.085 C 
ENDROOT
BRANCH   8  14
ATOM     14  C   UNL     1       7.983   8.691   5.875  0.00  0.00    +0.089 C 
BRANCH  14   3
ATOM      3  N   UNL     1       8.615   8.807   4.563  0.00  0.00    -0.300 NA
ATOM      5  N   UNL     1       9.164  10.182   2.080  0.00  0.00    -0.303 NA
ATOM     16  C   UNL     1       7.604   8.898   3.503  0.00  0.00    +0.100 C 
ATOM     17  C   UNL     1       9.511   9.968   4.517  0.00  0.00    +0.100 C 
ATOM     18  C   UNL     1       8.266   9.021   2.126  0.00  0.00    +0.099 C 
ATOM     19  C   UNL     1      10.175  10.092   3.141  0.00  0.00    +0.099 C 
ATOM     21  C   UNL     1       9.798  10.297   0.768  0.00  0.00    +0.105 C 
ENDBRANCH  14   3
ENDBRANCH   8  14
BRANCH   9  15
ATOM     15  C   UNL     1      11.986   7.262   5.248  0.00  0.00    +0.124 C 
BRANCH  15   4
ATOM      1  O   UNL     1      11.370   6.921   2.472  0.00  0.00    -0.253 OA
ATOM      4  N   UNL     1      12.398   6.158   4.396  0.00  0.00    -0.298 N 
ATOM      6  N   UNL     1      12.583   4.912   2.488  0.00  0.00    -0.269 N 
ATOM     20  C   UNL     1      12.050   6.075   3.049  0.00  0.00    +0.304 C 
ATOM     28  H   UNL     1      12.958   5.418   4.806  0.00  0.00    +0.150 HD
ATOM     29  H   UNL     1      13.126   4.314   3.107  0.00  0.00    +0.156 HD
BRANCH   6  22
ATOM     22  C   UNL     1      12.463   4.457   1.154  0.00  0.00    +0.035 A 
ATOM     23  C   UNL     1      13.597   4.052   0.451  0.00  0.00    +0.023 A 
ATOM     24  C   UNL     1      11.211   4.412   0.543  0.00  0.00    +0.023 A 
ATOM     25  C   UNL     1      13.479   3.604  -0.864  0.00  0.00    +0.002 A 
ATOM     26  C   UNL     1      11.092   3.963  -0.773  0.00  0.00    +0.002 A 
ATOM     27  C   UNL     1      12.227   3.558  -1.477  0.00  0.00    +0.000 A 
ENDBRANCH   6  22
ENDBRANCH  15   4
ENDBRANCH   9  15
TORSDOF 5
ENDMDL
