MODEL 1
REMARK VINA RESULT:      -7.4      0.000      0.000
REMARK  Name = 11882114
REMARK  12 active torsions:
REMARK  status: ('A' for Active; 'I' for Inactive)
REMARK    1  A    between atoms: N_6  and  C_11
REMARK    2  A    between atoms: N_7  and  C_15
REMARK    3  A    between atoms: N_8  and  C_26
REMARK    4  A    between atoms: C_12  and  C_17
REMARK    5  A    between atoms: C_16  and  C_20
REMARK    6  A    between atoms: C_20  and  C_21
REMARK    7  A    between atoms: C_21  and  C_27
REMARK    8  A    between atoms: C_21  and  C_28
REMARK    9  A    between atoms: C_21  and  C_29
REMARK   10  A    between atoms: C_26  and  C_30
REMARK   11  A    between atoms: C_26  and  C_31
REMARK   12  A    between atoms: C_30  and  C_32
REMARK                            x       y       z     vdW  Elec       q    Type
REMARK                         _______ _______ _______ _____ _____    ______ ____
ROOT
ATOM      1  O   UNL     1      -5.012  -8.394  10.648  0.00  0.00    -0.276 OA
ATOM      5  N   UNL     1      -6.700  -9.738  11.488  0.00  0.00    -0.288 N 
ATOM     11  C   UNL     1      -7.492 -10.187  13.677  0.00  0.00    +0.105 C 
ATOM     12  C   UNL     1      -6.295  -9.656  12.887  0.00  0.00    +0.182 C 
ATOM     13  C   UNL     1      -8.169 -11.147  12.695  0.00  0.00    +0.043 C 
ATOM     14  C   UNL     1      -7.934 -10.502  11.335  0.00  0.00    +0.110 C 
ATOM     16  C   UNL     1      -6.055  -9.031  10.485  0.00  0.00    +0.217 C 
ENDROOT
BRANCH  11   6
ATOM      3  O   UNL     1      -8.729  -9.804  16.244  0.00  0.00    -0.253 OA
ATOM      6  N   UNL     1      -8.379  -9.113  14.057  0.00  0.00    -0.294 N 
ATOM      7  N   UNL     1      -9.750  -7.884  15.433  0.00  0.00    -0.297 N 
ATOM     25  C   UNL     1      -8.934  -9.007  15.330  0.00  0.00    +0.300 C 
ATOM     40  H   UNL     1      -8.664  -8.444  13.349  0.00  0.00    +0.151 HD
ATOM     41  H   UNL     1      -9.908  -7.332  14.595  0.00  0.00    +0.151 HD
BRANCH   7  15
ATOM     15  C   UNL     1     -10.456  -7.526  16.643  0.00  0.00    +0.074 C 
ATOM     18  C   UNL     1     -11.524  -8.570  16.988  0.00  0.00    +0.022 C 
ATOM     19  C   UNL     1     -11.064  -6.125  16.533  0.00  0.00    +0.022 C 
ATOM     22  C   UNL     1     -12.718  -8.520  16.035  0.00  0.00    +0.002 C 
ATOM     23  C   UNL     1     -12.258  -6.079  15.581  0.00  0.00    +0.002 C 
ATOM     24  C   UNL     1     -13.313  -7.118  15.950  0.00  0.00    +0.000 C 
ENDBRANCH   7  15
ENDBRANCH  11   6
BRANCH  12  17
ATOM      2  O   UNL     1      -4.807 -11.390  12.194  0.00  0.00    -0.274 OA
ATOM      8  N   UNL     1      -4.416 -10.312  14.219  0.00  0.00    -0.302 N 
ATOM     17  C   UNL     1      -5.098 -10.547  13.038  0.00  0.00    +0.236 C 
ATOM     42  H   UNL     1      -4.691  -9.521  14.794  0.00  0.00    +0.150 HD
BRANCH   8  26
ATOM     26  C   UNL     1      -3.239 -11.053  14.613  0.00  0.00    +0.163 C 
BRANCH  26  31
ATOM      4  O   UNL     1      -1.687 -10.158  12.972  0.00  0.00    -0.274 OA
ATOM      9  N   UNL     1      -1.390  -9.605  15.181  0.00  0.00    -0.328 N 
ATOM     31  C   UNL     1      -2.030 -10.254  14.148  0.00  0.00    +0.231 C 
ATOM     44  H   UNL     1      -0.574  -9.025  15.006  0.00  0.00    +0.145 HD
ATOM     45  H   UNL     1      -1.698  -9.676  16.146  0.00  0.00    +0.145 HD
ENDBRANCH  26  31
BRANCH  26  30
ATOM     30  C   UNL     1      -3.179 -11.282  16.129  0.00  0.00    +0.069 C 
BRANCH  30  32
ATOM     10  N   UNL     1      -5.825 -13.704  16.935  0.00  0.00    -0.360 N 
ATOM     32  C   UNL     1      -4.342 -12.077  16.652  0.00  0.00    -0.020 A 
ATOM     33  C   UNL     1      -5.243 -11.683  17.680  0.00  0.00    +0.003 A 
ATOM     34  C   UNL     1      -4.726 -13.323  16.213  0.00  0.00    +0.087 A 
ATOM     35  C   UNL     1      -6.163 -12.722  17.839  0.00  0.00    +0.047 A 
ATOM     36  C   UNL     1      -5.364 -10.540  18.495  0.00  0.00    +0.010 A 
ATOM     37  C   UNL     1      -7.202 -12.674  18.775  0.00  0.00    +0.026 A 
ATOM     38  C   UNL     1      -6.399 -10.478  19.436  0.00  0.00    +0.001 A 
ATOM     39  C   UNL     1      -7.302 -11.530  19.571  0.00  0.00    +0.002 A 
ATOM     43  H   UNL     1      -6.318 -14.579  16.822  0.00  0.00    +0.165 HD
ENDBRANCH  30  32
ENDBRANCH  26  30
ENDBRANCH   8  26
ENDBRANCH  12  17
BRANCH  16  20
ATOM     20  C   UNL     1      -6.710  -9.084   9.126  0.00  0.00    +0.102 C 
BRANCH  20  21
ATOM     21  C   UNL     1      -6.058 -10.120   8.191  0.00  0.00    -0.029 C 
ATOM     27  C   UNL     1      -6.174  -9.592   6.749  0.00  0.00    +0.011 C 
ATOM     28  C   UNL     1      -4.569 -10.310   8.526  0.00  0.00    +0.011 C 
ATOM     29  C   UNL     1      -6.779 -11.476   8.276  0.00  0.00    +0.011 C 
ENDBRANCH  20  21
ENDBRANCH  16  20
TORSDOF 9
ENDMDL
MODEL 2
REMARK VINA RESULT:      -7.4     27.765     31.468
REMARK  Name = 11882114
REMARK  12 active torsions:
REMARK  status: ('A' for Active; 'I' for Inactive)
REMARK    1  A    between atoms: N_6  and  C_11
REMARK    2  A    between atoms: N_7  and  C_15
REMARK    3  A    between atoms: N_8  and  C_26
REMARK    4  A    between atoms: C_12  and  C_17
REMARK    5  A    between atoms: C_16  and  C_20
REMARK    6  A    between atoms: C_20  and  C_21
REMARK    7  A    between atoms: C_21  and  C_27
REMARK    8  A    between atoms: C_21  and  C_28
REMARK    9  A    between atoms: C_21  and  C_29
REMARK   10  A    between atoms: C_26  and  C_30
REMARK   11  A    between atoms: C_26  and  C_31
REMARK   12  A    between atoms: C_30  and  C_32
REMARK                            x       y       z     vdW  Elec       q    Type
REMARK                         _______ _______ _______ _____ _____    ______ ____
ROOT
ATOM      1  O   UNL     1      11.696  13.355  20.671  0.00  0.00    -0.276 OA
ATOM      5  N   UNL     1      13.328  12.152  21.789  0.00  0.00    -0.288 N 
ATOM     11  C   UNL     1      15.077  10.718  21.075  0.00  0.00    +0.105 C 
ATOM     12  C   UNL     1      13.748  11.344  20.649  0.00  0.00    +0.182 C 
ATOM     13  C   UNL     1      14.963  10.645  22.600  0.00  0.00    +0.043 C 
ATOM     14  C   UNL     1      14.150  11.881  22.964  0.00  0.00    +0.110 C 
ATOM     16  C   UNL     1      12.374  13.152  21.681  0.00  0.00    +0.217 C 
ENDROOT
BRANCH  11   6
ATOM      3  O   UNL     1      17.806   9.880  20.734  0.00  0.00    -0.253 OA
ATOM      6  N   UNL     1      16.191  11.544  20.671  0.00  0.00    -0.294 N 
ATOM      7  N   UNL     1      18.367  12.051  20.132  0.00  0.00    -0.297 N 
ATOM     25  C   UNL     1      17.484  11.050  20.530  0.00  0.00    +0.300 C 
ATOM     40  H   UNL     1      16.038  12.540  20.548  0.00  0.00    +0.151 HD
ATOM     41  H   UNL     1      18.010  12.999  20.061  0.00  0.00    +0.151 HD
BRANCH   7  15
ATOM     15  C   UNL     1      19.777  11.820  19.909  0.00  0.00    +0.074 C 
ATOM     18  C   UNL     1      20.593  12.136  21.168  0.00  0.00    +0.022 C 
ATOM     19  C   UNL     1      20.283  12.621  18.705  0.00  0.00    +0.022 C 
ATOM     22  C   UNL     1      20.674  13.636  21.450  0.00  0.00    +0.002 C 
ATOM     23  C   UNL     1      20.364  14.119  18.991  0.00  0.00    +0.002 C 
ATOM     24  C   UNL     1      21.189  14.410  20.241  0.00  0.00    +0.000 C 
ENDBRANCH   7  15
ENDBRANCH  11   6
BRANCH  12  17
ATOM      2  O   UNL     1      11.680  10.262  21.151  0.00  0.00    -0.274 OA
ATOM      8  N   UNL     1      13.006   9.417  19.435  0.00  0.00    -0.302 N 
ATOM     17  C   UNL     1      12.689  10.301  20.452  0.00  0.00    +0.236 C 
ATOM     42  H   UNL     1      13.820   9.607  18.860  0.00  0.00    +0.150 HD
BRANCH   8  26
ATOM     26  C   UNL     1      12.161   8.306  19.061  0.00  0.00    +0.163 C 
BRANCH  26  31
ATOM      4  O   UNL     1      10.852   7.880  17.058  0.00  0.00    -0.274 OA
ATOM      9  N   UNL     1      12.335   9.633  17.049  0.00  0.00    -0.328 N 
ATOM     31  C   UNL     1      11.712   8.548  17.627  0.00  0.00    +0.231 C 
ATOM     44  H   UNL     1      12.117   9.914  16.098  0.00  0.00    +0.145 HD
ATOM     45  H   UNL     1      13.028  10.190  17.539  0.00  0.00    +0.145 HD
ENDBRANCH  26  31
BRANCH  26  30
ATOM     30  C   UNL     1      12.887   6.960  19.175  0.00  0.00    +0.069 C 
BRANCH  30  32
ATOM     10  N   UNL     1      14.953   7.116  22.213  0.00  0.00    -0.360 N 
ATOM     32  C   UNL     1      13.946   6.950  20.241  0.00  0.00    -0.020 A 
ATOM     33  C   UNL     1      15.326   6.654  20.062  0.00  0.00    +0.003 A 
ATOM     34  C   UNL     1      13.747   7.230  21.574  0.00  0.00    +0.087 A 
ATOM     35  C   UNL     1      15.934   6.765  21.314  0.00  0.00    +0.047 A 
ATOM     36  C   UNL     1      16.119   6.300  18.952  0.00  0.00    +0.010 A 
ATOM     37  C   UNL     1      17.301   6.538  21.512  0.00  0.00    +0.026 A 
ATOM     38  C   UNL     1      17.487   6.071  19.135  0.00  0.00    +0.001 A 
ATOM     39  C   UNL     1      18.067   6.190  20.396  0.00  0.00    +0.002 A 
ATOM     43  H   UNL     1      15.101   7.267  23.201  0.00  0.00    +0.165 HD
ENDBRANCH  30  32
ENDBRANCH  26  30
ENDBRANCH   8  26
ENDBRANCH  12  17
BRANCH  16  20
ATOM     20  C   UNL     1      12.188  14.010  22.907  0.00  0.00    +0.102 C 
BRANCH  20  21
ATOM     21  C   UNL     1      10.851  13.747  23.623  0.00  0.00    -0.029 C 
ATOM     27  C   UNL     1      10.926  14.396  25.018  0.00  0.00    +0.011 C 
ATOM     28  C   UNL     1       9.677  14.373  22.853  0.00  0.00    +0.011 C 
ATOM     29  C   UNL     1      10.602  12.239  23.797  0.00  0.00    +0.011 C 
ENDBRANCH  20  21
ENDBRANCH  16  20
TORSDOF 9
ENDMDL
MODEL 3
REMARK VINA RESULT:      -7.3     25.529     29.341
REMARK  Name = 11882114
REMARK  12 active torsions:
REMARK  status: ('A' for Active; 'I' for Inactive)
REMARK    1  A    between atoms: N_6  and  C_11
REMARK    2  A    between atoms: N_7  and  C_15
REMARK    3  A    between atoms: N_8  and  C_26
REMARK    4  A    between atoms: C_12  and  C_17
REMARK    5  A    between atoms: C_16  and  C_20
REMARK    6  A    between atoms: C_20  and  C_21
REMARK    7  A    between atoms: C_21  and  C_27
REMARK    8  A    between atoms: C_21  and  C_28
REMARK    9  A    between atoms: C_21  and  C_29
REMARK   10  A    between atoms: C_26  and  C_30
REMARK   11  A    between atoms: C_26  and  C_31
REMARK   12  A    between atoms: C_30  and  C_32
REMARK                            x       y       z     vdW  Elec       q    Type
REMARK                         _______ _______ _______ _____ _____    ______ ____
ROOT
ATOM      1  O   UNL     1      13.724   3.845   1.417  0.00  0.00    -0.276 OA
ATOM      5  N   UNL     1      14.664   5.886   0.859  0.00  0.00    -0.288 N 
ATOM     11  C   UNL     1      15.470   7.716   2.134  0.00  0.00    +0.105 C 
ATOM     12  C   UNL     1      14.570   6.480   2.188  0.00  0.00    +0.182 C 
ATOM     13  C   UNL     1      15.441   8.113   0.656  0.00  0.00    +0.043 C 
ATOM     14  C   UNL     1      15.338   6.781  -0.077  0.00  0.00    +0.110 C 
ATOM     16  C   UNL     1      14.293   4.575   0.602  0.00  0.00    +0.217 C 
ENDROOT
BRANCH  11   6
ATOM      3  O   UNL     1      17.522   9.584   2.883  0.00  0.00    -0.253 OA
ATOM      6  N   UNL     1      16.811   7.399   2.566  0.00  0.00    -0.294 N 
ATOM      7  N   UNL     1      18.954   7.803   3.292  0.00  0.00    -0.297 N 
ATOM     25  C   UNL     1      17.742   8.374   2.912  0.00  0.00    +0.300 C 
ATOM     40  H   UNL     1      17.109   6.429   2.555  0.00  0.00    +0.151 HD
ATOM     41  H   UNL     1      19.051   6.796   3.210  0.00  0.00    +0.151 HD
BRANCH   7  15
ATOM     15  C   UNL     1      20.102   8.581   3.701  0.00  0.00    +0.074 C 
ATOM     18  C   UNL     1      21.362   7.711   3.767  0.00  0.00    +0.022 C 
ATOM     19  C   UNL     1      19.843   9.284   5.038  0.00  0.00    +0.022 C 
ATOM     22  C   UNL     1      21.342   6.741   4.947  0.00  0.00    +0.002 C 
ATOM     23  C   UNL     1      19.826   8.311   6.216  0.00  0.00    +0.002 C 
ATOM     24  C   UNL     1      21.094   7.465   6.267  0.00  0.00    +0.000 C 
ENDBRANCH   7  15
ENDBRANCH  11   6
BRANCH  12  17
ATOM      2  O   UNL     1      12.709   7.973   2.100  0.00  0.00    -0.274 OA
ATOM      8  N   UNL     1      12.392   5.824   2.936  0.00  0.00    -0.302 N 
ATOM     17  C   UNL     1      13.132   6.856   2.387  0.00  0.00    +0.236 C 
ATOM     42  H   UNL     1      12.826   4.912   3.039  0.00  0.00    +0.150 HD
BRANCH   8  26
ATOM     26  C   UNL     1      10.985   5.938   3.246  0.00  0.00    +0.163 C 
BRANCH  26  31
ATOM      4  O   UNL     1       9.540   6.315   1.329  0.00  0.00    -0.274 OA
ATOM      9  N   UNL     1      10.401   4.212   1.659  0.00  0.00    -0.328 N 
ATOM     31  C   UNL     1      10.216   5.536   1.996  0.00  0.00    +0.231 C 
ATOM     44  H   UNL     1       9.955   3.817   0.837  0.00  0.00    +0.145 HD
ATOM     45  H   UNL     1      10.981   3.585   2.207  0.00  0.00    +0.145 HD
ENDBRANCH  26  31
BRANCH  26  30
ATOM     30  C   UNL     1      10.579   5.055   4.433  0.00  0.00    +0.069 C 
BRANCH  30  32
ATOM     10  N   UNL     1       9.329   7.521   6.856  0.00  0.00    -0.360 N 
ATOM     32  C   UNL     1      10.067   5.842   5.605  0.00  0.00    -0.020 A 
ATOM     33  C   UNL     1       9.814   5.344   6.914  0.00  0.00    +0.003 A 
ATOM     34  C   UNL     1       9.760   7.184   5.601  0.00  0.00    +0.087 A 
ATOM     35  C   UNL     1       9.351   6.418   7.678  0.00  0.00    +0.047 A 
ATOM     36  C   UNL     1       9.933   4.080   7.524  0.00  0.00    +0.010 A 
ATOM     37  C   UNL     1       9.001   6.289   9.027  0.00  0.00    +0.026 A 
ATOM     38  C   UNL     1       9.586   3.936   8.873  0.00  0.00    +0.001 A 
ATOM     39  C   UNL     1       9.128   5.025   9.611  0.00  0.00    +0.002 A 
ATOM     43  H   UNL     1       9.036   8.447   7.138  0.00  0.00    +0.165 HD
ENDBRANCH  30  32
ENDBRANCH  26  30
ENDBRANCH   8  26
ENDBRANCH  12  17
BRANCH  16  20
ATOM     20  C   UNL     1      14.622   4.064  -0.778  0.00  0.00    +0.102 C 
BRANCH  20  21
ATOM     21  C   UNL     1      13.404   4.065  -1.721  0.00  0.00    -0.029 C 
ATOM     27  C   UNL     1      13.910   4.365  -3.144  0.00  0.00    +0.011 C 
ATOM     28  C   UNL     1      12.708   2.694  -1.727  0.00  0.00    +0.011 C 
ATOM     29  C   UNL     1      12.393   5.151  -1.320  0.00  0.00    +0.011 C 
ENDBRANCH  20  21
ENDBRANCH  16  20
TORSDOF 9
ENDMDL
MODEL 4
REMARK VINA RESULT:      -7.3     24.516     28.179
REMARK  Name = 11882114
REMARK  12 active torsions:
REMARK  status: ('A' for Active; 'I' for Inactive)
REMARK    1  A    between atoms: N_6  and  C_11
REMARK    2  A    between atoms: N_7  and  C_15
REMARK    3  A    between atoms: N_8  and  C_26
REMARK    4  A    between atoms: C_12  and  C_17
REMARK    5  A    between atoms: C_16  and  C_20
REMARK    6  A    between atoms: C_20  and  C_21
REMARK    7  A    between atoms: C_21  and  C_27
REMARK    8  A    between atoms: C_21  and  C_28
REMARK    9  A    between atoms: C_21  and  C_29
REMARK   10  A    between atoms: C_26  and  C_30
REMARK   11  A    between atoms: C_26  and  C_31
REMARK   12  A    between atoms: C_30  and  C_32
REMARK                            x       y       z     vdW  Elec       q    Type
REMARK                         _______ _______ _______ _____ _____    ______ ____
ROOT
ATOM      1  O   UNL     1      11.293   3.588   3.243  0.00  0.00    -0.276 OA
ATOM      5  N   UNL     1      11.433   5.895   3.106  0.00  0.00    -0.288 N 
ATOM     11  C   UNL     1      12.113   7.582   4.628  0.00  0.00    +0.105 C 
ATOM     12  C   UNL     1      11.634   6.132   4.532  0.00  0.00    +0.182 C 
ATOM     13  C   UNL     1      11.494   8.243   3.394  0.00  0.00    +0.043 C 
ATOM     14  C   UNL     1      11.503   7.138   2.345  0.00  0.00    +0.110 C 
ATOM     16  C   UNL     1      11.350   4.619   2.570  0.00  0.00    +0.217 C 
ENDROOT
BRANCH  11   6
ATOM      3  O   UNL     1      13.772   9.486   6.002  0.00  0.00    -0.253 OA
ATOM      6  N   UNL     1      13.555   7.654   4.595  0.00  0.00    -0.294 N 
ATOM      7  N   UNL     1      15.647   8.462   5.094  0.00  0.00    -0.297 N 
ATOM     25  C   UNL     1      14.278   8.614   5.296  0.00  0.00    +0.300 C 
ATOM     40  H   UNL     1      14.059   7.020   3.983  0.00  0.00    +0.151 HD
ATOM     41  H   UNL     1      15.955   7.754   4.435  0.00  0.00    +0.151 HD
BRANCH   7  15
ATOM     15  C   UNL     1      16.638   9.324   5.701  0.00  0.00    +0.074 C 
ATOM     18  C   UNL     1      16.874  10.577   4.851  0.00  0.00    +0.022 C 
ATOM     19  C   UNL     1      17.947   8.568   5.951  0.00  0.00    +0.022 C 
ATOM     22  C   UNL     1      17.634  10.272   3.560  0.00  0.00    +0.002 C 
ATOM     23  C   UNL     1      18.704   8.267   4.659  0.00  0.00    +0.002 C 
ATOM     24  C   UNL     1      18.937   9.529   3.836  0.00  0.00    +0.000 C 
ENDBRANCH   7  15
ENDBRANCH  11   6
BRANCH  12  17
ATOM      2  O   UNL     1       9.278   5.743   4.535  0.00  0.00    -0.274 OA
ATOM      8  N   UNL     1      10.370   6.070   6.565  0.00  0.00    -0.302 N 
ATOM     17  C   UNL     1      10.298   5.951   5.188  0.00  0.00    +0.236 C 
ATOM     42  H   UNL     1      11.283   6.144   7.002  0.00  0.00    +0.150 HD
BRANCH   8  26
ATOM     26  C   UNL     1       9.217   5.959   7.429  0.00  0.00    +0.163 C 
BRANCH  26  31
ATOM      4  O   UNL     1       9.009   4.854   9.583  0.00  0.00    -0.274 OA
ATOM      9  N   UNL     1      10.467   3.983   8.038  0.00  0.00    -0.328 N 
ATOM     31  C   UNL     1       9.543   4.906   8.478  0.00  0.00    +0.231 C 
ATOM     44  H   UNL     1      10.764   3.217   8.635  0.00  0.00    +0.145 HD
ATOM     45  H   UNL     1      10.884   4.026   7.113  0.00  0.00    +0.145 HD
ENDBRANCH  26  31
BRANCH  26  30
ATOM     30  C   UNL     1       8.864   7.293   8.100  0.00  0.00    +0.069 C 
BRANCH  30  32
ATOM     10  N   UNL     1      10.785  10.175   6.867  0.00  0.00    -0.360 N 
ATOM     32  C   UNL     1       9.449   8.482   7.392  0.00  0.00    -0.020 A 
ATOM     33  C   UNL     1       8.930   9.114   6.227  0.00  0.00    +0.003 A 
ATOM     34  C   UNL     1      10.590   9.156   7.762  0.00  0.00    +0.087 A 
ATOM     35  C   UNL     1       9.788  10.172   5.919  0.00  0.00    +0.047 A 
ATOM     36  C   UNL     1       7.811   8.887   5.402  0.00  0.00    +0.010 A 
ATOM     37  C   UNL     1       9.581  11.017   4.823  0.00  0.00    +0.026 A 
ATOM     38  C   UNL     1       7.591   9.724   4.303  0.00  0.00    +0.001 A 
ATOM     39  C   UNL     1       8.463  10.772   4.020  0.00  0.00    +0.002 A 
ATOM     43  H   UNL     1      11.552  10.832   6.898  0.00  0.00    +0.165 HD
ENDBRANCH  30  32
ENDBRANCH  26  30
ENDBRANCH   8  26
ENDBRANCH  12  17
BRANCH  16  20
ATOM     20  C   UNL     1      11.324   4.548   1.063  0.00  0.00    +0.102 C 
BRANCH  20  21
ATOM     21  C   UNL     1      12.698   4.202   0.458  0.00  0.00    -0.029 C 
ATOM     27  C   UNL     1      12.472   3.180  -0.671  0.00  0.00    +0.011 C 
ATOM     28  C   UNL     1      13.371   5.450  -0.137  0.00  0.00    +0.011 C 
ATOM     29  C   UNL     1      13.625   3.574   1.512  0.00  0.00    +0.011 C 
ENDBRANCH  20  21
ENDBRANCH  16  20
TORSDOF 9
ENDMDL
MODEL 5
REMARK VINA RESULT:      -7.3     27.416     31.218
REMARK  Name = 11882114
REMARK  12 active torsions:
REMARK  status: ('A' for Active; 'I' for Inactive)
REMARK    1  A    between atoms: N_6  and  C_11
REMARK    2  A    between atoms: N_7  and  C_15
REMARK    3  A    between atoms: N_8  and  C_26
REMARK    4  A    between atoms: C_12  and  C_17
REMARK    5  A    between atoms: C_16  and  C_20
REMARK    6  A    between atoms: C_20  and  C_21
REMARK    7  A    between atoms: C_21  and  C_27
REMARK    8  A    between atoms: C_21  and  C_28
REMARK    9  A    between atoms: C_21  and  C_29
REMARK   10  A    between atoms: C_26  and  C_30
REMARK   11  A    between atoms: C_26  and  C_31
REMARK   12  A    between atoms: C_30  and  C_32
REMARK                            x       y       z     vdW  Elec       q    Type
REMARK                         _______ _______ _______ _____ _____    ______ ____
ROOT
ATOM      1  O   UNL     1      14.717  13.907  21.598  0.00  0.00    -0.276 OA
ATOM      5  N   UNL     1      14.437  11.688  22.197  0.00  0.00    -0.288 N 
ATOM     11  C   UNL     1      15.264   9.644  21.324  0.00  0.00    +0.105 C 
ATOM     12  C   UNL     1      15.018  11.116  20.987  0.00  0.00    +0.182 C 
ATOM     13  C   UNL     1      14.204   9.341  22.387  0.00  0.00    +0.043 C 
ATOM     14  C   UNL     1      14.075  10.649  23.156  0.00  0.00    +0.110 C 
ATOM     16  C   UNL     1      14.403  13.054  22.431  0.00  0.00    +0.217 C 
ENDROOT
BRANCH  11   6
ATOM      3  O   UNL     1      16.905   7.305  21.007  0.00  0.00    -0.253 OA
ATOM      6  N   UNL     1      16.598   9.448  21.841  0.00  0.00    -0.294 N 
ATOM      7  N   UNL     1      18.575   8.346  22.239  0.00  0.00    -0.297 N 
ATOM     25  C   UNL     1      17.322   8.276  21.637  0.00  0.00    +0.300 C 
ATOM     40  H   UNL     1      17.000  10.167  22.435  0.00  0.00    +0.151 HD
ATOM     41  H   UNL     1      18.790   9.166  22.796  0.00  0.00    +0.151 HD
BRANCH   7  15
ATOM     15  C   UNL     1      19.539   7.269  22.187  0.00  0.00    +0.074 C 
ATOM     18  C   UNL     1      20.376   7.216  23.471  0.00  0.00    +0.022 C 
ATOM     19  C   UNL     1      20.431   7.387  20.948  0.00  0.00    +0.022 C 
ATOM     22  C   UNL     1      21.369   8.373  23.568  0.00  0.00    +0.002 C 
ATOM     23  C   UNL     1      21.424   8.543  21.050  0.00  0.00    +0.002 C 
ATOM     24  C   UNL     1      22.252   8.463  22.328  0.00  0.00    +0.000 C 
ENDBRANCH   7  15
ENDBRANCH  11   6
BRANCH  12  17
ATOM      2  O   UNL     1      12.920  11.839  20.105  0.00  0.00    -0.274 OA
ATOM      8  N   UNL     1      14.385  10.676  18.720  0.00  0.00    -0.302 N 
ATOM     17  C   UNL     1      13.989  11.267  19.907  0.00  0.00    +0.236 C 
ATOM     42  H   UNL     1      15.332  10.319  18.644  0.00  0.00    +0.150 HD
BRANCH   8  26
ATOM     26  C   UNL     1      13.563  10.663  17.531  0.00  0.00    +0.163 C 
BRANCH  26  31
ATOM      4  O   UNL     1      15.270  10.777  15.805  0.00  0.00    -0.274 OA
ATOM      9  N   UNL     1      13.935  12.613  16.153  0.00  0.00    -0.328 N 
ATOM     31  C   UNL     1      14.366  11.332  16.424  0.00  0.00    +0.231 C 
ATOM     44  H   UNL     1      14.377  13.168  15.426  0.00  0.00    +0.145 HD
ATOM     45  H   UNL     1      13.171  13.051  16.658  0.00  0.00    +0.145 HD
ENDBRANCH  26  31
BRANCH  26  30
ATOM     30  C   UNL     1      13.163   9.241  17.118  0.00  0.00    +0.069 C 
BRANCH  30  32
ATOM     10  N   UNL     1      14.155   6.615  19.493  0.00  0.00    -0.360 N 
ATOM     32  C   UNL     1      13.327   8.238  18.224  0.00  0.00    -0.020 A 
ATOM     33  C   UNL     1      12.434   8.022  19.311  0.00  0.00    +0.003 A 
ATOM     34  C   UNL     1      14.375   7.358  18.363  0.00  0.00    +0.087 A 
ATOM     35  C   UNL     1      12.978   7.000  20.091  0.00  0.00    +0.047 A 
ATOM     36  C   UNL     1      11.212   8.601  19.708  0.00  0.00    +0.010 A 
ATOM     37  C   UNL     1      12.358   6.526  21.254  0.00  0.00    +0.026 A 
ATOM     38  C   UNL     1      10.580   8.137  20.867  0.00  0.00    +0.001 A 
ATOM     39  C   UNL     1      11.147   7.114  21.626  0.00  0.00    +0.002 A 
ATOM     43  H   UNL     1      14.770   5.891  19.837  0.00  0.00    +0.165 HD
ENDBRANCH  30  32
ENDBRANCH  26  30
ENDBRANCH   8  26
ENDBRANCH  12  17
BRANCH  16  20
ATOM     20  C   UNL     1      13.936  13.468  23.804  0.00  0.00    +0.102 C 
BRANCH  20  21
ATOM     21  C   UNL     1      12.516  14.065  23.797  0.00  0.00    -0.029 C 
ATOM     27  C   UNL     1      11.910  13.857  25.198  0.00  0.00    +0.011 C 
ATOM     28  C   UNL     1      12.551  15.573  23.496  0.00  0.00    +0.011 C 
ATOM     29  C   UNL     1      11.622  13.358  22.765  0.00  0.00    +0.011 C 
ENDBRANCH  20  21
ENDBRANCH  16  20
TORSDOF 9
ENDMDL
MODEL 6
REMARK VINA RESULT:      -7.2     28.555     32.657
REMARK  Name = 11882114
REMARK  12 active torsions:
REMARK  status: ('A' for Active; 'I' for Inactive)
REMARK    1  A    between atoms: N_6  and  C_11
REMARK    2  A    between atoms: N_7  and  C_15
REMARK    3  A    between atoms: N_8  and  C_26
REMARK    4  A    between atoms: C_12  and  C_17
REMARK    5  A    between atoms: C_16  and  C_20
REMARK    6  A    between atoms: C_20  and  C_21
REMARK    7  A    between atoms: C_21  and  C_27
REMARK    8  A    between atoms: C_21  and  C_28
REMARK    9  A    between atoms: C_21  and  C_29
REMARK   10  A    between atoms: C_26  and  C_30
REMARK   11  A    between atoms: C_26  and  C_31
REMARK   12  A    between atoms: C_30  and  C_32
REMARK                            x       y       z     vdW  Elec       q    Type
REMARK                         _______ _______ _______ _____ _____    ______ ____
ROOT
ATOM      1  O   UNL     1      20.668   4.481  20.688  0.00  0.00    -0.276 OA
ATOM      5  N   UNL     1      21.316   6.356  21.881  0.00  0.00    -0.288 N 
ATOM     11  C   UNL     1      20.343   7.568  23.672  0.00  0.00    +0.105 C 
ATOM     12  C   UNL     1      20.037   6.577  22.547  0.00  0.00    +0.182 C 
ATOM     13  C   UNL     1      21.552   8.344  23.143  0.00  0.00    +0.043 C 
ATOM     14  C   UNL     1      22.324   7.309  22.335  0.00  0.00    +0.110 C 
ATOM     16  C   UNL     1      21.544   5.268  21.052  0.00  0.00    +0.217 C 
ENDROOT
BRANCH  11   6
ATOM      3  O   UNL     1      20.108   8.608  26.341  0.00  0.00    -0.253 OA
ATOM      6  N   UNL     1      20.659   6.877  24.899  0.00  0.00    -0.294 N 
ATOM      7  N   UNL     1      20.885   6.583  27.167  0.00  0.00    -0.297 N 
ATOM     25  C   UNL     1      20.513   7.462  26.154  0.00  0.00    +0.300 C 
ATOM     40  H   UNL     1      21.067   5.949  24.843  0.00  0.00    +0.151 HD
ATOM     41  H   UNL     1      21.273   5.684  26.899  0.00  0.00    +0.151 HD
BRANCH   7  15
ATOM     15  C   UNL     1      20.835   6.926  28.571  0.00  0.00    +0.074 C 
ATOM     18  C   UNL     1      22.143   7.585  29.025  0.00  0.00    +0.022 C 
ATOM     19  C   UNL     1      20.506   5.699  29.427  0.00  0.00    +0.022 C 
ATOM     22  C   UNL     1      23.302   6.592  29.100  0.00  0.00    +0.002 C 
ATOM     23  C   UNL     1      21.667   4.709  29.502  0.00  0.00    +0.002 C 
ATOM     24  C   UNL     1      22.954   5.385  29.966  0.00  0.00    +0.000 C 
ENDBRANCH   7  15
ENDBRANCH  11   6
BRANCH  12  17
ATOM      2  O   UNL     1      19.252   8.332  21.131  0.00  0.00    -0.274 OA
ATOM      8  N   UNL     1      18.136   6.290  21.119  0.00  0.00    -0.302 N 
ATOM     17  C   UNL     1      19.120   7.176  21.523  0.00  0.00    +0.236 C 
ATOM     42  H   UNL     1      18.185   5.327  21.437  0.00  0.00    +0.150 HD
BRANCH   8  26
ATOM     26  C   UNL     1      17.113   6.629  20.156  0.00  0.00    +0.163 C 
BRANCH  26  31
ATOM      4  O   UNL     1      16.534   5.655  18.006  0.00  0.00    -0.274 OA
ATOM      9  N   UNL     1      18.519   5.049  18.988  0.00  0.00    -0.328 N 
ATOM     31  C   UNL     1      17.323   5.731  18.945  0.00  0.00    +0.231 C 
ATOM     44  H   UNL     1      18.790   4.424  18.235  0.00  0.00    +0.145 HD
ATOM     45  H   UNL     1      19.172   5.138  19.761  0.00  0.00    +0.145 HD
ENDBRANCH  26  31
BRANCH  26  30
ATOM     30  C   UNL     1      15.699   6.446  20.722  0.00  0.00    +0.069 C 
BRANCH  30  32
ATOM     10  N   UNL     1      13.940   9.386  19.389  0.00  0.00    -0.360 N 
ATOM     32  C   UNL     1      14.749   7.529  20.298  0.00  0.00    -0.020 A 
ATOM     33  C   UNL     1      13.355   7.590  20.576  0.00  0.00    +0.003 A 
ATOM     34  C   UNL     1      15.080   8.647  19.567  0.00  0.00    +0.087 A 
ATOM     35  C   UNL     1      12.872   8.765  19.994  0.00  0.00    +0.047 A 
ATOM     36  C   UNL     1      12.454   6.757  21.268  0.00  0.00    +0.010 A 
ATOM     37  C   UNL     1      11.528   9.148  20.070  0.00  0.00    +0.026 A 
ATOM     38  C   UNL     1      11.107   7.127  21.352  0.00  0.00    +0.001 A 
ATOM     39  C   UNL     1      10.654   8.305  20.762  0.00  0.00    +0.002 A 
ATOM     43  H   UNL     1      13.891  10.262  18.886  0.00  0.00    +0.165 HD
ENDBRANCH  30  32
ENDBRANCH  26  30
ENDBRANCH   8  26
ENDBRANCH  12  17
BRANCH  16  20
ATOM     20  C   UNL     1      22.968   5.089  20.590  0.00  0.00    +0.102 C 
BRANCH  20  21
ATOM     21  C   UNL     1      23.729   4.024  21.402  0.00  0.00    -0.029 C 
ATOM     27  C   UNL     1      22.818   3.571  22.557  0.00  0.00    +0.011 C 
ATOM     28  C   UNL     1      24.066   2.801  20.533  0.00  0.00    +0.011 C 
ATOM     29  C   UNL     1      25.025   4.601  21.996  0.00  0.00    +0.011 C 
ENDBRANCH  20  21
ENDBRANCH  16  20
TORSDOF 9
ENDMDL
MODEL 7
REMARK VINA RESULT:      -7.2     26.683     30.167
REMARK  Name = 11882114
REMARK  12 active torsions:
REMARK  status: ('A' for Active; 'I' for Inactive)
REMARK    1  A    between atoms: N_6  and  C_11
REMARK    2  A    between atoms: N_7  and  C_15
REMARK    3  A    between atoms: N_8  and  C_26
REMARK    4  A    between atoms: C_12  and  C_17
REMARK    5  A    between atoms: C_16  and  C_20
REMARK    6  A    between atoms: C_20  and  C_21
REMARK    7  A    between atoms: C_21  and  C_27
REMARK    8  A    between atoms: C_21  and  C_28
REMARK    9  A    between atoms: C_21  and  C_29
REMARK   10  A    between atoms: C_26  and  C_30
REMARK   11  A    between atoms: C_26  and  C_31
REMARK   12  A    between atoms: C_30  and  C_32
REMARK                            x       y       z     vdW  Elec       q    Type
REMARK                         _______ _______ _______ _____ _____    ______ ____
ROOT
ATOM      1  O   UNL     1      10.854  12.345  21.993  0.00  0.00    -0.276 OA
ATOM      5  N   UNL     1      12.954  12.649  21.067  0.00  0.00    -0.288 N 
ATOM     11  C   UNL     1      14.030  11.782  19.140  0.00  0.00    +0.105 C 
ATOM     12  C   UNL     1      12.876  11.545  20.116  0.00  0.00    +0.182 C 
ATOM     13  C   UNL     1      15.053  12.553  19.978  0.00  0.00    +0.043 C 
ATOM     14  C   UNL     1      14.196  13.400  20.911  0.00  0.00    +0.110 C 
ATOM     16  C   UNL     1      11.891  13.002  21.885  0.00  0.00    +0.217 C 
ENDROOT
BRANCH  11   6
ATOM      3  O   UNL     1      15.286  11.902  16.557  0.00  0.00    -0.253 OA
ATOM      6  N   UNL     1      13.593  12.557  18.002  0.00  0.00    -0.294 N 
ATOM      7  N   UNL     1      13.639  13.382  15.857  0.00  0.00    -0.297 N 
ATOM     25  C   UNL     1      14.266  12.553  16.783  0.00  0.00    +0.300 C 
ATOM     40  H   UNL     1      12.800  13.182  18.114  0.00  0.00    +0.151 HD
ATOM     41  H   UNL     1      12.844  13.930  16.171  0.00  0.00    +0.151 HD
BRANCH   7  15
ATOM     15  C   UNL     1      14.123  13.570  14.507  0.00  0.00    +0.074 C 
ATOM     18  C   UNL     1      13.584  14.873  13.905  0.00  0.00    +0.022 C 
ATOM     19  C   UNL     1      13.777  12.366  13.626  0.00  0.00    +0.022 C 
ATOM     22  C   UNL     1      12.094  14.792  13.578  0.00  0.00    +0.002 C 
ATOM     23  C   UNL     1      12.287  12.290  13.298  0.00  0.00    +0.002 C 
ATOM     24  C   UNL     1      11.776  13.592  12.690  0.00  0.00    +0.000 C 
ENDBRANCH   7  15
ENDBRANCH  11   6
BRANCH  12  17
ATOM      2  O   UNL     1      14.132  10.046  21.486  0.00  0.00    -0.274 OA
ATOM      8  N   UNL     1      11.964   9.463  20.871  0.00  0.00    -0.302 N 
ATOM     17  C   UNL     1      13.077  10.287  20.906  0.00  0.00    +0.236 C 
ATOM     42  H   UNL     1      11.113   9.811  20.442  0.00  0.00    +0.150 HD
BRANCH   8  26
ATOM     26  C   UNL     1      11.909   8.180  21.535  0.00  0.00    +0.163 C 
BRANCH  26  31
ATOM      4  O   UNL     1      10.160   9.007  23.005  0.00  0.00    -0.274 OA
ATOM      9  N   UNL     1       9.869   6.968  21.989  0.00  0.00    -0.328 N 
ATOM     31  C   UNL     1      10.580   8.114  22.272  0.00  0.00    +0.231 C 
ATOM     44  H   UNL     1       8.957   6.804  22.405  0.00  0.00    +0.145 HD
ATOM     45  H   UNL     1      10.218   6.249  21.363  0.00  0.00    +0.145 HD
ENDBRANCH  26  31
BRANCH  26  30
ATOM     30  C   UNL     1      12.034   7.012  20.549  0.00  0.00    +0.069 C 
BRANCH  30  32
ATOM     10  N   UNL     1      14.911   7.317  18.280  0.00  0.00    -0.360 N 
ATOM     32  C   UNL     1      13.025   7.271  19.449  0.00  0.00    -0.020 A 
ATOM     33  C   UNL     1      12.770   7.943  18.221  0.00  0.00    +0.003 A 
ATOM     34  C   UNL     1      14.349   6.898  19.457  0.00  0.00    +0.087 A 
ATOM     35  C   UNL     1      13.970   7.957  17.506  0.00  0.00    +0.047 A 
ATOM     36  C   UNL     1      11.631   8.541  17.646  0.00  0.00    +0.010 A 
ATOM     37  C   UNL     1      14.087   8.542  16.240  0.00  0.00    +0.026 A 
ATOM     38  C   UNL     1      11.734   9.130  16.381  0.00  0.00    +0.001 A 
ATOM     39  C   UNL     1      12.944   9.130  15.691  0.00  0.00    +0.002 A 
ATOM     43  H   UNL     1      15.876   7.176  18.017  0.00  0.00    +0.165 HD
ENDBRANCH  30  32
ENDBRANCH  26  30
ENDBRANCH   8  26
ENDBRANCH  12  17
BRANCH  16  20
ATOM     20  C   UNL     1      12.072  14.274  22.675  0.00  0.00    +0.102 C 
BRANCH  20  21
ATOM     21  C   UNL     1      12.227  14.021  24.186  0.00  0.00    -0.029 C 
ATOM     27  C   UNL     1      13.007  15.206  24.785  0.00  0.00    +0.011 C 
ATOM     28  C   UNL     1      10.856  13.935  24.877  0.00  0.00    +0.011 C 
ATOM     29  C   UNL     1      13.016  12.728  24.454  0.00  0.00    +0.011 C 
ENDBRANCH  20  21
ENDBRANCH  16  20
TORSDOF 9
ENDMDL
MODEL 8
REMARK VINA RESULT:      -7.0     28.183     31.785
REMARK  Name = 11882114
REMARK  12 active torsions:
REMARK  status: ('A' for Active; 'I' for Inactive)
REMARK    1  A    between atoms: N_6  and  C_11
REMARK    2  A    between atoms: N_7  and  C_15
REMARK    3  A    between atoms: N_8  and  C_26
REMARK    4  A    between atoms: C_12  and  C_17
REMARK    5  A    between atoms: C_16  and  C_20
REMARK    6  A    between atoms: C_20  and  C_21
REMARK    7  A    between atoms: C_21  and  C_27
REMARK    8  A    between atoms: C_21  and  C_28
REMARK    9  A    between atoms: C_21  and  C_29
REMARK   10  A    between atoms: C_26  and  C_30
REMARK   11  A    between atoms: C_26  and  C_31
REMARK   12  A    between atoms: C_30  and  C_32
REMARK                            x       y       z     vdW  Elec       q    Type
REMARK                         _______ _______ _______ _____ _____    ______ ____
ROOT
ATOM      1  O   UNL     1      14.722   8.322  22.272  0.00  0.00    -0.276 OA
ATOM      5  N   UNL     1      15.721  10.380  21.918  0.00  0.00    -0.288 N 
ATOM     11  C   UNL     1      16.048  12.292  23.281  0.00  0.00    +0.105 C 
ATOM     12  C   UNL     1      15.213  11.020  23.127  0.00  0.00    +0.182 C 
ATOM     13  C   UNL     1      16.452  12.629  21.844  0.00  0.00    +0.043 C 
ATOM     14  C   UNL     1      16.617  11.267  21.183  0.00  0.00    +0.110 C 
ATOM     16  C   UNL     1      15.486   9.044  21.629  0.00  0.00    +0.217 C 
ENDROOT
BRANCH  11   6
ATOM      3  O   UNL     1      16.211  12.591  26.136  0.00  0.00    -0.253 OA
ATOM      6  N   UNL     1      17.206  12.054  24.110  0.00  0.00    -0.294 N 
ATOM      7  N   UNL     1      18.434  11.928  26.049  0.00  0.00    -0.297 N 
ATOM     25  C   UNL     1      17.193  12.224  25.492  0.00  0.00    +0.300 C 
ATOM     40  H   UNL     1      18.085  11.816  23.661  0.00  0.00    +0.151 HD
ATOM     41  H   UNL     1      19.197  11.704  25.418  0.00  0.00    +0.151 HD
BRANCH   7  15
ATOM     15  C   UNL     1      18.708  12.020  27.466  0.00  0.00    +0.074 C 
ATOM     18  C   UNL     1      20.156  12.456  27.720  0.00  0.00    +0.022 C 
ATOM     19  C   UNL     1      18.395  10.698  28.174  0.00  0.00    +0.022 C 
ATOM     22  C   UNL     1      21.164  11.357  27.388  0.00  0.00    +0.002 C 
ATOM     23  C   UNL     1      19.406   9.602  27.842  0.00  0.00    +0.002 C 
ATOM     24  C   UNL     1      20.837  10.055  28.113  0.00  0.00    +0.000 C 
ENDBRANCH   7  15
ENDBRANCH  11   6
BRANCH  12  17
ATOM      2  O   UNL     1      13.429  12.347  22.255  0.00  0.00    -0.274 OA
ATOM      8  N   UNL     1      12.919  10.392  23.411  0.00  0.00    -0.302 N 
ATOM     17  C   UNL     1      13.771  11.338  22.867  0.00  0.00    +0.236 C 
ATOM     42  H   UNL     1      13.318   9.548  23.810  0.00  0.00    +0.150 HD
BRANCH   8  26
ATOM     26  C   UNL     1      11.480  10.479  23.319  0.00  0.00    +0.163 C 
BRANCH  26  31
ATOM      4  O   UNL     1      10.518  12.679  23.691  0.00  0.00    -0.274 OA
ATOM      9  N   UNL     1      11.269  11.487  25.505  0.00  0.00    -0.328 N 
ATOM     31  C   UNL     1      11.049  11.673  24.157  0.00  0.00    +0.231 C 
ATOM     44  H   UNL     1      11.014  12.203  26.178  0.00  0.00    +0.145 HD
ATOM     45  H   UNL     1      11.688  10.641  25.878  0.00  0.00    +0.145 HD
ENDBRANCH  26  31
BRANCH  26  30
ATOM     30  C   UNL     1      10.999  10.638  21.871  0.00  0.00    +0.069 C 
BRANCH  30  32
ATOM     10  N   UNL     1      11.395   7.405  20.167  0.00  0.00    -0.360 N 
ATOM     32  C   UNL     1      11.341   9.460  21.004  0.00  0.00    -0.020 A 
ATOM     33  C   UNL     1      12.232   9.455  19.895  0.00  0.00    +0.003 A 
ATOM     34  C   UNL     1      10.842   8.185  21.146  0.00  0.00    +0.087 A 
ATOM     35  C   UNL     1      12.248   8.153  19.388  0.00  0.00    +0.047 A 
ATOM     36  C   UNL     1      13.030  10.434  19.271  0.00  0.00    +0.010 A 
ATOM     37  C   UNL     1      13.024   7.782  18.284  0.00  0.00    +0.026 A 
ATOM     38  C   UNL     1      13.812  10.078  18.166  0.00  0.00    +0.001 A 
ATOM     39  C   UNL     1      13.807   8.771  17.683  0.00  0.00    +0.002 A 
ATOM     43  H   UNL     1      11.204   6.421  20.034  0.00  0.00    +0.165 HD
ENDBRANCH  30  32
ENDBRANCH  26  30
ENDBRANCH   8  26
ENDBRANCH  12  17
BRANCH  16  20
ATOM     20  C   UNL     1      16.231   8.495  20.438  0.00  0.00    +0.102 C 
BRANCH  20  21
ATOM     21  C   UNL     1      16.407   6.966  20.498  0.00  0.00    -0.029 C 
ATOM     27  C   UNL     1      16.775   6.478  19.084  0.00  0.00    +0.011 C 
ATOM     28  C   UNL     1      17.540   6.577  21.462  0.00  0.00    +0.011 C 
ATOM     29  C   UNL     1      15.105   6.274  20.933  0.00  0.00    +0.011 C 
ENDBRANCH  20  21
ENDBRANCH  16  20
TORSDOF 9
ENDMDL
MODEL 9
REMARK VINA RESULT:      -7.0      1.999      2.784
REMARK  Name = 11882114
REMARK  12 active torsions:
REMARK  status: ('A' for Active; 'I' for Inactive)
REMARK    1  A    between atoms: N_6  and  C_11
REMARK    2  A    between atoms: N_7  and  C_15
REMARK    3  A    between atoms: N_8  and  C_26
REMARK    4  A    between atoms: C_12  and  C_17
REMARK    5  A    between atoms: C_16  and  C_20
REMARK    6  A    between atoms: C_20  and  C_21
REMARK    7  A    between atoms: C_21  and  C_27
REMARK    8  A    between atoms: C_21  and  C_28
REMARK    9  A    between atoms: C_21  and  C_29
REMARK   10  A    between atoms: C_26  and  C_30
REMARK   11  A    between atoms: C_26  and  C_31
REMARK   12  A    between atoms: C_30  and  C_32
REMARK                            x       y       z     vdW  Elec       q    Type
REMARK                         _______ _______ _______ _____ _____    ______ ____
ROOT
ATOM      1  O   UNL     1      -4.709  -9.859  12.485  0.00  0.00    -0.276 OA
ATOM      5  N   UNL     1      -6.697 -11.044  12.463  0.00  0.00    -0.288 N 
ATOM     11  C   UNL     1      -8.632 -11.012  13.835  0.00  0.00    +0.105 C 
ATOM     12  C   UNL     1      -7.152 -10.626  13.786  0.00  0.00    +0.182 C 
ATOM     13  C   UNL     1      -8.722 -12.199  12.873  0.00  0.00    +0.043 C 
ATOM     14  C   UNL     1      -7.695 -11.874  11.795  0.00  0.00    +0.110 C 
ATOM     16  C   UNL     1      -5.531 -10.559  11.891  0.00  0.00    +0.217 C 
ENDROOT
BRANCH  11   6
ATOM      3  O   UNL     1     -11.215 -10.299  14.875  0.00  0.00    -0.253 OA
ATOM      6  N   UNL     1      -9.466  -9.917  13.399  0.00  0.00    -0.294 N 
ATOM      7  N   UNL     1     -11.306  -8.540  13.363  0.00  0.00    -0.297 N 
ATOM     25  C   UNL     1     -10.710  -9.645  13.964  0.00  0.00    +0.300 C 
ATOM     40  H   UNL     1      -9.165  -9.363  12.604  0.00  0.00    +0.151 HD
ATOM     41  H   UNL     1     -10.833  -8.117  12.571  0.00  0.00    +0.151 HD
BRANCH   7  15
ATOM     15  C   UNL     1     -12.603  -8.031  13.752  0.00  0.00    +0.074 C 
ATOM     18  C   UNL     1     -13.249  -7.239  12.609  0.00  0.00    +0.022 C 
ATOM     19  C   UNL     1     -12.505  -7.188  15.027  0.00  0.00    +0.022 C 
ATOM     22  C   UNL     1     -12.565  -5.893  12.373  0.00  0.00    +0.002 C 
ATOM     23  C   UNL     1     -11.823  -5.842  14.787  0.00  0.00    +0.002 C 
ATOM     24  C   UNL     1     -12.489  -5.067  13.654  0.00  0.00    +0.000 C 
ENDBRANCH   7  15
ENDBRANCH  11   6
BRANCH  12  17
ATOM      2  O   UNL     1      -6.555 -12.601  14.988  0.00  0.00    -0.274 OA
ATOM      8  N   UNL     1      -5.400 -10.626  15.418  0.00  0.00    -0.302 N 
ATOM     17  C   UNL     1      -6.348 -11.408  14.781  0.00  0.00    +0.236 C 
ATOM     42  H   UNL     1      -5.252  -9.676  15.094  0.00  0.00    +0.150 HD
BRANCH   8  26
ATOM     26  C   UNL     1      -4.510 -11.136  16.437  0.00  0.00    +0.163 C 
BRANCH  26  31
ATOM      4  O   UNL     1      -2.104 -10.950  16.717  0.00  0.00    -0.274 OA
ATOM      9  N   UNL     1      -3.024 -10.357  14.699  0.00  0.00    -0.328 N 
ATOM     31  C   UNL     1      -3.092 -10.800  16.002  0.00  0.00    +0.231 C 
ATOM     44  H   UNL     1      -2.134 -10.111  14.277  0.00  0.00    +0.145 HD
ATOM     45  H   UNL     1      -3.847 -10.258  14.112  0.00  0.00    +0.145 HD
ENDBRANCH  26  31
BRANCH  26  30
ATOM     30  C   UNL     1      -4.805 -10.534  17.817  0.00  0.00    +0.069 C 
BRANCH  30  32
ATOM     10  N   UNL     1      -7.702 -12.074  19.476  0.00  0.00    -0.360 N 
ATOM     32  C   UNL     1      -6.137 -10.953  18.371  0.00  0.00    -0.020 A 
ATOM     33  C   UNL     1      -7.388 -10.314  18.142  0.00  0.00    +0.003 A 
ATOM     34  C   UNL     1      -6.362 -12.032  19.194  0.00  0.00    +0.087 A 
ATOM     35  C   UNL     1      -8.352 -11.037  18.847  0.00  0.00    +0.047 A 
ATOM     36  C   UNL     1      -7.794  -9.186  17.401  0.00  0.00    +0.010 A 
ATOM     37  C   UNL     1      -9.707 -10.687  18.848  0.00  0.00    +0.026 A 
ATOM     38  C   UNL     1      -9.145  -8.824  17.393  0.00  0.00    +0.001 A 
ATOM     39  C   UNL     1     -10.086  -9.565  18.105  0.00  0.00    +0.002 A 
ATOM     43  H   UNL     1      -8.149 -12.767  20.061  0.00  0.00    +0.165 HD
ENDBRANCH  30  32
ENDBRANCH  26  30
ENDBRANCH   8  26
ENDBRANCH  12  17
BRANCH  16  20
ATOM     20  C   UNL     1      -5.301 -10.950  10.453  0.00  0.00    +0.102 C 
BRANCH  20  21
ATOM     21  C   UNL     1      -5.503  -9.777   9.476  0.00  0.00    -0.029 C 
ATOM     27  C   UNL     1      -5.996 -10.357   8.137  0.00  0.00    +0.011 C 
ATOM     28  C   UNL     1      -6.560  -8.792  10.003  0.00  0.00    +0.011 C 
ATOM     29  C   UNL     1      -4.183  -9.027   9.230  0.00  0.00    +0.011 C 
ENDBRANCH  20  21
ENDBRANCH  16  20
TORSDOF 9
ENDMDL
MODEL 10
REMARK VINA RESULT:      -6.9      2.738      6.365
REMARK  Name = 11882114
REMARK  12 active torsions:
REMARK  status: ('A' for Active; 'I' for Inactive)
REMARK    1  A    between atoms: N_6  and  C_11
REMARK    2  A    between atoms: N_7  and  C_15
REMARK    3  A    between atoms: N_8  and  C_26
REMARK    4  A    between atoms: C_12  and  C_17
REMARK    5  A    between atoms: C_16  and  C_20
REMARK    6  A    between atoms: C_20  and  C_21
REMARK    7  A    between atoms: C_21  and  C_27
REMARK    8  A    between atoms: C_21  and  C_28
REMARK    9  A    between atoms: C_21  and  C_29
REMARK   10  A    between atoms: C_26  and  C_30
REMARK   11  A    between atoms: C_26  and  C_31
REMARK   12  A    between atoms: C_30  and  C_32
REMARK                            x       y       z     vdW  Elec       q    Type
REMARK                         _______ _______ _______ _____ _____    ______ ____
ROOT
ATOM      1  O   UNL     1      -5.618 -13.925  14.253  0.00  0.00    -0.276 OA
ATOM      5  N   UNL     1      -5.218 -12.844  16.261  0.00  0.00    -0.288 N 
ATOM     11  C   UNL     1      -6.006 -10.818  17.210  0.00  0.00    +0.105 C 
ATOM     12  C   UNL     1      -5.837 -11.575  15.892  0.00  0.00    +0.182 C 
ATOM     13  C   UNL     1      -4.881 -11.375  18.086  0.00  0.00    +0.043 C 
ATOM     14  C   UNL     1      -4.764 -12.830  17.648  0.00  0.00    +0.110 C 
ATOM     16  C   UNL     1      -5.226 -13.947  15.422  0.00  0.00    +0.217 C 
ENDROOT
BRANCH  11   6
ATOM      3  O   UNL     1      -8.173  -8.949  17.481  0.00  0.00    -0.253 OA
ATOM      6  N   UNL     1      -7.302 -11.076  17.793  0.00  0.00    -0.294 N 
ATOM      7  N   UNL     1      -9.444 -10.613  18.483  0.00  0.00    -0.297 N 
ATOM     25  C   UNL     1      -8.296 -10.106  17.882  0.00  0.00    +0.300 C 
ATOM     40  H   UNL     1      -7.473 -11.984  18.216  0.00  0.00    +0.151 HD
ATOM     41  H   UNL     1      -9.414 -11.562  18.843  0.00  0.00    +0.151 HD
BRANCH   7  15
ATOM     15  C   UNL     1     -10.636  -9.825  18.705  0.00  0.00    +0.074 C 
ATOM     18  C   UNL     1     -11.263 -10.144  20.067  0.00  0.00    +0.022 C 
ATOM     19  C   UNL     1     -11.646 -10.022  17.570  0.00  0.00    +0.022 C 
ATOM     22  C   UNL     1     -11.922 -11.522  20.099  0.00  0.00    +0.002 C 
ATOM     23  C   UNL     1     -12.305 -11.400  17.606  0.00  0.00    +0.002 C 
ATOM     24  C   UNL     1     -12.930 -11.690  18.966  0.00  0.00    +0.000 C 
ENDBRANCH   7  15
ENDBRANCH  11   6
BRANCH  12  17
ATOM      2  O   UNL     1      -5.229  -9.977  14.226  0.00  0.00    -0.274 OA
ATOM      8  N   UNL     1      -3.590 -11.390  15.083  0.00  0.00    -0.302 N 
ATOM     17  C   UNL     1      -4.873 -10.879  14.979  0.00  0.00    +0.236 C 
ATOM     42  H   UNL     1      -3.393 -12.068  15.812  0.00  0.00    +0.150 HD
BRANCH   8  26
ATOM     26  C   UNL     1      -2.480 -10.906  14.294  0.00  0.00    +0.163 C 
BRANCH  26  31
ATOM      4  O   UNL     1      -0.772  -9.338  15.022  0.00  0.00    -0.274 OA
ATOM      9  N   UNL     1      -1.427 -10.998  16.467  0.00  0.00    -0.328 N 
ATOM     31  C   UNL     1      -1.461 -10.327  15.264  0.00  0.00    +0.231 C 
ATOM     44  H   UNL     1      -0.800 -10.705  17.210  0.00  0.00    +0.145 HD
ATOM     45  H   UNL     1      -2.018 -11.800  16.662  0.00  0.00    +0.145 HD
ENDBRANCH  26  31
BRANCH  26  30
ATOM     30  C   UNL     1      -1.844 -12.016  13.447  0.00  0.00    +0.069 C 
BRANCH  30  32
ATOM     10  N   UNL     1      -3.678 -13.406  10.580  0.00  0.00    -0.360 N 
ATOM     32  C   UNL     1      -2.613 -12.311  12.190  0.00  0.00    -0.020 A 
ATOM     33  C   UNL     1      -3.061 -11.363  11.229  0.00  0.00    +0.003 A 
ATOM     34  C   UNL     1      -3.006 -13.559  11.764  0.00  0.00    +0.087 A 
ATOM     35  C   UNL     1      -3.727 -12.076  10.230  0.00  0.00    +0.047 A 
ATOM     36  C   UNL     1      -2.966  -9.962  11.113  0.00  0.00    +0.010 A 
ATOM     37  C   UNL     1      -4.305 -11.455   9.116  0.00  0.00    +0.026 A 
ATOM     38  C   UNL     1      -3.538  -9.327  10.004  0.00  0.00    +0.001 A 
ATOM     39  C   UNL     1      -4.196 -10.065   9.022  0.00  0.00    +0.002 A 
ATOM     43  H   UNL     1      -4.080 -14.161  10.041  0.00  0.00    +0.165 HD
ENDBRANCH  30  32
ENDBRANCH  26  30
ENDBRANCH   8  26
ENDBRANCH  12  17
BRANCH  16  20
ATOM     20  C   UNL     1      -4.705 -15.228  16.026  0.00  0.00    +0.102 C 
BRANCH  20  21
ATOM     21  C   UNL     1      -5.783 -16.323  16.123  0.00  0.00    -0.029 C 
ATOM     27  C   UNL     1      -5.255 -17.422  17.065  0.00  0.00    +0.011 C 
ATOM     28  C   UNL     1      -7.091 -15.763  16.706  0.00  0.00    +0.011 C 
ATOM     29  C   UNL     1      -6.063 -16.950  14.747  0.00  0.00    +0.011 C 
ENDBRANCH  20  21
ENDBRANCH  16  20
TORSDOF 9
ENDMDL
