MODEL 1
REMARK VINA RESULT:      -7.6      0.000      0.000
REMARK  Name = 11885093
REMARK  14 active torsions:
REMARK  status: ('A' for Active; 'I' for Inactive)
REMARK    1  A    between atoms: O_4  and  C_16
REMARK    2  A    between atoms: O_5  and  C_21
REMARK    3  A    between atoms: N_9  and  C_27
REMARK    4  A    between atoms: C_11  and  C_19
REMARK    5  A    between atoms: C_13  and  C_21
REMARK    6  A    between atoms: C_13  and  C_22
REMARK    7  A    between atoms: C_14  and  C_24
REMARK    8  A    between atoms: C_24  and  C_25
REMARK    9  A    between atoms: C_27  and  C_29
REMARK   10  A    between atoms: C_28  and  C_30
REMARK   11  A    between atoms: C_30  and  C_31
REMARK   12  A    between atoms: C_31  and  C_34
REMARK   13  A    between atoms: C_34  and  C_37
REMARK   14  A    between atoms: C_37  and  C_39
REMARK                            x       y       z     vdW  Elec       q    Type
REMARK                         _______ _______ _______ _____ _____    ______ ____
ROOT
ATOM      1  S   UNL     1      10.136   5.448   3.098  0.00  0.00    -0.057 S 
ATOM      7  O   UNL     1      12.225   8.089   6.320  0.00  0.00    -0.275 OA
ATOM      8  N   UNL     1      12.348   6.620   3.746  0.00  0.00    -0.229 NA
ATOM     10  N   UNL     1      10.503   6.858   5.278  0.00  0.00    -0.265 N 
ATOM     11  C   UNL     1      13.988   4.927   0.694  0.00  0.00    -0.019 C 
ATOM     12  C   UNL     1      12.631   4.932  -0.137  0.00  0.00    +0.011 C 
ATOM     13  C   UNL     1      12.646   4.209  -1.538  0.00  0.00    +0.021 C 
ATOM     14  C   UNL     1      13.880   6.053   1.823  0.00  0.00    +0.054 C 
ATOM     15  C   UNL     1      15.170   5.288  -0.244  0.00  0.00    +0.010 C 
ATOM     16  C   UNL     1      13.913   4.646  -2.326  0.00  0.00    +0.123 C 
ATOM     17  C   UNL     1      11.416   4.544   0.755  0.00  0.00    +0.049 C 
ATOM     18  C   UNL     1      15.204   4.477  -1.532  0.00  0.00    +0.032 C 
ATOM     19  C   UNL     1      14.281   3.559   1.359  0.00  0.00    +0.012 C 
ATOM     20  C   UNL     1      12.557   5.974   2.542  0.00  0.00    +0.058 A 
ATOM     22  C   UNL     1      11.409   4.668  -2.360  0.00  0.00    +0.016 C 
ATOM     23  C   UNL     1      11.459   5.307   2.036  0.00  0.00    +0.015 A 
ATOM     26  C   UNL     1      11.111   6.406   4.137  0.00  0.00    +0.165 A 
ATOM     28  C   UNL     1      11.078   7.656   6.285  0.00  0.00    +0.219 C 
ATOM     43  H   UNL     1       9.532   6.575   5.388  0.00  0.00    +0.157 HD
ENDROOT
BRANCH  16   4
ATOM      4  O   UNL     1      14.026   3.911  -3.545  0.00  0.00    -0.391 OA
ATOM     40  H   UNL     1      14.887   3.460  -3.538  0.00  0.00    +0.210 HD
ENDBRANCH  16   4
BRANCH  13  21
ATOM     21  C   UNL     1      12.548   2.668  -1.465  0.00  0.00    +0.165 C 
BRANCH  21   5
ATOM      5  O   UNL     1      11.799   2.230  -2.576  0.00  0.00    -0.394 OA
ATOM     41  H   UNL     1      11.751   2.971  -3.203  0.00  0.00    +0.209 HD
ENDBRANCH  21   5
ENDBRANCH  13  21
BRANCH  14  24
ATOM     24  C   UNL     1      15.054   6.082   2.812  0.00  0.00    +0.106 C 
BRANCH  24  25
ATOM      6  O   UNL     1      15.623   8.253   1.908  0.00  0.00    -0.276 OA
ATOM      9  N   UNL     1      16.681   7.499   3.835  0.00  0.00    -0.311 N 
ATOM     25  C   UNL     1      15.795   7.398   2.773  0.00  0.00    +0.214 C 
ATOM     42  H   UNL     1      16.746   6.735   4.502  0.00  0.00    +0.149 HD
BRANCH   9  27
ATOM     27  C   UNL     1      17.527   8.651   4.051  0.00  0.00    +0.139 C 
BRANCH  27  29
ATOM      2  F   UNL     1      21.811   6.361   4.490  0.00  0.00    -0.205 F 
ATOM      3  F   UNL     1      20.217   8.971   8.105  0.00  0.00    -0.205 F 
ATOM     29  C   UNL     1      18.756   8.305   4.841  0.00  0.00    -0.025 A 
ATOM     32  C   UNL     1      18.920   8.810   6.131  0.00  0.00    +0.043 A 
ATOM     33  C   UNL     1      19.732   7.477   4.286  0.00  0.00    +0.043 A 
ATOM     35  C   UNL     1      20.873   7.156   5.022  0.00  0.00    +0.126 A 
ATOM     36  C   UNL     1      20.060   8.488   6.866  0.00  0.00    +0.126 A 
ATOM     38  C   UNL     1      21.037   7.661   6.312  0.00  0.00    +0.076 A 
ENDBRANCH  27  29
ENDBRANCH   9  27
ENDBRANCH  24  25
ENDBRANCH  14  24
BRANCH  28  30
ATOM     30  C   UNL     1      10.075   7.950   7.392  0.00  0.00    +0.096 C 
BRANCH  30  31
ATOM     31  C   UNL     1       9.338   6.699   7.866  0.00  0.00    +0.009 C 
BRANCH  31  34
ATOM     34  C   UNL     1      10.304   5.677   8.465  0.00  0.00    +0.000 C 
BRANCH  34  37
ATOM     37  C   UNL     1       9.570   4.418   8.925  0.00  0.00    -0.003 C 
ATOM     39  C   UNL     1       8.889   4.628  10.267  0.00  0.00    +0.004 C 
ENDBRANCH  34  37
ENDBRANCH  31  34
ENDBRANCH  30  31
ENDBRANCH  28  30
TORSDOF 11
ENDMDL
MODEL 2
REMARK VINA RESULT:      -7.2      3.719      7.936
REMARK  Name = 11885093
REMARK  14 active torsions:
REMARK  status: ('A' for Active; 'I' for Inactive)
REMARK    1  A    between atoms: O_4  and  C_16
REMARK    2  A    between atoms: O_5  and  C_21
REMARK    3  A    between atoms: N_9  and  C_27
REMARK    4  A    between atoms: C_11  and  C_19
REMARK    5  A    between atoms: C_13  and  C_21
REMARK    6  A    between atoms: C_13  and  C_22
REMARK    7  A    between atoms: C_14  and  C_24
REMARK    8  A    between atoms: C_24  and  C_25
REMARK    9  A    between atoms: C_27  and  C_29
REMARK   10  A    between atoms: C_28  and  C_30
REMARK   11  A    between atoms: C_30  and  C_31
REMARK   12  A    between atoms: C_31  and  C_34
REMARK   13  A    between atoms: C_34  and  C_37
REMARK   14  A    between atoms: C_37  and  C_39
REMARK                            x       y       z     vdW  Elec       q    Type
REMARK                         _______ _______ _______ _____ _____    ______ ____
ROOT
ATOM      1  S   UNL     1      14.326   8.259   6.609  0.00  0.00    -0.057 S 
ATOM      7  O   UNL     1      11.393   6.081   3.716  0.00  0.00    -0.275 OA
ATOM      8  N   UNL     1      14.077   7.224   4.252  0.00  0.00    -0.229 NA
ATOM     10  N   UNL     1      12.143   7.136   5.687  0.00  0.00    -0.265 N 
ATOM     11  C   UNL     1      17.599   8.563   3.433  0.00  0.00    -0.019 C 
ATOM     12  C   UNL     1      18.088   8.426   4.942  0.00  0.00    +0.011 C 
ATOM     13  C   UNL     1      19.528   8.972   5.280  0.00  0.00    +0.021 C 
ATOM     14  C   UNL     1      16.354   7.583   3.226  0.00  0.00    +0.054 C 
ATOM     15  C   UNL     1      18.737   8.115   2.479  0.00  0.00    +0.010 C 
ATOM     16  C   UNL     1      20.532   8.468   4.205  0.00  0.00    +0.123 C 
ATOM     17  C   UNL     1      16.990   8.894   5.940  0.00  0.00    +0.049 C 
ATOM     18  C   UNL     1      20.082   8.761   2.778  0.00  0.00    +0.032 C 
ATOM     19  C   UNL     1      17.182  10.008   3.065  0.00  0.00    +0.012 C 
ATOM     20  C   UNL     1      15.363   7.721   4.354  0.00  0.00    +0.058 A 
ATOM     22  C   UNL     1      19.983   8.388   6.647  0.00  0.00    +0.016 C 
ATOM     23  C   UNL     1      15.675   8.296   5.570  0.00  0.00    +0.015 A 
ATOM     26  C   UNL     1      13.438   7.458   5.377  0.00  0.00    +0.165 A 
ATOM     28  C   UNL     1      11.212   6.481   4.860  0.00  0.00    +0.219 C 
ATOM     43  H   UNL     1      11.845   7.410   6.621  0.00  0.00    +0.157 HD
ENDROOT
BRANCH  16   4
ATOM      4  O   UNL     1      21.820   9.049   4.408  0.00  0.00    -0.391 OA
ATOM     40  H   UNL     1      21.942   9.738   3.733  0.00  0.00    +0.210 HD
ENDBRANCH  16   4
BRANCH  13  21
ATOM     21  C   UNL     1      19.612  10.507   5.435  0.00  0.00    +0.165 C 
BRANCH  21   5
ATOM      5  O   UNL     1      20.563  10.788   6.436  0.00  0.00    -0.394 OA
ATOM     41  H   UNL     1      20.633  11.755   6.506  0.00  0.00    +0.209 HD
ENDBRANCH  21   5
ENDBRANCH  13  21
BRANCH  14  24
ATOM     24  C   UNL     1      15.667   7.702   1.859  0.00  0.00    +0.106 C 
BRANCH  24  25
ATOM      6  O   UNL     1      16.210   6.215   0.029  0.00  0.00    -0.276 OA
ATOM      9  N   UNL     1      14.950   5.424   1.815  0.00  0.00    -0.311 N 
ATOM     25  C   UNL     1      15.658   6.388   1.113  0.00  0.00    +0.214 C 
ATOM     42  H   UNL     1      14.534   5.667   2.709  0.00  0.00    +0.149 HD
BRANCH   9  27
ATOM     27  C   UNL     1      14.774   4.070   1.340  0.00  0.00    +0.139 C 
BRANCH  27  29
ATOM      2  F   UNL     1      12.816   3.059  -3.011  0.00  0.00    -0.205 F 
ATOM      3  F   UNL     1       9.973   4.371   0.542  0.00  0.00    -0.205 F 
ATOM     29  C   UNL     1      13.584   3.943   0.434  0.00  0.00    -0.025 A 
ATOM     32  C   UNL     1      12.306   4.221   0.918  0.00  0.00    +0.043 A 
ATOM     33  C   UNL     1      13.757   3.551  -0.894  0.00  0.00    +0.043 A 
ATOM     35  C   UNL     1      12.650   3.436  -1.736  0.00  0.00    +0.126 A 
ATOM     36  C   UNL     1      11.200   4.104   0.076  0.00  0.00    +0.126 A 
ATOM     38  C   UNL     1      11.372   3.712  -1.250  0.00  0.00    +0.076 A 
ENDBRANCH  27  29
ENDBRANCH   9  27
ENDBRANCH  24  25
ENDBRANCH  14  24
BRANCH  28  30
ATOM     30  C   UNL     1       9.876   6.304   5.570  0.00  0.00    +0.096 C 
BRANCH  30  31
ATOM     31  C   UNL     1       9.845   5.067   6.467  0.00  0.00    +0.009 C 
BRANCH  31  34
ATOM     34  C   UNL     1       9.662   5.449   7.936  0.00  0.00    +0.000 C 
BRANCH  34  37
ATOM     37  C   UNL     1       9.564   4.210   8.825  0.00  0.00    -0.003 C 
ATOM     39  C   UNL     1       9.039   4.556  10.209  0.00  0.00    +0.004 C 
ENDBRANCH  34  37
ENDBRANCH  31  34
ENDBRANCH  30  31
ENDBRANCH  28  30
TORSDOF 11
ENDMDL
MODEL 3
REMARK VINA RESULT:      -7.0     27.318     30.715
REMARK  Name = 11885093
REMARK  14 active torsions:
REMARK  status: ('A' for Active; 'I' for Inactive)
REMARK    1  A    between atoms: O_4  and  C_16
REMARK    2  A    between atoms: O_5  and  C_21
REMARK    3  A    between atoms: N_9  and  C_27
REMARK    4  A    between atoms: C_11  and  C_19
REMARK    5  A    between atoms: C_13  and  C_21
REMARK    6  A    between atoms: C_13  and  C_22
REMARK    7  A    between atoms: C_14  and  C_24
REMARK    8  A    between atoms: C_24  and  C_25
REMARK    9  A    between atoms: C_27  and  C_29
REMARK   10  A    between atoms: C_28  and  C_30
REMARK   11  A    between atoms: C_30  and  C_31
REMARK   12  A    between atoms: C_31  and  C_34
REMARK   13  A    between atoms: C_34  and  C_37
REMARK   14  A    between atoms: C_37  and  C_39
REMARK                            x       y       z     vdW  Elec       q    Type
REMARK                         _______ _______ _______ _____ _____    ______ ____
ROOT
ATOM      1  S   UNL     1      -5.391 -10.821  12.619  0.00  0.00    -0.057 S 
ATOM      7  O   UNL     1      -8.559  -8.387  10.220  0.00  0.00    -0.275 OA
ATOM      8  N   UNL     1      -7.645  -9.563  12.784  0.00  0.00    -0.229 NA
ATOM     10  N   UNL     1      -6.591  -9.625  10.618  0.00  0.00    -0.265 N 
ATOM     11  C   UNL     1      -7.919 -10.798  16.427  0.00  0.00    -0.019 C 
ATOM     12  C   UNL     1      -6.340 -10.806  16.626  0.00  0.00    +0.011 C 
ATOM     13  C   UNL     1      -5.793 -11.375  17.992  0.00  0.00    +0.021 C 
ATOM     14  C   UNL     1      -8.259  -9.809  15.219  0.00  0.00    +0.054 C 
ATOM     15  C   UNL     1      -8.599 -10.254  17.710  0.00  0.00    +0.010 C 
ATOM     16  C   UNL     1      -6.611 -10.764  19.165  0.00  0.00    +0.123 C 
ATOM     17  C   UNL     1      -5.611 -11.375  15.374  0.00  0.00    +0.049 C 
ATOM     18  C   UNL     1      -8.118 -10.919  18.992  0.00  0.00    +0.032 C 
ATOM     19  C   UNL     1      -8.493 -12.203  16.118  0.00  0.00    +0.012 C 
ATOM     20  C   UNL     1      -7.353 -10.061  14.041  0.00  0.00    +0.058 A 
ATOM     22  C   UNL     1      -4.316 -10.924  18.174  0.00  0.00    +0.016 C 
ATOM     23  C   UNL     1      -6.161 -10.750  14.136  0.00  0.00    +0.015 A 
ATOM     26  C   UNL     1      -6.685  -9.908  11.954  0.00  0.00    +0.165 A 
ATOM     28  C   UNL     1      -7.511  -8.897   9.840  0.00  0.00    +0.219 C 
ATOM     43  H   UNL     1      -5.760  -9.990  10.159  0.00  0.00    +0.157 HD
ENDROOT
BRANCH  16   4
ATOM      4  O   UNL     1      -6.228 -11.355  20.406  0.00  0.00    -0.391 OA
ATOM     40  H   UNL     1      -5.258 -11.327  20.459  0.00  0.00    +0.210 HD
ENDBRANCH  16   4
BRANCH  13  21
ATOM     21  C   UNL     1      -5.771 -12.917  18.081  0.00  0.00    +0.165 C 
BRANCH  21   5
ATOM      5  O   UNL     1      -4.497 -13.305  18.541  0.00  0.00    -0.394 OA
ATOM     41  H   UNL     1      -4.319 -12.807  19.357  0.00  0.00    +0.209 HD
ENDBRANCH  21   5
ENDBRANCH  13  21
BRANCH  14  24
ATOM     24  C   UNL     1      -9.735  -9.797  14.799  0.00  0.00    +0.106 C 
BRANCH  24  25
ATOM      6  O   UNL     1      -9.860  -7.550  15.685  0.00  0.00    -0.276 OA
ATOM      9  N   UNL     1     -11.628  -8.387  14.431  0.00  0.00    -0.311 N 
ATOM     25  C   UNL     1     -10.382  -8.453  15.037  0.00  0.00    +0.214 C 
ATOM     42  H   UNL     1     -11.969  -9.190  13.911  0.00  0.00    +0.149 HD
BRANCH   9  27
ATOM     27  C   UNL     1     -12.477  -7.219  14.495  0.00  0.00    +0.139 C 
BRANCH  27  29
ATOM      2  F   UNL     1     -11.992  -2.890  12.302  0.00  0.00    -0.205 F 
ATOM      3  F   UNL     1     -12.380  -6.786   9.639  0.00  0.00    -0.205 F 
ATOM     29  C   UNL     1     -12.372  -6.381  13.254  0.00  0.00    -0.025 A 
ATOM     32  C   UNL     1     -12.425  -6.985  11.998  0.00  0.00    +0.043 A 
ATOM     33  C   UNL     1     -12.227  -4.997  13.357  0.00  0.00    +0.043 A 
ATOM     35  C   UNL     1     -12.132  -4.219  12.204  0.00  0.00    +0.126 A 
ATOM     36  C   UNL     1     -12.329  -6.206  10.845  0.00  0.00    +0.126 A 
ATOM     38  C   UNL     1     -12.183  -4.823  10.947  0.00  0.00    +0.076 A 
ENDBRANCH  27  29
ENDBRANCH   9  27
ENDBRANCH  24  25
ENDBRANCH  14  24
BRANCH  28  30
ATOM     30  C   UNL     1      -7.047  -8.797   8.392  0.00  0.00    +0.096 C 
BRANCH  30  31
ATOM     31  C   UNL     1      -8.202  -8.569   7.419  0.00  0.00    +0.009 C 
BRANCH  31  34
ATOM     34  C   UNL     1      -8.300  -7.100   7.004  0.00  0.00    +0.000 C 
BRANCH  34  37
ATOM     37  C   UNL     1      -9.608  -6.472   7.483  0.00  0.00    -0.003 C 
ATOM     39  C   UNL     1      -9.356  -5.344   8.471  0.00  0.00    +0.004 C 
ENDBRANCH  34  37
ENDBRANCH  31  34
ENDBRANCH  30  31
ENDBRANCH  28  30
TORSDOF 11
ENDMDL
MODEL 4
REMARK VINA RESULT:      -7.0     25.028     30.857
REMARK  Name = 11885093
REMARK  14 active torsions:
REMARK  status: ('A' for Active; 'I' for Inactive)
REMARK    1  A    between atoms: O_4  and  C_16
REMARK    2  A    between atoms: O_5  and  C_21
REMARK    3  A    between atoms: N_9  and  C_27
REMARK    4  A    between atoms: C_11  and  C_19
REMARK    5  A    between atoms: C_13  and  C_21
REMARK    6  A    between atoms: C_13  and  C_22
REMARK    7  A    between atoms: C_14  and  C_24
REMARK    8  A    between atoms: C_24  and  C_25
REMARK    9  A    between atoms: C_27  and  C_29
REMARK   10  A    between atoms: C_28  and  C_30
REMARK   11  A    between atoms: C_30  and  C_31
REMARK   12  A    between atoms: C_31  and  C_34
REMARK   13  A    between atoms: C_34  and  C_37
REMARK   14  A    between atoms: C_37  and  C_39
REMARK                            x       y       z     vdW  Elec       q    Type
REMARK                         _______ _______ _______ _____ _____    ______ ____
ROOT
ATOM      1  S   UNL     1      -9.820  -9.818  12.985  0.00  0.00    -0.057 S 
ATOM      7  O   UNL     1      -5.187  -9.980  13.465  0.00  0.00    -0.275 OA
ATOM      8  N   UNL     1      -7.884  -9.933  14.697  0.00  0.00    -0.229 NA
ATOM     10  N   UNL     1      -7.272  -9.877  12.367  0.00  0.00    -0.265 N 
ATOM     11  C   UNL     1     -10.509  -9.538  17.495  0.00  0.00    -0.019 C 
ATOM     12  C   UNL     1     -11.635 -10.284  16.652  0.00  0.00    +0.011 C 
ATOM     13  C   UNL     1     -13.081 -10.335  17.278  0.00  0.00    +0.021 C 
ATOM     14  C   UNL     1      -9.086  -9.978  16.915  0.00  0.00    +0.054 C 
ATOM     15  C   UNL     1     -10.592  -9.986  18.978  0.00  0.00    +0.010 C 
ATOM     16  C   UNL     1     -12.978 -10.755  18.772  0.00  0.00    +0.123 C 
ATOM     17  C   UNL     1     -11.613  -9.843  15.159  0.00  0.00    +0.049 C 
ATOM     18  C   UNL     1     -11.992  -9.906  19.568  0.00  0.00    +0.032 C 
ATOM     19  C   UNL     1     -10.634  -7.996  17.434  0.00  0.00    +0.012 C 
ATOM     20  C   UNL     1      -9.069  -9.908  15.409  0.00  0.00    +0.058 A 
ATOM     22  C   UNL     1     -13.911 -11.428  16.548  0.00  0.00    +0.016 C 
ATOM     23  C   UNL     1     -10.215  -9.867  14.641  0.00  0.00    +0.015 A 
ATOM     26  C   UNL     1      -8.158  -9.883  13.411  0.00  0.00    +0.165 A 
ATOM     28  C   UNL     1      -5.868  -9.925  12.447  0.00  0.00    +0.219 C 
ATOM     43  H   UNL     1      -7.698  -9.834  11.444  0.00  0.00    +0.157 HD
ENDROOT
BRANCH  16   4
ATOM      4  O   UNL     1     -14.256 -10.686  19.403  0.00  0.00    -0.391 OA
ATOM     40  H   UNL     1     -14.176 -10.089  20.166  0.00  0.00    +0.210 HD
ENDBRANCH  16   4
BRANCH  13  21
ATOM     21  C   UNL     1     -13.891  -9.028  17.128  0.00  0.00    +0.165 C 
BRANCH  21   5
ATOM      5  O   UNL     1     -15.259  -9.369  17.101  0.00  0.00    -0.394 OA
ATOM     41  H   UNL     1     -15.711  -8.804  17.750  0.00  0.00    +0.209 HD
ENDBRANCH  21   5
ENDBRANCH  13  21
BRANCH  14  24
ATOM     24  C   UNL     1      -7.890  -9.233  17.524  0.00  0.00    +0.106 C 
BRANCH  24  25
ATOM      6  O   UNL     1      -6.806 -10.429  19.327  0.00  0.00    -0.276 OA
ATOM      9  N   UNL     1      -6.059 -10.720  17.146  0.00  0.00    -0.311 N 
ATOM     25  C   UNL     1      -6.879 -10.181  18.126  0.00  0.00    +0.214 C 
ATOM     42  H   UNL     1      -6.205 -10.454  16.176  0.00  0.00    +0.149 HD
BRANCH   9  27
ATOM     27  C   UNL     1      -4.998 -11.658  17.431  0.00  0.00    +0.139 C 
BRANCH  27  29
ATOM      2  F   UNL     1      -0.938  -9.676  15.595  0.00  0.00    -0.205 F 
ATOM      3  F   UNL     1      -2.900 -13.371  13.376  0.00  0.00    -0.205 F 
ATOM     29  C   UNL     1      -3.913 -11.612  16.395  0.00  0.00    -0.025 A 
ATOM     32  C   UNL     1      -3.909 -12.532  15.347  0.00  0.00    +0.043 A 
ATOM     33  C   UNL     1      -2.909 -10.646  16.479  0.00  0.00    +0.043 A 
ATOM     35  C   UNL     1      -1.902 -10.602  15.515  0.00  0.00    +0.126 A 
ATOM     36  C   UNL     1      -2.903 -12.488  14.383  0.00  0.00    +0.126 A 
ATOM     38  C   UNL     1      -1.899 -11.524  14.467  0.00  0.00    +0.076 A 
ENDBRANCH  27  29
ENDBRANCH   9  27
ENDBRANCH  24  25
ENDBRANCH  14  24
BRANCH  28  30
ATOM     30  C   UNL     1      -5.238  -9.903  11.060  0.00  0.00    +0.096 C 
BRANCH  30  31
ATOM     31  C   UNL     1      -4.469 -11.184  10.743  0.00  0.00    +0.009 C 
BRANCH  31  34
ATOM     34  C   UNL     1      -2.965 -10.993  10.937  0.00  0.00    +0.000 C 
BRANCH  34  37
ATOM     37  C   UNL     1      -2.557  -9.534  10.734  0.00  0.00    -0.003 C 
ATOM     39  C   UNL     1      -1.151  -9.271  11.248  0.00  0.00    +0.004 C 
ENDBRANCH  34  37
ENDBRANCH  31  34
ENDBRANCH  30  31
ENDBRANCH  28  30
TORSDOF 11
ENDMDL
MODEL 5
REMARK VINA RESULT:      -6.9     26.569     30.371
REMARK  Name = 11885093
REMARK  14 active torsions:
REMARK  status: ('A' for Active; 'I' for Inactive)
REMARK    1  A    between atoms: O_4  and  C_16
REMARK    2  A    between atoms: O_5  and  C_21
REMARK    3  A    between atoms: N_9  and  C_27
REMARK    4  A    between atoms: C_11  and  C_19
REMARK    5  A    between atoms: C_13  and  C_21
REMARK    6  A    between atoms: C_13  and  C_22
REMARK    7  A    between atoms: C_14  and  C_24
REMARK    8  A    between atoms: C_24  and  C_25
REMARK    9  A    between atoms: C_27  and  C_29
REMARK   10  A    between atoms: C_28  and  C_30
REMARK   11  A    between atoms: C_30  and  C_31
REMARK   12  A    between atoms: C_31  and  C_34
REMARK   13  A    between atoms: C_34  and  C_37
REMARK   14  A    between atoms: C_37  and  C_39
REMARK                            x       y       z     vdW  Elec       q    Type
REMARK                         _______ _______ _______ _____ _____    ______ ____
ROOT
ATOM      1  S   UNL     1      -7.256 -10.383  11.299  0.00  0.00    -0.057 S 
ATOM      7  O   UNL     1     -11.257  -8.943  13.206  0.00  0.00    -0.275 OA
ATOM      8  N   UNL     1      -8.443  -9.821  13.527  0.00  0.00    -0.229 NA
ATOM     10  N   UNL     1      -9.740  -9.570  11.512  0.00  0.00    -0.265 N 
ATOM     11  C   UNL     1      -5.306 -11.101  15.370  0.00  0.00    -0.019 C 
ATOM     12  C   UNL     1      -4.335 -10.658  14.188  0.00  0.00    +0.011 C 
ATOM     13  C   UNL     1      -2.815 -11.054  14.324  0.00  0.00    +0.021 C 
ATOM     14  C   UNL     1      -6.650 -10.244  15.251  0.00  0.00    +0.054 C 
ATOM     15  C   UNL     1      -4.640 -10.779  16.733  0.00  0.00    +0.010 C 
ATOM     16  C   UNL     1      -2.322 -10.707  15.758  0.00  0.00    +0.123 C 
ATOM     17  C   UNL     1      -4.946 -10.990  12.795  0.00  0.00    +0.049 C 
ATOM     18  C   UNL     1      -3.210 -11.285  16.855  0.00  0.00    +0.032 C 
ATOM     19  C   UNL     1      -5.653 -12.609  15.330  0.00  0.00    +0.012 C 
ATOM     20  C   UNL     1      -7.155 -10.221  13.831  0.00  0.00    +0.058 A 
ATOM     22  C   UNL     1      -1.978 -10.201  13.330  0.00  0.00    +0.016 C 
ATOM     23  C   UNL     1      -6.368 -10.542  12.743  0.00  0.00    +0.015 A 
ATOM     26  C   UNL     1      -8.611  -9.874  12.224  0.00  0.00    +0.165 A 
ATOM     28  C   UNL     1     -10.974  -9.131  12.028  0.00  0.00    +0.219 C 
ATOM     43  H   UNL     1      -9.655  -9.680  10.504  0.00  0.00    +0.157 HD
ENDROOT
BRANCH  16   4
ATOM      4  O   UNL     1      -0.987 -11.171  15.957  0.00  0.00    -0.391 OA
ATOM     40  H   UNL     1      -0.540 -11.162  15.094  0.00  0.00    +0.210 HD
ENDBRANCH  16   4
BRANCH  13  21
ATOM     21  C   UNL     1      -2.502 -12.526  13.976  0.00  0.00    +0.165 C 
BRANCH  21   5
ATOM      5  O   UNL     1      -1.355 -12.541  13.157  0.00  0.00    -0.394 OA
ATOM     41  H   UNL     1      -0.838 -13.329  13.397  0.00  0.00    +0.209 HD
ENDBRANCH  21   5
ENDBRANCH  13  21
BRANCH  14  24
ATOM     24  C   UNL     1      -7.757 -10.652  16.233  0.00  0.00    +0.106 C 
BRANCH  24  25
ATOM      6  O   UNL     1      -7.697  -9.200  18.167  0.00  0.00    -0.276 OA
ATOM      9  N   UNL     1      -9.269  -8.823  16.497  0.00  0.00    -0.311 N 
ATOM     25  C   UNL     1      -8.210  -9.494  17.090  0.00  0.00    +0.214 C 
ATOM     42  H   UNL     1      -9.619  -9.144  15.599  0.00  0.00    +0.149 HD
BRANCH   9  27
ATOM     27  C   UNL     1      -9.909  -7.673  17.094  0.00  0.00    +0.139 C 
BRANCH  27  29
ATOM      2  F   UNL     1     -14.586  -8.055  15.764  0.00  0.00    -0.205 F 
ATOM      3  F   UNL     1     -11.922  -4.641  13.849  0.00  0.00    -0.205 F 
ATOM     29  C   UNL     1     -11.087  -7.205  16.290  0.00  0.00    -0.025 A 
ATOM     32  C   UNL     1     -10.955  -6.118  15.426  0.00  0.00    +0.043 A 
ATOM     33  C   UNL     1     -12.314  -7.860  16.404  0.00  0.00    +0.043 A 
ATOM     35  C   UNL     1     -13.408  -7.426  15.655  0.00  0.00    +0.126 A 
ATOM     36  C   UNL     1     -12.049  -5.684  14.678  0.00  0.00    +0.126 A 
ATOM     38  C   UNL     1     -13.276  -6.338  14.793  0.00  0.00    +0.076 A 
ENDBRANCH  27  29
ENDBRANCH   9  27
ENDBRANCH  24  25
ENDBRANCH  14  24
BRANCH  28  30
ATOM     30  C   UNL     1     -11.983  -8.896  10.912  0.00  0.00    +0.096 C 
BRANCH  30  31
ATOM     31  C   UNL     1     -13.024  -7.838  11.273  0.00  0.00    +0.009 C 
BRANCH  31  34
ATOM     34  C   UNL     1     -12.990  -6.665  10.294  0.00  0.00    +0.000 C 
BRANCH  34  37
ATOM     37  C   UNL     1     -11.997  -5.593  10.744  0.00  0.00    -0.003 C 
ATOM     39  C   UNL     1     -12.529  -4.194  10.480  0.00  0.00    +0.004 C 
ENDBRANCH  34  37
ENDBRANCH  31  34
ENDBRANCH  30  31
ENDBRANCH  28  30
TORSDOF 11
ENDMDL
MODEL 6
REMARK VINA RESULT:      -6.6     23.679     28.575
REMARK  Name = 11885093
REMARK  14 active torsions:
REMARK  status: ('A' for Active; 'I' for Inactive)
REMARK    1  A    between atoms: O_4  and  C_16
REMARK    2  A    between atoms: O_5  and  C_21
REMARK    3  A    between atoms: N_9  and  C_27
REMARK    4  A    between atoms: C_11  and  C_19
REMARK    5  A    between atoms: C_13  and  C_21
REMARK    6  A    between atoms: C_13  and  C_22
REMARK    7  A    between atoms: C_14  and  C_24
REMARK    8  A    between atoms: C_24  and  C_25
REMARK    9  A    between atoms: C_27  and  C_29
REMARK   10  A    between atoms: C_28  and  C_30
REMARK   11  A    between atoms: C_30  and  C_31
REMARK   12  A    between atoms: C_31  and  C_34
REMARK   13  A    between atoms: C_34  and  C_37
REMARK   14  A    between atoms: C_37  and  C_39
REMARK                            x       y       z     vdW  Elec       q    Type
REMARK                         _______ _______ _______ _____ _____    ______ ____
ROOT
ATOM      1  S   UNL     1      17.001  -2.171  31.554  0.00  0.00    -0.057 S 
ATOM      7  O   UNL     1      20.070  -2.565  28.070  0.00  0.00    -0.275 OA
ATOM      8  N   UNL     1      17.711  -3.614  29.529  0.00  0.00    -0.229 NA
ATOM     10  N   UNL     1      19.024  -1.642  29.972  0.00  0.00    -0.265 N 
ATOM     11  C   UNL     1      15.048  -6.191  30.596  0.00  0.00    -0.019 C 
ATOM     12  C   UNL     1      14.098  -5.071  31.211  0.00  0.00    +0.011 C 
ATOM     13  C   UNL     1      12.800  -5.565  31.957  0.00  0.00    +0.021 C 
ATOM     14  C   UNL     1      16.021  -5.488  29.541  0.00  0.00    +0.054 C 
ATOM     15  C   UNL     1      14.189  -7.241  29.843  0.00  0.00    +0.010 C 
ATOM     16  C   UNL     1      12.088  -6.642  31.090  0.00  0.00    +0.123 C 
ATOM     17  C   UNL     1      14.911  -4.008  32.005  0.00  0.00    +0.049 C 
ATOM     18  C   UNL     1      13.015  -7.771  30.653  0.00  0.00    +0.032 C 
ATOM     19  C   UNL     1      15.894  -6.919  31.670  0.00  0.00    +0.012 C 
ATOM     20  C   UNL     1      16.616  -4.225  30.112  0.00  0.00    +0.058 A 
ATOM     22  C   UNL     1      11.817  -4.371  32.110  0.00  0.00    +0.016 C 
ATOM     23  C   UNL     1      16.092  -3.568  31.206  0.00  0.00    +0.015 A 
ATOM     26  C   UNL     1      18.007  -2.528  30.209  0.00  0.00    +0.165 A 
ATOM     28  C   UNL     1      19.979  -1.706  28.940  0.00  0.00    +0.219 C 
ATOM     43  H   UNL     1      19.075  -0.863  30.624  0.00  0.00    +0.157 HD
ENDROOT
BRANCH  16   4
ATOM      4  O   UNL     1      10.981  -7.204  31.793  0.00  0.00    -0.391 OA
ATOM     40  H   UNL     1      11.012  -6.871  32.706  0.00  0.00    +0.210 HD
ENDBRANCH  16   4
BRANCH  13  21
ATOM     21  C   UNL     1      13.044  -6.088  33.391  0.00  0.00    +0.165 C 
BRANCH  21   5
ATOM      5  O   UNL     1      11.910  -5.772  34.165  0.00  0.00    -0.394 OA
ATOM     41  H   UNL     1      11.190  -5.555  33.549  0.00  0.00    +0.209 HD
ENDBRANCH  21   5
ENDBRANCH  13  21
BRANCH  14  24
ATOM     24  C   UNL     1      17.105  -6.406  28.960  0.00  0.00    +0.106 C 
BRANCH  24  25
ATOM      6  O   UNL     1      16.278  -7.418  26.925  0.00  0.00    -0.276 OA
ATOM      9  N   UNL     1      17.739  -5.616  26.798  0.00  0.00    -0.311 N 
ATOM     25  C   UNL     1      16.974  -6.561  27.463  0.00  0.00    +0.214 C 
ATOM     42  H   UNL     1      18.278  -4.945  27.337  0.00  0.00    +0.149 HD
BRANCH   9  27
ATOM     27  C   UNL     1      17.808  -5.528  25.357  0.00  0.00    +0.139 C 
BRANCH  27  29
ATOM      2  F   UNL     1      17.996  -2.132  21.861  0.00  0.00    -0.205 F 
ATOM      3  F   UNL     1      16.137  -1.002  26.067  0.00  0.00    -0.205 F 
ATOM     29  C   UNL     1      17.546  -4.134  24.866  0.00  0.00    -0.025 A 
ATOM     32  C   UNL     1      16.951  -3.197  25.711  0.00  0.00    +0.043 A 
ATOM     33  C   UNL     1      17.900  -3.774  23.565  0.00  0.00    +0.043 A 
ATOM     35  C   UNL     1      17.657  -2.478  23.110  0.00  0.00    +0.126 A 
ATOM     36  C   UNL     1      16.708  -1.902  25.255  0.00  0.00    +0.126 A 
ATOM     38  C   UNL     1      17.060  -1.542  23.955  0.00  0.00    +0.076 A 
ENDBRANCH  27  29
ENDBRANCH   9  27
ENDBRANCH  24  25
ENDBRANCH  14  24
BRANCH  28  30
ATOM     30  C   UNL     1      20.945  -0.530  29.013  0.00  0.00    +0.096 C 
BRANCH  30  31
ATOM     31  C   UNL     1      22.177  -0.726  28.132  0.00  0.00    +0.009 C 
BRANCH  31  34
ATOM     34  C   UNL     1      22.138   0.190  26.909  0.00  0.00    +0.000 C 
BRANCH  34  37
ATOM     37  C   UNL     1      21.821  -0.593  25.635  0.00  0.00    -0.003 C 
ATOM     39  C   UNL     1      20.334  -0.570  25.322  0.00  0.00    +0.004 C 
ENDBRANCH  34  37
ENDBRANCH  31  34
ENDBRANCH  30  31
ENDBRANCH  28  30
TORSDOF 11
ENDMDL
MODEL 7
REMARK VINA RESULT:      -6.5      6.386      8.957
REMARK  Name = 11885093
REMARK  14 active torsions:
REMARK  status: ('A' for Active; 'I' for Inactive)
REMARK    1  A    between atoms: O_4  and  C_16
REMARK    2  A    between atoms: O_5  and  C_21
REMARK    3  A    between atoms: N_9  and  C_27
REMARK    4  A    between atoms: C_11  and  C_19
REMARK    5  A    between atoms: C_13  and  C_21
REMARK    6  A    between atoms: C_13  and  C_22
REMARK    7  A    between atoms: C_14  and  C_24
REMARK    8  A    between atoms: C_24  and  C_25
REMARK    9  A    between atoms: C_27  and  C_29
REMARK   10  A    between atoms: C_28  and  C_30
REMARK   11  A    between atoms: C_30  and  C_31
REMARK   12  A    between atoms: C_31  and  C_34
REMARK   13  A    between atoms: C_34  and  C_37
REMARK   14  A    between atoms: C_37  and  C_39
REMARK                            x       y       z     vdW  Elec       q    Type
REMARK                         _______ _______ _______ _____ _____    ______ ____
ROOT
ATOM      1  S   UNL     1      10.914   4.251   2.433  0.00  0.00    -0.057 S 
ATOM      7  O   UNL     1       8.876   7.966   4.370  0.00  0.00    -0.275 OA
ATOM      8  N   UNL     1       9.873   6.569   1.952  0.00  0.00    -0.229 NA
ATOM     10  N   UNL     1       9.906   5.847   4.252  0.00  0.00    -0.265 N 
ATOM     11  C   UNL     1      11.009   6.176  -1.712  0.00  0.00    -0.019 C 
ATOM     12  C   UNL     1      10.859   4.591  -1.671  0.00  0.00    +0.011 C 
ATOM     13  C   UNL     1      11.327   3.794  -2.948  0.00  0.00    +0.021 C 
ATOM     14  C   UNL     1      10.097   6.788  -0.551  0.00  0.00    +0.054 C 
ATOM     15  C   UNL     1      10.491   6.708  -3.073  0.00  0.00    +0.010 C 
ATOM     16  C   UNL     1      10.759   4.486  -4.220  0.00  0.00    +0.123 C 
ATOM     17  C   UNL     1      11.396   4.003  -0.333  0.00  0.00    +0.049 C 
ATOM     18  C   UNL     1      11.064   5.979  -4.279  0.00  0.00    +0.032 C 
ATOM     19  C   UNL     1      12.472   6.646  -1.518  0.00  0.00    +0.012 C 
ATOM     20  C   UNL     1      10.300   6.046   0.746  0.00  0.00    +0.058 A 
ATOM     22  C   UNL     1      10.731   2.360  -2.898  0.00  0.00    +0.016 C 
ATOM     23  C   UNL     1      10.868   4.790   0.818  0.00  0.00    +0.015 A 
ATOM     26  C   UNL     1      10.152   5.713   2.911  0.00  0.00    +0.165 A 
ATOM     28  C   UNL     1       9.295   6.940   4.895  0.00  0.00    +0.219 C 
ATOM     43  H   UNL     1      10.204   5.061   4.823  0.00  0.00    +0.157 HD
ENDROOT
BRANCH  16   4
ATOM      4  O   UNL     1      11.270   3.866  -5.400  0.00  0.00    -0.391 OA
ATOM     40  H   UNL     1      10.705   4.137  -6.143  0.00  0.00    +0.210 HD
ENDBRANCH  16   4
BRANCH  13  21
ATOM     21  C   UNL     1      12.857   3.606  -3.061  0.00  0.00    +0.165 C 
BRANCH  21   5
ATOM      5  O   UNL     1      13.094   2.497  -3.898  0.00  0.00    -0.394 OA
ATOM     41  H   UNL     1      13.761   2.765  -4.552  0.00  0.00    +0.209 HD
ENDBRANCH  21   5
ENDBRANCH  13  21
BRANCH  14  24
ATOM     24  C   UNL     1      10.241   8.304  -0.358  0.00  0.00    +0.106 C 
BRANCH  24  25
ATOM      6  O   UNL     1       9.309  10.199  -1.537  0.00  0.00    -0.276 OA
ATOM      9  N   UNL     1       7.981   8.336  -1.129  0.00  0.00    -0.311 N 
ATOM     25  C   UNL     1       9.155   9.072  -1.074  0.00  0.00    +0.214 C 
ATOM     42  H   UNL     1       7.958   7.407  -0.718  0.00  0.00    +0.149 HD
BRANCH   9  27
ATOM     27  C   UNL     1       6.772   8.823  -1.754  0.00  0.00    +0.139 C 
BRANCH  27  29
ATOM      2  F   UNL     1       7.258   4.942  -4.668  0.00  0.00    -0.205 F 
ATOM      3  F   UNL     1       3.033   7.055  -4.337  0.00  0.00    -0.205 F 
ATOM     29  C   UNL     1       6.199   7.827  -2.720  0.00  0.00    -0.025 A 
ATOM     32  C   UNL     1       4.855   7.904  -3.087  0.00  0.00    +0.043 A 
ATOM     33  C   UNL     1       7.012   6.826  -3.255  0.00  0.00    +0.043 A 
ATOM     35  C   UNL     1       6.479   5.903  -4.154  0.00  0.00    +0.126 A 
ATOM     36  C   UNL     1       4.324   6.980  -3.985  0.00  0.00    +0.126 A 
ATOM     38  C   UNL     1       5.134   5.979  -4.519  0.00  0.00    +0.076 A 
ENDBRANCH  27  29
ENDBRANCH   9  27
ENDBRANCH  24  25
ENDBRANCH  14  24
BRANCH  28  30
ATOM     30  C   UNL     1       9.198   6.709   6.397  0.00  0.00    +0.096 C 
BRANCH  30  31
ATOM     31  C   UNL     1       9.677   5.318   6.810  0.00  0.00    +0.009 C 
BRANCH  31  34
ATOM     34  C   UNL     1      10.181   5.309   8.254  0.00  0.00    +0.000 C 
BRANCH  34  37
ATOM     37  C   UNL     1       9.560   4.165   9.054  0.00  0.00    -0.003 C 
ATOM     39  C   UNL     1       8.806   4.679  10.269  0.00  0.00    +0.004 C 
ENDBRANCH  34  37
ENDBRANCH  31  34
ENDBRANCH  30  31
ENDBRANCH  28  30
TORSDOF 11
ENDMDL
MODEL 8
REMARK VINA RESULT:      -6.4     18.146     22.427
REMARK  Name = 11885093
REMARK  14 active torsions:
REMARK  status: ('A' for Active; 'I' for Inactive)
REMARK    1  A    between atoms: O_4  and  C_16
REMARK    2  A    between atoms: O_5  and  C_21
REMARK    3  A    between atoms: N_9  and  C_27
REMARK    4  A    between atoms: C_11  and  C_19
REMARK    5  A    between atoms: C_13  and  C_21
REMARK    6  A    between atoms: C_13  and  C_22
REMARK    7  A    between atoms: C_14  and  C_24
REMARK    8  A    between atoms: C_24  and  C_25
REMARK    9  A    between atoms: C_27  and  C_29
REMARK   10  A    between atoms: C_28  and  C_30
REMARK   11  A    between atoms: C_30  and  C_31
REMARK   12  A    between atoms: C_31  and  C_34
REMARK   13  A    between atoms: C_34  and  C_37
REMARK   14  A    between atoms: C_37  and  C_39
REMARK                            x       y       z     vdW  Elec       q    Type
REMARK                         _______ _______ _______ _____ _____    ______ ____
ROOT
ATOM      1  S   UNL     1      21.397   6.372  27.314  0.00  0.00    -0.057 S 
ATOM      7  O   UNL     1      18.713  10.114  28.026  0.00  0.00    -0.275 OA
ATOM      8  N   UNL     1      20.210   8.360  26.162  0.00  0.00    -0.229 NA
ATOM     10  N   UNL     1      19.961   8.183  28.552  0.00  0.00    -0.265 N 
ATOM     11  C   UNL     1      21.933   7.315  22.874  0.00  0.00    -0.019 C 
ATOM     12  C   UNL     1      21.941   5.774  23.276  0.00  0.00    +0.011 C 
ATOM     13  C   UNL     1      22.681   4.783  22.298  0.00  0.00    +0.021 C 
ATOM     14  C   UNL     1      20.795   8.041  23.728  0.00  0.00    +0.054 C 
ATOM     15  C   UNL     1      21.579   7.453  21.370  0.00  0.00    +0.010 C 
ATOM     16  C   UNL     1      22.249   5.088  20.836  0.00  0.00    +0.123 C 
ATOM     17  C   UNL     1      22.323   5.579  24.773  0.00  0.00    +0.049 C 
ATOM     18  C   UNL     1      22.404   6.557  20.458  0.00  0.00    +0.032 C 
ATOM     19  C   UNL     1      23.292   8.011  23.131  0.00  0.00    +0.012 C 
ATOM     20  C   UNL     1      20.869   7.643  25.180  0.00  0.00    +0.058 A 
ATOM     22  C   UNL     1      22.235   3.328  22.618  0.00  0.00    +0.016 C 
ATOM     23  C   UNL     1      21.545   6.525  25.625  0.00  0.00    +0.015 A 
ATOM     26  C   UNL     1      20.424   7.786  27.326  0.00  0.00    +0.165 A 
ATOM     28  C   UNL     1      19.149   9.299  28.831  0.00  0.00    +0.219 C 
ATOM     43  H   UNL     1      20.246   7.592  29.330  0.00  0.00    +0.157 HD
ENDROOT
BRANCH  16   4
ATOM      4  O   UNL     1      22.997   4.296  19.914  0.00  0.00    -0.391 OA
ATOM     40  H   UNL     1      22.423   4.110  19.152  0.00  0.00    +0.210 HD
ENDBRANCH  16   4
BRANCH  13  21
ATOM     21  C   UNL     1      24.221   4.784  22.428  0.00  0.00    +0.165 C 
BRANCH  21   5
ATOM      5  O   UNL     1      24.684   3.499  22.082  0.00  0.00    -0.394 OA
ATOM     41  H   UNL     1      25.508   3.613  21.579  0.00  0.00    +0.209 HD
ENDBRANCH  21   5
ENDBRANCH  13  21
BRANCH  14  24
ATOM     24  C   UNL     1      20.751   9.567  23.567  0.00  0.00    +0.106 C 
BRANCH  24  25
ATOM      6  O   UNL     1      19.449  11.150  22.280  0.00  0.00    -0.276 OA
ATOM      9  N   UNL     1      18.664   8.981  22.564  0.00  0.00    -0.311 N 
ATOM     25  C   UNL     1      19.572  10.015  22.735  0.00  0.00    +0.214 C 
ATOM     42  H   UNL     1      18.860   8.075  22.979  0.00  0.00    +0.149 HD
BRANCH   9  27
ATOM     27  C   UNL     1      17.437   9.123  21.812  0.00  0.00    +0.139 C 
BRANCH  27  29
ATOM      2  F   UNL     1      14.810   6.858  18.385  0.00  0.00    -0.205 F 
ATOM      3  F   UNL     1      18.936   4.971  19.741  0.00  0.00    -0.205 F 
ATOM     29  C   UNL     1      17.239   7.994  20.843  0.00  0.00    -0.025 A 
ATOM     32  C   UNL     1      18.199   6.987  20.739  0.00  0.00    +0.043 A 
ATOM     33  C   UNL     1      16.093   7.950  20.048  0.00  0.00    +0.043 A 
ATOM     35  C   UNL     1      15.910   6.900  19.148  0.00  0.00    +0.126 A 
ATOM     36  C   UNL     1      18.014   5.938  19.840  0.00  0.00    +0.126 A 
ATOM     38  C   UNL     1      16.870   5.894  19.044  0.00  0.00    +0.076 A 
ENDBRANCH  27  29
ENDBRANCH   9  27
ENDBRANCH  24  25
ENDBRANCH  14  24
BRANCH  28  30
ATOM     30  C   UNL     1      18.846   9.398  30.320  0.00  0.00    +0.096 C 
BRANCH  30  31
ATOM     31  C   UNL     1      18.635   8.033  30.971  0.00  0.00    +0.009 C 
BRANCH  31  34
ATOM     34  C   UNL     1      17.148   7.700  31.098  0.00  0.00    +0.000 C 
BRANCH  34  37
ATOM     37  C   UNL     1      16.299   8.968  31.182  0.00  0.00    -0.003 C 
ATOM     39  C   UNL     1      14.853   8.699  30.798  0.00  0.00    +0.004 C 
ENDBRANCH  34  37
ENDBRANCH  31  34
ENDBRANCH  30  31
ENDBRANCH  28  30
TORSDOF 11
ENDMDL
MODEL 9
REMARK VINA RESULT:      -6.4     18.459     22.673
REMARK  Name = 11885093
REMARK  14 active torsions:
REMARK  status: ('A' for Active; 'I' for Inactive)
REMARK    1  A    between atoms: O_4  and  C_16
REMARK    2  A    between atoms: O_5  and  C_21
REMARK    3  A    between atoms: N_9  and  C_27
REMARK    4  A    between atoms: C_11  and  C_19
REMARK    5  A    between atoms: C_13  and  C_21
REMARK    6  A    between atoms: C_13  and  C_22
REMARK    7  A    between atoms: C_14  and  C_24
REMARK    8  A    between atoms: C_24  and  C_25
REMARK    9  A    between atoms: C_27  and  C_29
REMARK   10  A    between atoms: C_28  and  C_30
REMARK   11  A    between atoms: C_30  and  C_31
REMARK   12  A    between atoms: C_31  and  C_34
REMARK   13  A    between atoms: C_34  and  C_37
REMARK   14  A    between atoms: C_37  and  C_39
REMARK                            x       y       z     vdW  Elec       q    Type
REMARK                         _______ _______ _______ _____ _____    ______ ____
ROOT
ATOM      1  S   UNL     1      22.844   3.441  26.603  0.00  0.00    -0.057 S 
ATOM      7  O   UNL     1      20.156   6.871  28.254  0.00  0.00    -0.275 OA
ATOM      8  N   UNL     1      21.740   5.709  26.032  0.00  0.00    -0.229 NA
ATOM     10  N   UNL     1      21.357   4.841  28.248  0.00  0.00    -0.265 N 
ATOM     11  C   UNL     1      23.633   5.637  22.673  0.00  0.00    -0.019 C 
ATOM     12  C   UNL     1      23.606   4.047  22.602  0.00  0.00    +0.011 C 
ATOM     13  C   UNL     1      24.390   3.370  21.413  0.00  0.00    +0.021 C 
ATOM     14  C   UNL     1      22.455   6.107  23.645  0.00  0.00    +0.054 C 
ATOM     15  C   UNL     1      23.364   6.221  21.262  0.00  0.00    +0.010 C 
ATOM     16  C   UNL     1      24.041   4.103  20.087  0.00  0.00    +0.123 C 
ATOM     17  C   UNL     1      23.902   3.410  23.991  0.00  0.00    +0.049 C 
ATOM     18  C   UNL     1      24.230   5.614  20.168  0.00  0.00    +0.032 C 
ATOM     19  C   UNL     1      24.981   6.193  23.192  0.00  0.00    +0.012 C 
ATOM     20  C   UNL     1      22.446   5.297  24.917  0.00  0.00    +0.058 A 
ATOM     22  C   UNL     1      23.915   1.897  21.265  0.00  0.00    +0.016 C 
ATOM     23  C   UNL     1      23.087   4.081  25.044  0.00  0.00    +0.015 A 
ATOM     26  C   UNL     1      21.884   4.812  26.984  0.00  0.00    +0.165 A 
ATOM     28  C   UNL     1      20.541   5.845  28.802  0.00  0.00    +0.219 C 
ATOM     43  H   UNL     1      21.594   4.041  28.829  0.00  0.00    +0.157 HD
ENDROOT
BRANCH  16   4
ATOM      4  O   UNL     1      24.833   3.599  19.011  0.00  0.00    -0.391 OA
ATOM     40  H   UNL     1      25.655   4.117  18.982  0.00  0.00    +0.210 HD
ENDBRANCH  16   4
BRANCH  13  21
ATOM     21  C   UNL     1      25.920   3.295  21.615  0.00  0.00    +0.165 C 
BRANCH  21   5
ATOM      5  O   UNL     1      26.345   2.010  21.219  0.00  0.00    -0.394 OA
ATOM     41  H   UNL     1      25.623   1.612  20.703  0.00  0.00    +0.209 HD
ENDBRANCH  21   5
ENDBRANCH  13  21
BRANCH  14  24
ATOM     24  C   UNL     1      22.433   7.613  23.940  0.00  0.00    +0.106 C 
BRANCH  24  25
ATOM      6  O   UNL     1      21.866   9.273  22.274  0.00  0.00    -0.276 OA
ATOM      9  N   UNL     1      20.209   7.874  23.109  0.00  0.00    -0.311 N 
ATOM     25  C   UNL     1      21.505   8.359  23.011  0.00  0.00    +0.214 C 
ATOM     42  H   UNL     1      20.013   7.109  23.748  0.00  0.00    +0.149 HD
BRANCH   9  27
ATOM     27  C   UNL     1      19.107   8.401  22.336  0.00  0.00    +0.139 C 
BRANCH  27  29
ATOM      2  F   UNL     1      19.691   4.331  19.714  0.00  0.00    -0.205 F 
ATOM      3  F   UNL     1      15.756   6.900  19.128  0.00  0.00    -0.205 F 
ATOM     29  C   UNL     1      18.620   7.419  21.311  0.00  0.00    -0.025 A 
ATOM     32  C   UNL     1      17.390   7.619  20.684  0.00  0.00    +0.043 A 
ATOM     33  C   UNL     1      19.398   6.308  20.983  0.00  0.00    +0.043 A 
ATOM     35  C   UNL     1      18.944   5.398  20.029  0.00  0.00    +0.126 A 
ATOM     36  C   UNL     1      16.937   6.707  19.731  0.00  0.00    +0.126 A 
ATOM     38  C   UNL     1      17.714   5.597  19.403  0.00  0.00    +0.076 A 
ENDBRANCH  27  29
ENDBRANCH   9  27
ENDBRANCH  24  25
ENDBRANCH  14  24
BRANCH  28  30
ATOM     30  C   UNL     1      20.156   5.508  30.237  0.00  0.00    +0.096 C 
BRANCH  30  31
ATOM     31  C   UNL     1      19.051   6.414  30.778  0.00  0.00    +0.009 C 
BRANCH  31  34
ATOM     34  C   UNL     1      18.164   5.672  31.779  0.00  0.00    +0.000 C 
BRANCH  34  37
ATOM     37  C   UNL     1      16.933   5.076  31.097  0.00  0.00    -0.003 C 
ATOM     39  C   UNL     1      16.543   3.744  31.715  0.00  0.00    +0.004 C 
ENDBRANCH  34  37
ENDBRANCH  31  34
ENDBRANCH  30  31
ENDBRANCH  28  30
TORSDOF 11
ENDMDL
MODEL 10
REMARK VINA RESULT:      -6.3      1.626      2.400
REMARK  Name = 11885093
REMARK  14 active torsions:
REMARK  status: ('A' for Active; 'I' for Inactive)
REMARK    1  A    between atoms: O_4  and  C_16
REMARK    2  A    between atoms: O_5  and  C_21
REMARK    3  A    between atoms: N_9  and  C_27
REMARK    4  A    between atoms: C_11  and  C_19
REMARK    5  A    between atoms: C_13  and  C_21
REMARK    6  A    between atoms: C_13  and  C_22
REMARK    7  A    between atoms: C_14  and  C_24
REMARK    8  A    between atoms: C_24  and  C_25
REMARK    9  A    between atoms: C_27  and  C_29
REMARK   10  A    between atoms: C_28  and  C_30
REMARK   11  A    between atoms: C_30  and  C_31
REMARK   12  A    between atoms: C_31  and  C_34
REMARK   13  A    between atoms: C_34  and  C_37
REMARK   14  A    between atoms: C_37  and  C_39
REMARK                            x       y       z     vdW  Elec       q    Type
REMARK                         _______ _______ _______ _____ _____    ______ ____
ROOT
ATOM      1  S   UNL     1      10.051   5.589   2.596  0.00  0.00    -0.057 S 
ATOM      7  O   UNL     1      13.478   6.993   5.425  0.00  0.00    -0.275 OA
ATOM      8  N   UNL     1      12.594   6.029   2.763  0.00  0.00    -0.229 NA
ATOM     10  N   UNL     1      11.287   6.444   4.745  0.00  0.00    -0.265 N 
ATOM     11  C   UNL     1      12.951   4.556  -0.783  0.00  0.00    -0.019 C 
ATOM     12  C   UNL     1      11.503   5.053  -1.220  0.00  0.00    +0.011 C 
ATOM     13  C   UNL     1      10.996   4.614  -2.647  0.00  0.00    +0.021 C 
ATOM     14  C   UNL     1      13.427   5.451   0.453  0.00  0.00    +0.054 C 
ATOM     15  C   UNL     1      13.946   4.771  -1.953  0.00  0.00    +0.010 C 
ATOM     16  C   UNL     1      12.126   4.853  -3.688  0.00  0.00    +0.123 C 
ATOM     17  C   UNL     1      10.459   4.830  -0.088  0.00  0.00    +0.049 C 
ATOM     18  C   UNL     1      13.456   4.224  -3.286  0.00  0.00    +0.032 C 
ATOM     19  C   UNL     1      12.977   3.062  -0.376  0.00  0.00    +0.012 C 
ATOM     20  C   UNL     1      12.333   5.580   1.482  0.00  0.00    +0.058 A 
ATOM     22  C   UNL     1       9.794   5.510  -3.056  0.00  0.00    +0.016 C 
ATOM     23  C   UNL     1      11.006   5.313   1.213  0.00  0.00    +0.015 A 
ATOM     26  C   UNL     1      11.468   6.067   3.441  0.00  0.00    +0.165 A 
ATOM     28  C   UNL     1      12.278   6.877   5.646  0.00  0.00    +0.219 C 
ATOM     43  H   UNL     1      10.326   6.399   5.075  0.00  0.00    +0.157 HD
ENDROOT
BRANCH  16   4
ATOM      4  O   UNL     1      11.747   4.345  -4.967  0.00  0.00    -0.391 OA
ATOM     40  H   UNL     1      12.435   3.720  -5.252  0.00  0.00    +0.210 HD
ENDBRANCH  16   4
BRANCH  13  21
ATOM     21  C   UNL     1      10.476   3.161  -2.723  0.00  0.00    +0.165 C 
BRANCH  21   5
ATOM      5  O   UNL     1       9.265   3.173  -3.444  0.00  0.00    -0.394 OA
ATOM     41  H   UNL     1       9.468   2.901  -4.355  0.00  0.00    +0.209 HD
ENDBRANCH  21   5
ENDBRANCH  13  21
BRANCH  14  24
ATOM     24  C   UNL     1      14.749   5.005   1.093  0.00  0.00    +0.106 C 
BRANCH  24  25
ATOM      6  O   UNL     1      16.631   5.967  -0.085  0.00  0.00    -0.276 OA
ATOM      9  N   UNL     1      15.871   6.964   1.871  0.00  0.00    -0.311 N 
ATOM     25  C   UNL     1      15.856   6.008   0.867  0.00  0.00    +0.214 C 
ATOM     42  H   UNL     1      15.181   6.914   2.615  0.00  0.00    +0.149 HD
BRANCH   9  27
ATOM     27  C   UNL     1      16.825   8.049   1.915  0.00  0.00    +0.139 C 
BRANCH  27  29
ATOM      2  F   UNL     1      15.933   8.797   6.651  0.00  0.00    -0.205 F 
ATOM      3  F   UNL     1      20.411   8.876   5.114  0.00  0.00    -0.205 F 
ATOM     29  C   UNL     1      17.299   8.325   3.312  0.00  0.00    -0.025 A 
ATOM     32  C   UNL     1      18.662   8.474   3.569  0.00  0.00    +0.043 A 
ATOM     33  C   UNL     1      16.376   8.435   4.353  0.00  0.00    +0.043 A 
ATOM     35  C   UNL     1      16.818   8.692   5.651  0.00  0.00    +0.126 A 
ATOM     36  C   UNL     1      19.102   8.731   4.867  0.00  0.00    +0.126 A 
ATOM     38  C   UNL     1      18.181   8.840   5.908  0.00  0.00    +0.076 A 
ENDBRANCH  27  29
ENDBRANCH   9  27
ENDBRANCH  24  25
ENDBRANCH  14  24
BRANCH  28  30
ATOM     30  C   UNL     1      11.675   7.209   7.005  0.00  0.00    +0.096 C 
BRANCH  30  31
ATOM     31  C   UNL     1      10.189   7.551   6.922  0.00  0.00    +0.009 C 
BRANCH  31  34
ATOM     34  C   UNL     1       9.346   6.572   7.740  0.00  0.00    +0.000 C 
BRANCH  34  37
ATOM     37  C   UNL     1      10.220   5.708   8.649  0.00  0.00    -0.003 C 
ATOM     39  C   UNL     1       9.389   4.709   9.437  0.00  0.00    +0.004 C 
ENDBRANCH  34  37
ENDBRANCH  31  34
ENDBRANCH  30  31
ENDBRANCH  28  30
TORSDOF 11
ENDMDL
