MODEL 1
REMARK VINA RESULT:      -7.4      0.000      0.000
REMARK  Name = 11865911
REMARK  5 active torsions:
REMARK  status: ('A' for Active; 'I' for Inactive)
REMARK    1  A    between atoms: O_5  and  C_28
REMARK    2  A    between atoms: O_5  and  C_29
REMARK    3  A    between atoms: N_9  and  C_16
REMARK    4  A    between atoms: C_19  and  C_21
REMARK    5  A    between atoms: C_27  and  C_28
REMARK                            x       y       z     vdW  Elec       q    Type
REMARK                         _______ _______ _______ _____ _____    ______ ____
ROOT
ATOM      1  O   UNL     1      17.502   9.003  21.302  0.00  0.00    -0.273 OA
ATOM      2  O   UNL     1      20.912   4.460  20.593  0.00  0.00    -0.274 OA
ATOM      3  O   UNL     1      15.067   7.572  22.362  0.00  0.00    -0.275 OA
ATOM      6  N   UNL     1      15.889   7.001  20.275  0.00  0.00    -0.288 N 
ATOM      7  N   UNL     1      19.311   7.580  21.605  0.00  0.00    -0.287 N 
ATOM      8  N   UNL     1      19.018   5.265  19.659  0.00  0.00    -0.309 N 
ATOM     10  C   UNL     1      17.246   6.676  20.713  0.00  0.00    +0.182 C 
ATOM     11  C   UNL     1      17.971   6.240  19.437  0.00  0.00    +0.104 C 
ATOM     12  C   UNL     1      19.852   6.235  21.824  0.00  0.00    +0.164 C 
ATOM     13  C   UNL     1      16.841   5.722  18.552  0.00  0.00    +0.043 C 
ATOM     14  C   UNL     1      15.714   6.696  18.858  0.00  0.00    +0.110 C 
ATOM     15  C   UNL     1      21.224   6.491  22.477  0.00  0.00    +0.055 C 
ATOM     16  C   UNL     1      21.085   7.864  23.126  0.00  0.00    +0.092 C 
ATOM     17  C   UNL     1      18.001   7.880  21.246  0.00  0.00    +0.239 C 
ATOM     18  C   UNL     1      20.205   8.605  22.130  0.00  0.00    +0.131 C 
ATOM     20  C   UNL     1      20.008   5.304  20.615  0.00  0.00    +0.234 C 
ATOM     21  C   UNL     1      14.878   7.320  21.170  0.00  0.00    +0.219 C 
ATOM     30  H   UNL     1      19.156   4.586  18.917  0.00  0.00    +0.149 HD
ENDROOT
BRANCH  21  19
ATOM     19  C   UNL     1      13.491   7.355  20.601  0.00  0.00    +0.075 C 
ATOM     22  C   UNL     1      12.479   6.944  21.671  0.00  0.00    +0.013 C 
ATOM     23  C   UNL     1      13.189   8.750  20.050  0.00  0.00    +0.013 C 
ATOM     24  C   UNL     1      11.044   7.056  21.163  0.00  0.00    +0.001 C 
ATOM     25  C   UNL     1      11.753   8.858  19.546  0.00  0.00    +0.001 C 
ATOM     26  C   UNL     1      10.747   8.450  20.617  0.00  0.00    +0.000 C 
ENDBRANCH  21  19
BRANCH  16   9
ATOM      4  O   UNL     1      22.379   7.370  25.671  0.00  0.00    -0.273 OA
ATOM      9  N   UNL     1      20.458   7.776  24.423  0.00  0.00    -0.309 N 
ATOM     27  C   UNL     1      21.165   7.534  25.593  0.00  0.00    +0.239 C 
ATOM     31  H   UNL     1      19.445   7.844  24.468  0.00  0.00    +0.149 HD
BRANCH  27  28
ATOM     28  C   UNL     1      20.253   7.493  26.801  0.00  0.00    +0.255 C 
BRANCH  28   5
ATOM      5  O   UNL     1      19.855   6.168  27.080  0.00  0.00    -0.374 OA
ATOM     29  C   UNL     1      20.564   5.623  28.189  0.00  0.00    +0.194 C 
ENDBRANCH  28   5
ENDBRANCH  27  28
ENDBRANCH  16   9
TORSDOF 4
ENDMDL
MODEL 2
REMARK VINA RESULT:      -7.1     27.807     30.752
REMARK  Name = 11865911
REMARK  5 active torsions:
REMARK  status: ('A' for Active; 'I' for Inactive)
REMARK    1  A    between atoms: O_5  and  C_28
REMARK    2  A    between atoms: O_5  and  C_29
REMARK    3  A    between atoms: N_9  and  C_16
REMARK    4  A    between atoms: C_19  and  C_21
REMARK    5  A    between atoms: C_27  and  C_28
REMARK                            x       y       z     vdW  Elec       q    Type
REMARK                         _______ _______ _______ _____ _____    ______ ____
ROOT
ATOM      1  O   UNL     1      -5.927  -9.552  15.629  0.00  0.00    -0.273 OA
ATOM      2  O   UNL     1      -3.370 -12.326  19.934  0.00  0.00    -0.274 OA
ATOM      3  O   UNL     1      -5.771 -11.725  13.542  0.00  0.00    -0.275 OA
ATOM      6  N   UNL     1      -3.814 -10.930  14.489  0.00  0.00    -0.288 N 
ATOM      7  N   UNL     1      -5.660 -10.575  17.695  0.00  0.00    -0.287 N 
ATOM      8  N   UNL     1      -2.771 -11.488  17.922  0.00  0.00    -0.309 N 
ATOM     10  C   UNL     1      -4.180 -11.199  15.879  0.00  0.00    +0.182 C 
ATOM     11  C   UNL     1      -2.966 -10.746  16.695  0.00  0.00    +0.104 C 
ATOM     12  C   UNL     1      -5.206 -11.708  18.507  0.00  0.00    +0.164 C 
ATOM     13  C   UNL     1      -1.809 -10.893  15.710  0.00  0.00    +0.043 C 
ATOM     14  C   UNL     1      -2.438 -10.450  14.398  0.00  0.00    +0.110 C 
ATOM     15  C   UNL     1      -6.060 -11.610  19.787  0.00  0.00    +0.055 C 
ATOM     16  C   UNL     1      -7.309 -10.851  19.352  0.00  0.00    +0.092 C 
ATOM     17  C   UNL     1      -5.353 -10.362  16.355  0.00  0.00    +0.239 C 
ATOM     18  C   UNL     1      -6.750  -9.856  18.346  0.00  0.00    +0.131 C 
ATOM     20  C   UNL     1      -3.719 -11.798  18.871  0.00  0.00    +0.234 C 
ATOM     21  C   UNL     1      -4.611 -11.324  13.424  0.00  0.00    +0.219 C 
ATOM     30  H   UNL     1      -1.807 -11.625  18.209  0.00  0.00    +0.149 HD
ENDROOT
BRANCH  21  19
ATOM     19  C   UNL     1      -3.979 -11.230  12.067  0.00  0.00    +0.075 C 
ATOM     22  C   UNL     1      -4.438 -12.400  11.196  0.00  0.00    +0.013 C 
ATOM     23  C   UNL     1      -4.322  -9.884  11.425  0.00  0.00    +0.013 C 
ATOM     24  C   UNL     1      -3.893 -12.293   9.774  0.00  0.00    +0.001 C 
ATOM     25  C   UNL     1      -3.777  -9.783  10.003  0.00  0.00    +0.001 C 
ATOM     26  C   UNL     1      -4.241 -10.950   9.138  0.00  0.00    +0.000 C 
ENDBRANCH  21  19
BRANCH  16   9
ATOM      4  O   UNL     1     -10.053 -11.279  20.179  0.00  0.00    -0.273 OA
ATOM      9  N   UNL     1      -8.279 -11.731  18.744  0.00  0.00    -0.309 N 
ATOM     27  C   UNL     1      -9.577 -11.870  19.214  0.00  0.00    +0.239 C 
ATOM     31  H   UNL     1      -7.974 -12.311  17.967  0.00  0.00    +0.149 HD
BRANCH  27  28
ATOM     28  C   UNL     1     -10.371 -12.858  18.386  0.00  0.00    +0.255 C 
BRANCH  28   5
ATOM      5  O   UNL     1     -10.451 -12.431  17.043  0.00  0.00    -0.374 OA
ATOM     29  C   UNL     1     -11.423 -11.403  16.870  0.00  0.00    +0.194 C 
ENDBRANCH  28   5
ENDBRANCH  27  28
ENDBRANCH  16   9
TORSDOF 4
ENDMDL
MODEL 3
REMARK VINA RESULT:      -6.7     27.637     30.546
REMARK  Name = 11865911
REMARK  5 active torsions:
REMARK  status: ('A' for Active; 'I' for Inactive)
REMARK    1  A    between atoms: O_5  and  C_28
REMARK    2  A    between atoms: O_5  and  C_29
REMARK    3  A    between atoms: N_9  and  C_16
REMARK    4  A    between atoms: C_19  and  C_21
REMARK    5  A    between atoms: C_27  and  C_28
REMARK                            x       y       z     vdW  Elec       q    Type
REMARK                         _______ _______ _______ _____ _____    ______ ____
ROOT
ATOM      1  O   UNL     1      -6.197 -12.435  14.473  0.00  0.00    -0.273 OA
ATOM      2  O   UNL     1      -0.814 -10.841  15.589  0.00  0.00    -0.274 OA
ATOM      3  O   UNL     1      -7.540  -9.759  14.841  0.00  0.00    -0.275 OA
ATOM      6  N   UNL     1      -6.357 -10.677  16.605  0.00  0.00    -0.288 N 
ATOM      7  N   UNL     1      -3.941 -12.020  14.121  0.00  0.00    -0.287 N 
ATOM      8  N   UNL     1      -2.747 -11.047  16.740  0.00  0.00    -0.309 N 
ATOM     10  C   UNL     1      -5.089 -10.830  15.894  0.00  0.00    +0.182 C 
ATOM     11  C   UNL     1      -4.132 -11.424  16.932  0.00  0.00    +0.104 C 
ATOM     12  C   UNL     1      -2.776 -11.136  14.228  0.00  0.00    +0.164 C 
ATOM     13  C   UNL     1      -4.712 -10.943  18.258  0.00  0.00    +0.043 C 
ATOM     14  C   UNL     1      -6.210 -11.035  18.013  0.00  0.00    +0.110 C 
ATOM     15  C   UNL     1      -1.831 -11.637  13.118  0.00  0.00    +0.055 C 
ATOM     16  C   UNL     1      -2.754 -12.312  12.109  0.00  0.00    +0.092 C 
ATOM     17  C   UNL     1      -5.164 -11.831  14.756  0.00  0.00    +0.239 C 
ATOM     18  C   UNL     1      -3.802 -12.952  13.008  0.00  0.00    +0.131 C 
ATOM     20  C   UNL     1      -2.029 -11.068  15.566  0.00  0.00    +0.234 C 
ATOM     21  C   UNL     1      -7.453 -10.045  16.037  0.00  0.00    +0.219 C 
ATOM     30  H   UNL     1      -2.195 -10.942  17.586  0.00  0.00    +0.149 HD
ENDROOT
BRANCH  21  19
ATOM     19  C   UNL     1      -8.577  -9.719  16.975  0.00  0.00    +0.075 C 
ATOM     22  C   UNL     1      -9.202  -8.377  16.592  0.00  0.00    +0.013 C 
ATOM     23  C   UNL     1      -9.613 -10.845  16.957  0.00  0.00    +0.013 C 
ATOM     24  C   UNL     1     -10.412  -8.050  17.464  0.00  0.00    +0.001 C 
ATOM     25  C   UNL     1     -10.822 -10.513  17.827  0.00  0.00    +0.001 C 
ATOM     26  C   UNL     1     -11.444  -9.175  17.440  0.00  0.00    +0.000 C 
ENDBRANCH  21  19
BRANCH  16   9
ATOM      4  O   UNL     1      -3.889 -12.829   9.494  0.00  0.00    -0.273 OA
ATOM      9  N   UNL     1      -3.344 -11.353  11.206  0.00  0.00    -0.309 N 
ATOM     27  C   UNL     1      -3.865 -11.697   9.967  0.00  0.00    +0.239 C 
ATOM     31  H   UNL     1      -3.329 -10.373  11.476  0.00  0.00    +0.149 HD
BRANCH  27  28
ATOM     28  C   UNL     1      -4.417 -10.492   9.236  0.00  0.00    +0.255 C 
BRANCH  28   5
ATOM      5  O   UNL     1      -3.842  -9.302   9.731  0.00  0.00    -0.374 OA
ATOM     29  C   UNL     1      -4.832  -8.348  10.104  0.00  0.00    +0.194 C 
ENDBRANCH  28   5
ENDBRANCH  27  28
ENDBRANCH  16   9
TORSDOF 4
ENDMDL
MODEL 4
REMARK VINA RESULT:      -6.5     28.054     30.879
REMARK  Name = 11865911
REMARK  5 active torsions:
REMARK  status: ('A' for Active; 'I' for Inactive)
REMARK    1  A    between atoms: O_5  and  C_28
REMARK    2  A    between atoms: O_5  and  C_29
REMARK    3  A    between atoms: N_9  and  C_16
REMARK    4  A    between atoms: C_19  and  C_21
REMARK    5  A    between atoms: C_27  and  C_28
REMARK                            x       y       z     vdW  Elec       q    Type
REMARK                         _______ _______ _______ _____ _____    ______ ____
ROOT
ATOM      1  O   UNL     1      -5.702 -12.132  12.347  0.00  0.00    -0.273 OA
ATOM      2  O   UNL     1      -1.314  -8.909  10.580  0.00  0.00    -0.274 OA
ATOM      3  O   UNL     1      -6.457 -10.552  14.803  0.00  0.00    -0.275 OA
ATOM      6  N   UNL     1      -4.318 -11.421  14.637  0.00  0.00    -0.288 N 
ATOM      7  N   UNL     1      -4.455 -10.723  10.989  0.00  0.00    -0.287 N 
ATOM      8  N   UNL     1      -1.764 -10.273  12.326  0.00  0.00    -0.309 N 
ATOM     10  C   UNL     1      -3.978 -10.785  13.365  0.00  0.00    +0.182 C 
ATOM     11  C   UNL     1      -2.542 -11.234  13.079  0.00  0.00    +0.104 C 
ATOM     12  C   UNL     1      -3.628  -9.525  10.813  0.00  0.00    +0.164 C 
ATOM     13  C   UNL     1      -1.978 -11.510  14.470  0.00  0.00    +0.043 C 
ATOM     14  C   UNL     1      -3.167 -12.131  15.187  0.00  0.00    +0.110 C 
ATOM     15  C   UNL     1      -3.784  -9.185   9.318  0.00  0.00    +0.055 C 
ATOM     16  C   UNL     1      -5.121  -9.806   8.925  0.00  0.00    +0.092 C 
ATOM     17  C   UNL     1      -4.822 -11.285  12.207  0.00  0.00    +0.239 C 
ATOM     18  C   UNL     1      -5.140 -11.083   9.752  0.00  0.00    +0.131 C 
ATOM     20  C   UNL     1      -2.142  -9.601  11.185  0.00  0.00    +0.234 C 
ATOM     21  C   UNL     1      -5.505 -11.156  15.303  0.00  0.00    +0.219 C 
ATOM     30  H   UNL     1      -0.773 -10.235  12.544  0.00  0.00    +0.149 HD
ENDROOT
BRANCH  21  19
ATOM     19  C   UNL     1      -5.589 -11.661  16.713  0.00  0.00    +0.075 C 
ATOM     22  C   UNL     1      -5.380 -10.507  17.694  0.00  0.00    +0.013 C 
ATOM     23  C   UNL     1      -6.935 -12.353  16.939  0.00  0.00    +0.013 C 
ATOM     24  C   UNL     1      -5.550 -10.959  19.142  0.00  0.00    +0.001 C 
ATOM     25  C   UNL     1      -7.102 -12.801  18.389  0.00  0.00    +0.001 C 
ATOM     26  C   UNL     1      -6.896 -11.645  19.363  0.00  0.00    +0.000 C 
ENDBRANCH  21  19
BRANCH  16   9
ATOM      4  O   UNL     1      -7.212  -8.860   7.157  0.00  0.00    -0.273 OA
ATOM      9  N   UNL     1      -6.226  -8.940   9.262  0.00  0.00    -0.309 N 
ATOM     27  C   UNL     1      -7.184  -8.539   8.341  0.00  0.00    +0.239 C 
ATOM     31  H   UNL     1      -6.271  -8.571  10.208  0.00  0.00    +0.149 HD
BRANCH  27  28
ATOM     28  C   UNL     1      -8.223  -7.635   8.970  0.00  0.00    +0.255 C 
BRANCH  28   5
ATOM      5  O   UNL     1      -8.281  -6.398   8.295  0.00  0.00    -0.374 OA
ATOM     29  C   UNL     1      -9.619  -6.037   7.963  0.00  0.00    +0.194 C 
ENDBRANCH  28   5
ENDBRANCH  27  28
ENDBRANCH  16   9
TORSDOF 4
ENDMDL
MODEL 5
REMARK VINA RESULT:      -6.4     27.466     30.648
REMARK  Name = 11865911
REMARK  5 active torsions:
REMARK  status: ('A' for Active; 'I' for Inactive)
REMARK    1  A    between atoms: O_5  and  C_28
REMARK    2  A    between atoms: O_5  and  C_29
REMARK    3  A    between atoms: N_9  and  C_16
REMARK    4  A    between atoms: C_19  and  C_21
REMARK    5  A    between atoms: C_27  and  C_28
REMARK                            x       y       z     vdW  Elec       q    Type
REMARK                         _______ _______ _______ _____ _____    ______ ____
ROOT
ATOM      1  O   UNL     1      -6.271 -12.563  15.222  0.00  0.00    -0.273 OA
ATOM      2  O   UNL     1      -1.043 -10.329  15.892  0.00  0.00    -0.274 OA
ATOM      3  O   UNL     1      -7.865 -10.375  16.552  0.00  0.00    -0.275 OA
ATOM      6  N   UNL     1      -6.235 -11.478  17.769  0.00  0.00    -0.288 N 
ATOM      7  N   UNL     1      -4.212 -11.655  14.656  0.00  0.00    -0.287 N 
ATOM      8  N   UNL     1      -2.657 -11.185  17.224  0.00  0.00    -0.309 N 
ATOM     10  C   UNL     1      -5.128 -11.201  16.854  0.00  0.00    +0.182 C 
ATOM     11  C   UNL     1      -3.908 -11.852  17.512  0.00  0.00    +0.104 C 
ATOM     12  C   UNL     1      -3.181 -10.626  14.829  0.00  0.00    +0.164 C 
ATOM     13  C   UNL     1      -4.268 -11.848  18.995  0.00  0.00    +0.043 C 
ATOM     14  C   UNL     1      -5.757 -12.153  18.972  0.00  0.00    +0.110 C 
ATOM     15  C   UNL     1      -2.421 -10.636  13.488  0.00  0.00    +0.055 C 
ATOM     16  C   UNL     1      -3.428 -11.189  12.485  0.00  0.00    +0.092 C 
ATOM     17  C   UNL     1      -5.294 -11.870  15.502  0.00  0.00    +0.239 C 
ATOM     18  C   UNL     1      -4.175 -12.224  13.314  0.00  0.00    +0.131 C 
ATOM     20  C   UNL     1      -2.195 -10.767  15.996  0.00  0.00    +0.234 C 
ATOM     21  C   UNL     1      -7.499 -10.938  17.586  0.00  0.00    +0.219 C 
ATOM     30  H   UNL     1      -1.964 -11.200  17.966  0.00  0.00    +0.149 HD
ENDROOT
BRANCH  21  19
ATOM     19  C   UNL     1      -8.444 -11.083  18.742  0.00  0.00    +0.075 C 
ATOM     22  C   UNL     1      -9.596 -10.088  18.601  0.00  0.00    +0.013 C 
ATOM     23  C   UNL     1      -8.954 -12.524  18.820  0.00  0.00    +0.013 C 
ATOM     24  C   UNL     1     -10.632 -10.264  19.708  0.00  0.00    +0.001 C 
ATOM     25  C   UNL     1      -9.991 -12.695  19.926  0.00  0.00    +0.001 C 
ATOM     26  C   UNL     1     -11.140 -11.702  19.780  0.00  0.00    +0.000 C 
ENDBRANCH  21  19
BRANCH  16   9
ATOM      4  O   UNL     1      -3.106  -9.570  10.104  0.00  0.00    -0.273 OA
ATOM      9  N   UNL     1      -4.315 -10.158  12.002  0.00  0.00    -0.309 N 
ATOM     27  C   UNL     1      -4.075  -9.432  10.844  0.00  0.00    +0.239 C 
ATOM     31  H   UNL     1      -5.126  -9.923  12.568  0.00  0.00    +0.149 HD
BRANCH  27  28
ATOM     28  C   UNL     1      -5.169  -8.419  10.580  0.00  0.00    +0.255 C 
BRANCH  28   5
ATOM      5  O   UNL     1      -5.530  -8.420   9.216  0.00  0.00    -0.374 OA
ATOM     29  C   UNL     1      -6.625  -9.294   8.957  0.00  0.00    +0.194 C 
ENDBRANCH  28   5
ENDBRANCH  27  28
ENDBRANCH  16   9
TORSDOF 4
ENDMDL
MODEL 6
REMARK VINA RESULT:      -6.3     29.198     33.029
REMARK  Name = 11865911
REMARK  5 active torsions:
REMARK  status: ('A' for Active; 'I' for Inactive)
REMARK    1  A    between atoms: O_5  and  C_28
REMARK    2  A    between atoms: O_5  and  C_29
REMARK    3  A    between atoms: N_9  and  C_16
REMARK    4  A    between atoms: C_19  and  C_21
REMARK    5  A    between atoms: C_27  and  C_28
REMARK                            x       y       z     vdW  Elec       q    Type
REMARK                         _______ _______ _______ _____ _____    ______ ____
ROOT
ATOM      1  O   UNL     1      -8.326  -9.774   9.309  0.00  0.00    -0.273 OA
ATOM      2  O   UNL     1      -7.415  -8.097   3.912  0.00  0.00    -0.274 OA
ATOM      3  O   UNL     1      -5.869  -8.564  10.573  0.00  0.00    -0.275 OA
ATOM      6  N   UNL     1      -5.613 -10.103   8.864  0.00  0.00    -0.288 N 
ATOM      7  N   UNL     1      -8.664  -8.674   7.293  0.00  0.00    -0.287 N 
ATOM      8  N   UNL     1      -6.461  -9.526   5.381  0.00  0.00    -0.309 N 
ATOM     10  C   UNL     1      -6.422  -9.391   7.876  0.00  0.00    +0.182 C 
ATOM     11  C   UNL     1      -6.361 -10.266   6.621  0.00  0.00    +0.104 C 
ATOM     12  C   UNL     1      -8.157  -7.854   6.188  0.00  0.00    +0.164 C 
ATOM     13  C   UNL     1      -5.036 -11.007   6.776  0.00  0.00    +0.043 C 
ATOM     14  C   UNL     1      -4.988 -11.282   8.271  0.00  0.00    +0.110 C 
ATOM     15  C   UNL     1      -9.422  -7.183   5.618  0.00  0.00    +0.055 C 
ATOM     16  C   UNL     1     -10.407  -7.176   6.782  0.00  0.00    +0.092 C 
ATOM     17  C   UNL     1      -7.886  -9.299   8.263  0.00  0.00    +0.239 C 
ATOM     18  C   UNL     1     -10.100  -8.498   7.472  0.00  0.00    +0.131 C 
ATOM     20  C   UNL     1      -7.373  -8.545   5.064  0.00  0.00    +0.234 C 
ATOM     21  C   UNL     1      -5.317  -9.563  10.106  0.00  0.00    +0.219 C 
ATOM     30  H   UNL     1      -5.935  -9.900   4.597  0.00  0.00    +0.149 HD
ENDROOT
BRANCH  21  19
ATOM     19  C   UNL     1      -4.260 -10.279  10.894  0.00  0.00    +0.075 C 
ATOM     22  C   UNL     1      -2.919  -9.561  10.739  0.00  0.00    +0.013 C 
ATOM     23  C   UNL     1      -4.679 -10.375  12.362  0.00  0.00    +0.013 C 
ATOM     24  C   UNL     1      -1.833 -10.202  11.600  0.00  0.00    +0.001 C 
ATOM     25  C   UNL     1      -3.590 -11.013  13.219  0.00  0.00    +0.001 C 
ATOM     26  C   UNL     1      -2.255 -10.292  13.064  0.00  0.00    +0.000 C 
ENDBRANCH  21  19
BRANCH  16   9
ATOM      4  O   UNL     1     -12.383  -5.726   8.327  0.00  0.00    -0.273 OA
ATOM      9  N   UNL     1     -10.179  -6.054   7.661  0.00  0.00    -0.309 N 
ATOM     27  C   UNL     1     -11.195  -5.421   8.363  0.00  0.00    +0.239 C 
ATOM     31  H   UNL     1      -9.234  -5.684   7.726  0.00  0.00    +0.149 HD
BRANCH  27  28
ATOM     28  C   UNL     1     -10.668  -4.279   9.205  0.00  0.00    +0.255 C 
BRANCH  28   5
ATOM      5  O   UNL     1     -11.725  -3.451   9.639  0.00  0.00    -0.374 OA
ATOM     29  C   UNL     1     -11.969  -3.589  11.036  0.00  0.00    +0.194 C 
ENDBRANCH  28   5
ENDBRANCH  27  28
ENDBRANCH  16   9
TORSDOF 4
ENDMDL
MODEL 7
REMARK VINA RESULT:      -6.2     28.531     31.536
REMARK  Name = 11865911
REMARK  5 active torsions:
REMARK  status: ('A' for Active; 'I' for Inactive)
REMARK    1  A    between atoms: O_5  and  C_28
REMARK    2  A    between atoms: O_5  and  C_29
REMARK    3  A    between atoms: N_9  and  C_16
REMARK    4  A    between atoms: C_19  and  C_21
REMARK    5  A    between atoms: C_27  and  C_28
REMARK                            x       y       z     vdW  Elec       q    Type
REMARK                         _______ _______ _______ _____ _____    ______ ____
ROOT
ATOM      1  O   UNL     1      -8.553 -11.668  15.459  0.00  0.00    -0.273 OA
ATOM      2  O   UNL     1      -6.144 -10.906  20.596  0.00  0.00    -0.274 OA
ATOM      3  O   UNL     1      -9.067  -8.776  14.774  0.00  0.00    -0.275 OA
ATOM      6  N   UNL     1     -10.015  -9.664  16.689  0.00  0.00    -0.288 N 
ATOM      7  N   UNL     1      -6.932 -11.695  17.120  0.00  0.00    -0.287 N 
ATOM      8  N   UNL     1      -8.189 -10.634  19.675  0.00  0.00    -0.309 N 
ATOM     10  C   UNL     1      -8.766 -10.119  17.298  0.00  0.00    +0.182 C 
ATOM     11  C   UNL     1      -9.188 -10.741  18.633  0.00  0.00    +0.104 C 
ATOM     12  C   UNL     1      -6.195 -11.020  18.193  0.00  0.00    +0.164 C 
ATOM     13  C   UNL     1     -10.487 -10.009  18.963  0.00  0.00    +0.043 C 
ATOM     14  C   UNL     1     -11.140  -9.870  17.597  0.00  0.00    +0.110 C 
ATOM     15  C   UNL     1      -4.873 -11.806  18.283  0.00  0.00    +0.055 C 
ATOM     16  C   UNL     1      -4.706 -12.429  16.901  0.00  0.00    +0.092 C 
ATOM     17  C   UNL     1      -8.087 -11.222  16.507  0.00  0.00    +0.239 C 
ATOM     18  C   UNL     1      -6.141 -12.764  16.522  0.00  0.00    +0.131 C 
ATOM     20  C   UNL     1      -6.847 -10.921  19.578  0.00  0.00    +0.234 C 
ATOM     21  C   UNL     1     -10.040  -8.926  15.515  0.00  0.00    +0.219 C 
ATOM     30  H   UNL     1      -8.544 -10.525  20.619  0.00  0.00    +0.149 HD
ENDROOT
BRANCH  21  19
ATOM     19  C   UNL     1     -11.358  -8.300  15.167  0.00  0.00    +0.075 C 
ATOM     22  C   UNL     1     -11.376  -6.839  15.619  0.00  0.00    +0.013 C 
ATOM     23  C   UNL     1     -11.614  -8.425  13.664  0.00  0.00    +0.013 C 
ATOM     24  C   UNL     1     -12.665  -6.135  15.200  0.00  0.00    +0.001 C 
ATOM     25  C   UNL     1     -12.901  -7.718  13.250  0.00  0.00    +0.001 C 
ATOM     26  C   UNL     1     -12.913  -6.261  13.699  0.00  0.00    +0.000 C 
ENDBRANCH  21  19
BRANCH  16   9
ATOM      4  O   UNL     1      -3.103 -13.056  14.570  0.00  0.00    -0.273 OA
ATOM      9  N   UNL     1      -4.115 -11.498  15.969  0.00  0.00    -0.309 N 
ATOM     27  C   UNL     1      -3.359 -11.895  14.876  0.00  0.00    +0.239 C 
ATOM     31  H   UNL     1      -4.220 -10.504  16.157  0.00  0.00    +0.149 HD
BRANCH  27  28
ATOM     28  C   UNL     1      -2.867 -10.709  14.073  0.00  0.00    +0.255 C 
BRANCH  28   5
ATOM      5  O   UNL     1      -1.882 -11.110  13.145  0.00  0.00    -0.374 OA
ATOM     29  C   UNL     1      -1.991 -10.399  11.915  0.00  0.00    +0.194 C 
ENDBRANCH  28   5
ENDBRANCH  27  28
ENDBRANCH  16   9
TORSDOF 4
ENDMDL
MODEL 8
REMARK VINA RESULT:      -6.0     28.090     30.573
REMARK  Name = 11865911
REMARK  5 active torsions:
REMARK  status: ('A' for Active; 'I' for Inactive)
REMARK    1  A    between atoms: O_5  and  C_28
REMARK    2  A    between atoms: O_5  and  C_29
REMARK    3  A    between atoms: N_9  and  C_16
REMARK    4  A    between atoms: C_19  and  C_21
REMARK    5  A    between atoms: C_27  and  C_28
REMARK                            x       y       z     vdW  Elec       q    Type
REMARK                         _______ _______ _______ _____ _____    ______ ____
ROOT
ATOM      1  O   UNL     1      -3.824  -8.864  10.663  0.00  0.00    -0.273 OA
ATOM      2  O   UNL     1      -3.025 -14.480  11.430  0.00  0.00    -0.274 OA
ATOM      3  O   UNL     1      -6.835  -8.862  10.486  0.00  0.00    -0.275 OA
ATOM      6  N   UNL     1      -5.619 -10.120   8.971  0.00  0.00    -0.288 N 
ATOM      7  N   UNL     1      -3.206 -10.845  11.703  0.00  0.00    -0.287 N 
ATOM      8  N   UNL     1      -3.747 -13.127   9.770  0.00  0.00    -0.309 N 
ATOM     10  C   UNL     1      -4.890 -10.913   9.960  0.00  0.00    +0.182 C 
ATOM     11  C   UNL     1      -4.013 -11.856   9.131  0.00  0.00    +0.104 C 
ATOM     12  C   UNL     1      -3.510 -12.222  12.104  0.00  0.00    +0.164 C 
ATOM     13  C   UNL     1      -4.785 -11.989   7.821  0.00  0.00    +0.043 C 
ATOM     14  C   UNL     1      -5.328 -10.583   7.617  0.00  0.00    +0.110 C 
ATOM     15  C   UNL     1      -2.579 -12.469  13.308  0.00  0.00    +0.055 C 
ATOM     16  C   UNL     1      -2.298 -11.076  13.863  0.00  0.00    +0.092 C 
ATOM     17  C   UNL     1      -3.944 -10.080  10.805  0.00  0.00    +0.239 C 
ATOM     18  C   UNL     1      -2.233 -10.232  12.599  0.00  0.00    +0.131 C 
ATOM     20  C   UNL     1      -3.341 -13.340  11.068  0.00  0.00    +0.234 C 
ATOM     21  C   UNL     1      -6.620  -9.229   9.329  0.00  0.00    +0.219 C 
ATOM     30  H   UNL     1      -3.661 -13.926   9.151  0.00  0.00    +0.149 HD
ENDROOT
BRANCH  21  19
ATOM     19  C   UNL     1      -7.459  -8.703   8.202  0.00  0.00    +0.075 C 
ATOM     22  C   UNL     1      -8.808  -9.423   8.176  0.00  0.00    +0.013 C 
ATOM     23  C   UNL     1      -7.634  -7.190   8.344  0.00  0.00    +0.013 C 
ATOM     24  C   UNL     1      -9.731  -8.854   7.102  0.00  0.00    +0.001 C 
ATOM     25  C   UNL     1      -8.559  -6.626   7.270  0.00  0.00    +0.001 C 
ATOM     26  C   UNL     1      -9.904  -7.344   7.251  0.00  0.00    +0.000 C 
ENDBRANCH  21  19
BRANCH  16   9
ATOM      4  O   UNL     1      -2.242 -10.957  16.757  0.00  0.00    -0.273 OA
ATOM      9  N   UNL     1      -3.355 -10.634  14.741  0.00  0.00    -0.309 N 
ATOM     27  C   UNL     1      -3.235 -10.612  16.123  0.00  0.00    +0.239 C 
ATOM     31  H   UNL     1      -4.245 -10.374  14.323  0.00  0.00    +0.149 HD
BRANCH  27  28
ATOM     28  C   UNL     1      -4.495 -10.103  16.789  0.00  0.00    +0.255 C 
BRANCH  28   5
ATOM      5  O   UNL     1      -5.187 -11.159  17.419  0.00  0.00    -0.374 OA
ATOM     29  C   UNL     1      -5.346 -10.930  18.817  0.00  0.00    +0.194 C 
ENDBRANCH  28   5
ENDBRANCH  27  28
ENDBRANCH  16   9
TORSDOF 4
ENDMDL
MODEL 9
REMARK VINA RESULT:      -6.0     29.244     31.466
REMARK  Name = 11865911
REMARK  5 active torsions:
REMARK  status: ('A' for Active; 'I' for Inactive)
REMARK    1  A    between atoms: O_5  and  C_28
REMARK    2  A    between atoms: O_5  and  C_29
REMARK    3  A    between atoms: N_9  and  C_16
REMARK    4  A    between atoms: C_19  and  C_21
REMARK    5  A    between atoms: C_27  and  C_28
REMARK                            x       y       z     vdW  Elec       q    Type
REMARK                         _______ _______ _______ _____ _____    ______ ____
ROOT
ATOM      1  O   UNL     1     -11.713   7.315  18.684  0.00  0.00    -0.273 OA
ATOM      2  O   UNL     1     -11.236  12.829  17.223  0.00  0.00    -0.274 OA
ATOM      3  O   UNL     1     -14.618   7.318  19.495  0.00  0.00    -0.275 OA
ATOM      6  N   UNL     1     -13.143   8.727  20.588  0.00  0.00    -0.288 N 
ATOM      7  N   UNL     1     -11.378   9.184  17.349  0.00  0.00    -0.287 N 
ATOM      8  N   UNL     1     -11.557  11.645  19.121  0.00  0.00    -0.309 N 
ATOM     10  C   UNL     1     -12.658   9.419  19.395  0.00  0.00    +0.182 C 
ATOM     11  C   UNL     1     -11.651  10.444  19.924  0.00  0.00    +0.104 C 
ATOM     12  C   UNL     1     -11.794  10.513  16.889  0.00  0.00    +0.164 C 
ATOM     13  C   UNL     1     -12.133  10.705  21.348  0.00  0.00    +0.043 C 
ATOM     14  C   UNL     1     -12.585   9.324  21.798  0.00  0.00    +0.110 C 
ATOM     15  C   UNL     1     -11.144  10.641  15.498  0.00  0.00    +0.055 C 
ATOM     16  C   UNL     1     -10.952   9.201  15.034  0.00  0.00    +0.092 C 
ATOM     17  C   UNL     1     -11.891   8.510  18.453  0.00  0.00    +0.239 C 
ATOM     18  C   UNL     1     -10.600   8.487  16.331  0.00  0.00    +0.131 C 
ATOM     20  C   UNL     1     -11.439  11.730  17.752  0.00  0.00    +0.234 C 
ATOM     21  C   UNL     1     -14.174   7.800  20.539  0.00  0.00    +0.219 C 
ATOM     30  H   UNL     1     -11.363  12.503  19.628  0.00  0.00    +0.149 HD
ENDROOT
BRANCH  21  19
ATOM     19  C   UNL     1     -14.743   7.387  21.864  0.00  0.00    +0.075 C 
ATOM     22  C   UNL     1     -16.261   7.578  21.861  0.00  0.00    +0.013 C 
ATOM     23  C   UNL     1     -14.361   5.936  22.165  0.00  0.00    +0.013 C 
ATOM     24  C   UNL     1     -16.893   7.081  23.159  0.00  0.00    +0.001 C 
ATOM     25  C   UNL     1     -14.998   5.443  23.461  0.00  0.00    +0.001 C 
ATOM     26  C   UNL     1     -16.512   5.633  23.453  0.00  0.00    +0.000 C 
ENDBRANCH  21  19
BRANCH  16   9
ATOM      4  O   UNL     1     -11.182   6.929  13.250  0.00  0.00    -0.273 OA
ATOM      9  N   UNL     1     -12.158   8.668  14.447  0.00  0.00    -0.309 N 
ATOM     27  C   UNL     1     -12.169   7.570  13.599  0.00  0.00    +0.239 C 
ATOM     31  H   UNL     1     -13.032   9.156  14.628  0.00  0.00    +0.149 HD
BRANCH  27  28
ATOM     28  C   UNL     1     -13.570   7.233  13.135  0.00  0.00    +0.255 C 
BRANCH  28   5
ATOM      5  O   UNL     1     -13.688   5.852  12.866  0.00  0.00    -0.374 OA
ATOM     29  C   UNL     1     -14.893   5.548  12.170  0.00  0.00    +0.194 C 
ENDBRANCH  28   5
ENDBRANCH  27  28
ENDBRANCH  16   9
TORSDOF 4
ENDMDL
MODEL 10
REMARK VINA RESULT:      -5.7     24.603     27.593
REMARK  Name = 11865911
REMARK  5 active torsions:
REMARK  status: ('A' for Active; 'I' for Inactive)
REMARK    1  A    between atoms: O_5  and  C_28
REMARK    2  A    between atoms: O_5  and  C_29
REMARK    3  A    between atoms: N_9  and  C_16
REMARK    4  A    between atoms: C_19  and  C_21
REMARK    5  A    between atoms: C_27  and  C_28
REMARK                            x       y       z     vdW  Elec       q    Type
REMARK                         _______ _______ _______ _____ _____    ______ ____
ROOT
ATOM      1  O   UNL     1      -7.699  12.193  35.675  0.00  0.00    -0.273 OA
ATOM      2  O   UNL     1      -3.844  13.374  31.611  0.00  0.00    -0.274 OA
ATOM      3  O   UNL     1      -8.740   9.591  34.559  0.00  0.00    -0.275 OA
ATOM      6  N   UNL     1      -8.898  11.510  33.275  0.00  0.00    -0.288 N 
ATOM      7  N   UNL     1      -5.631  12.574  34.691  0.00  0.00    -0.287 N 
ATOM      8  N   UNL     1      -6.096  13.258  31.768  0.00  0.00    -0.309 N 
ATOM     10  C   UNL     1      -7.475  11.843  33.297  0.00  0.00    +0.182 C 
ATOM     11  C   UNL     1      -7.362  13.117  32.455  0.00  0.00    +0.104 C 
ATOM     12  C   UNL     1      -4.667  12.327  33.615  0.00  0.00    +0.164 C 
ATOM     13  C   UNL     1      -8.555  13.018  31.509  0.00  0.00    +0.043 C 
ATOM     14  C   UNL     1      -9.632  12.422  32.403  0.00  0.00    +0.110 C 
ATOM     15  C   UNL     1      -3.306  12.668  34.254  0.00  0.00    +0.055 C 
ATOM     16  C   UNL     1      -3.531  12.477  35.750  0.00  0.00    +0.092 C 
ATOM     17  C   UNL     1      -6.971  12.198  34.683  0.00  0.00    +0.239 C 
ATOM     18  C   UNL     1      -4.962  12.963  35.927  0.00  0.00    +0.131 C 
ATOM     20  C   UNL     1      -4.835  13.087  32.293  0.00  0.00    +0.234 C 
ATOM     21  C   UNL     1      -9.393  10.336  33.825  0.00  0.00    +0.219 C 
ATOM     30  H   UNL     1      -6.131  13.718  30.863  0.00  0.00    +0.149 HD
ENDROOT
BRANCH  21  19
ATOM     19  C   UNL     1     -10.815  10.005  33.484  0.00  0.00    +0.075 C 
ATOM     22  C   UNL     1     -10.857   9.101  32.250  0.00  0.00    +0.013 C 
ATOM     23  C   UNL     1     -11.499   9.347  34.684  0.00  0.00    +0.013 C 
ATOM     24  C   UNL     1     -12.282   8.661  31.922  0.00  0.00    +0.001 C 
ATOM     25  C   UNL     1     -12.922   8.907  34.350  0.00  0.00    +0.001 C 
ATOM     26  C   UNL     1     -12.959   8.003  33.122  0.00  0.00    +0.000 C 
ENDBRANCH  21  19
BRANCH  16   9
ATOM      4  O   UNL     1      -1.116  11.131  36.618  0.00  0.00    -0.273 OA
ATOM      9  N   UNL     1      -3.391  11.092  36.134  0.00  0.00    -0.309 N 
ATOM     27  C   UNL     1      -2.186  10.535  36.538  0.00  0.00    +0.239 C 
ATOM     31  H   UNL     1      -4.206  10.491  36.055  0.00  0.00    +0.149 HD
BRANCH  27  28
ATOM     28  C   UNL     1      -2.334   9.068  36.881  0.00  0.00    +0.255 C 
BRANCH  28   5
ATOM      5  O   UNL     1      -1.455   8.709  37.925  0.00  0.00    -0.374 OA
ATOM     29  C   UNL     1      -0.684   7.556  37.598  0.00  0.00    +0.194 C 
ENDBRANCH  28   5
ENDBRANCH  27  28
ENDBRANCH  16   9
TORSDOF 4
ENDMDL
