MODEL 1
REMARK VINA RESULT:      -6.8      0.000      0.000
REMARK  Name = 75536982
REMARK  4 active torsions:
REMARK  status: ('A' for Active; 'I' for Inactive)
REMARK    1  A    between atoms: S_1  and  N_6
REMARK    2  A    between atoms: S_1  and  C_16
REMARK    3  A    between atoms: N_7  and  C_15
REMARK    4  A    between atoms: C_15  and  C_17
REMARK                            x       y       z     vdW  Elec       q    Type
REMARK                         _______ _______ _______ _____ _____    ______ ____
ROOT
ATOM      2  O   UNL     1      12.056   6.693  18.808  0.00  0.00    -0.252 OA
ATOM      5  N   UNL     1      12.784   8.722  17.874  0.00  0.00    -0.278 N 
ATOM      6  N   UNL     1      13.410  10.582  15.883  0.00  0.00    -0.178 NA
ATOM      7  N   UNL     1      13.999   7.815  19.531  0.00  0.00    -0.278 N 
ATOM      9  C   UNL     1      13.818   9.703  18.144  0.00  0.00    +0.111 C 
ATOM     10  C   UNL     1      14.478  10.153  16.846  0.00  0.00    +0.133 C 
ATOM     11  C   UNL     1      14.751   8.987  19.118  0.00  0.00    +0.133 C 
ATOM     12  C   UNL     1      11.782   8.997  16.862  0.00  0.00    +0.127 C 
ATOM     13  C   UNL     1      12.453   9.467  15.575  0.00  0.00    +0.128 C 
ATOM     14  C   UNL     1      12.844   7.627  18.747  0.00  0.00    +0.306 C 
ENDROOT
BRANCH   6   1
ATOM      1  S   UNL     1      13.968  11.461  14.521  0.00  0.00    +0.029 S 
ATOM      3  O   UNL     1      12.845  11.727  13.650  0.00  0.00    -0.158 OA
ATOM      4  O   UNL     1      15.179  10.841  14.034  0.00  0.00    -0.158 OA
ATOM     16  C   UNL     1      14.412  12.977  15.326  0.00  0.00    +0.215 C 
ENDBRANCH   6   1
BRANCH   7  15
ATOM     15  C   UNL     1      14.491   6.908  20.544  0.00  0.00    +0.164 C 
BRANCH  15  17
ATOM      8  N   UNL     1      16.250   5.966  19.157  0.00  0.00    -0.258 NA
ATOM     17  C   UNL     1      15.935   6.558  20.332  0.00  0.00    +0.059 A 
ATOM     18  C   UNL     1      16.857   6.851  21.324  0.00  0.00    +0.025 A 
ATOM     19  C   UNL     1      18.187   6.516  21.097  0.00  0.00    +0.003 A 
ATOM     20  C   UNL     1      17.552   5.655  18.972  0.00  0.00    +0.111 A 
ATOM     21  C   UNL     1      18.549   5.906  19.901  0.00  0.00    +0.020 A 
ENDBRANCH  15  17
ENDBRANCH   7  15
TORSDOF 3
ENDMDL
MODEL 2
REMARK VINA RESULT:      -6.3      4.498      7.399
REMARK  Name = 75536982
REMARK  4 active torsions:
REMARK  status: ('A' for Active; 'I' for Inactive)
REMARK    1  A    between atoms: S_1  and  N_6
REMARK    2  A    between atoms: S_1  and  C_16
REMARK    3  A    between atoms: N_7  and  C_15
REMARK    4  A    between atoms: C_15  and  C_17
REMARK                            x       y       z     vdW  Elec       q    Type
REMARK                         _______ _______ _______ _____ _____    ______ ____
ROOT
ATOM      2  O   UNL     1      15.642   9.620  20.416  0.00  0.00    -0.252 OA
ATOM      5  N   UNL     1      17.146   7.859  20.809  0.00  0.00    -0.278 N 
ATOM      6  N   UNL     1      19.610   6.562  21.069  0.00  0.00    -0.178 NA
ATOM      7  N   UNL     1      15.361   7.464  19.503  0.00  0.00    -0.278 N 
ATOM      9  C   UNL     1      17.215   6.439  20.519  0.00  0.00    +0.111 C 
ATOM     10  C   UNL     1      18.618   6.055  20.064  0.00  0.00    +0.133 C 
ATOM     11  C   UNL     1      16.125   6.229  19.471  0.00  0.00    +0.133 C 
ATOM     12  C   UNL     1      18.144   8.464  21.670  0.00  0.00    +0.127 C 
ATOM     13  C   UNL     1      19.543   8.055  21.217  0.00  0.00    +0.128 C 
ATOM     14  C   UNL     1      16.003   8.460  20.264  0.00  0.00    +0.306 C 
ENDROOT
BRANCH   6   1
ATOM      1  S   UNL     1      21.190   5.915  20.925  0.00  0.00    +0.029 S 
ATOM      3  O   UNL     1      22.007   6.847  20.182  0.00  0.00    -0.158 OA
ATOM      4  O   UNL     1      21.088   4.523  20.548  0.00  0.00    -0.158 OA
ATOM     16  C   UNL     1      21.681   5.988  22.628  0.00  0.00    +0.215 C 
ENDBRANCH   6   1
BRANCH   7  15
ATOM     15  C   UNL     1      14.159   7.641  18.720  0.00  0.00    +0.164 C 
BRANCH  15  17
ATOM      8  N   UNL     1      12.736   6.613  20.401  0.00  0.00    -0.258 NA
ATOM     17  C   UNL     1      12.927   7.670  19.579  0.00  0.00    +0.059 A 
ATOM     18  C   UNL     1      12.067   8.752  19.494  0.00  0.00    +0.025 A 
ATOM     19  C   UNL     1      10.936   8.750  20.304  0.00  0.00    +0.003 A 
ATOM     20  C   UNL     1      11.627   6.646  21.172  0.00  0.00    +0.111 A 
ATOM     21  C   UNL     1      10.705   7.680  21.161  0.00  0.00    +0.020 A 
ENDBRANCH  15  17
ENDBRANCH   7  15
TORSDOF 3
ENDMDL
MODEL 3
REMARK VINA RESULT:      -6.1      4.533      6.740
REMARK  Name = 75536982
REMARK  4 active torsions:
REMARK  status: ('A' for Active; 'I' for Inactive)
REMARK    1  A    between atoms: S_1  and  N_6
REMARK    2  A    between atoms: S_1  and  C_16
REMARK    3  A    between atoms: N_7  and  C_15
REMARK    4  A    between atoms: C_15  and  C_17
REMARK                            x       y       z     vdW  Elec       q    Type
REMARK                         _______ _______ _______ _____ _____    ______ ____
ROOT
ATOM      2  O   UNL     1      10.506   7.641  20.525  0.00  0.00    -0.252 OA
ATOM      5  N   UNL     1      11.867   8.997  21.877  0.00  0.00    -0.278 N 
ATOM      6  N   UNL     1      12.608  11.211  23.416  0.00  0.00    -0.178 NA
ATOM      7  N   UNL     1      12.781   8.048  20.057  0.00  0.00    -0.278 N 
ATOM      9  C   UNL     1      13.273   9.350  21.950  0.00  0.00    +0.111 C 
ATOM     10  C   UNL     1      13.434  10.841  22.219  0.00  0.00    +0.133 C 
ATOM     11  C   UNL     1      13.835   8.880  20.611  0.00  0.00    +0.133 C 
ATOM     12  C   UNL     1      10.965   9.425  22.928  0.00  0.00    +0.127 C 
ATOM     13  C   UNL     1      11.152  10.915  23.203  0.00  0.00    +0.128 C 
ATOM     14  C   UNL     1      11.582   8.161  20.788  0.00  0.00    +0.306 C 
ENDROOT
BRANCH   6   1
ATOM      1  S   UNL     1      12.948  12.749  24.090  0.00  0.00    +0.029 S 
ATOM      3  O   UNL     1      12.789  12.672  25.525  0.00  0.00    -0.158 OA
ATOM      4  O   UNL     1      12.278  13.759  23.302  0.00  0.00    -0.158 OA
ATOM     16  C   UNL     1      14.683  12.836  23.733  0.00  0.00    +0.215 C 
ENDBRANCH   6   1
BRANCH   7  15
ATOM     15  C   UNL     1      12.953   7.314  18.823  0.00  0.00    +0.164 C 
BRANCH  15  17
ATOM      8  N   UNL     1      11.146   7.920  17.315  0.00  0.00    -0.258 NA
ATOM     17  C   UNL     1      12.450   8.084  17.636  0.00  0.00    +0.059 A 
ATOM     18  C   UNL     1      13.322   8.908  16.944  0.00  0.00    +0.025 A 
ATOM     19  C   UNL     1      12.825   9.609  15.850  0.00  0.00    +0.003 A 
ATOM     20  C   UNL     1      10.700   8.617  16.247  0.00  0.00    +0.111 A 
ATOM     21  C   UNL     1      11.490   9.466  15.489  0.00  0.00    +0.020 A 
ENDBRANCH  15  17
ENDBRANCH   7  15
TORSDOF 3
ENDMDL
MODEL 4
REMARK VINA RESULT:      -5.7     26.653     28.255
REMARK  Name = 75536982
REMARK  4 active torsions:
REMARK  status: ('A' for Active; 'I' for Inactive)
REMARK    1  A    between atoms: S_1  and  N_6
REMARK    2  A    between atoms: S_1  and  C_16
REMARK    3  A    between atoms: N_7  and  C_15
REMARK    4  A    between atoms: C_15  and  C_17
REMARK                            x       y       z     vdW  Elec       q    Type
REMARK                         _______ _______ _______ _____ _____    ______ ____
ROOT
ATOM      2  O   UNL     1      -3.562 -14.182  14.169  0.00  0.00    -0.252 OA
ATOM      5  N   UNL     1      -4.147 -12.733  15.923  0.00  0.00    -0.278 N 
ATOM      6  N   UNL     1      -5.800 -11.376  17.723  0.00  0.00    -0.178 NA
ATOM      7  N   UNL     1      -2.664 -12.014  14.396  0.00  0.00    -0.278 N 
ATOM      9  C   UNL     1      -3.717 -11.437  16.415  0.00  0.00    +0.111 C 
ATOM     10  C   UNL     1      -4.923 -10.586  16.796  0.00  0.00    +0.133 C 
ATOM     11  C   UNL     1      -2.877 -10.875  15.271  0.00  0.00    +0.133 C 
ATOM     12  C   UNL     1      -5.097 -13.513  16.691  0.00  0.00    +0.127 C 
ATOM     13  C   UNL     1      -6.288 -12.645  17.086  0.00  0.00    +0.128 C 
ATOM     14  C   UNL     1      -3.468 -13.113  14.756  0.00  0.00    +0.306 C 
ENDROOT
BRANCH   6   1
ATOM      1  S   UNL     1      -6.997 -10.466  18.545  0.00  0.00    +0.029 S 
ATOM      3  O   UNL     1      -7.375  -9.342  17.718  0.00  0.00    -0.158 OA
ATOM      4  O   UNL     1      -6.587 -10.297  19.921  0.00  0.00    -0.158 OA
ATOM     16  C   UNL     1      -8.322 -11.646  18.509  0.00  0.00    +0.215 C 
ENDBRANCH   6   1
BRANCH   7  15
ATOM     15  C   UNL     1      -1.817 -11.934  13.226  0.00  0.00    +0.164 C 
BRANCH  15  17
ATOM      8  N   UNL     1      -3.653 -11.318  11.758  0.00  0.00    -0.258 NA
ATOM     17  C   UNL     1      -2.397 -11.035  12.173  0.00  0.00    +0.059 A 
ATOM     18  C   UNL     1      -1.638  -9.982  11.687  0.00  0.00    +0.025 A 
ATOM     19  C   UNL     1      -2.204  -9.167  10.713  0.00  0.00    +0.003 A 
ATOM     20  C   UNL     1      -4.169 -10.505  10.811  0.00  0.00    +0.111 A 
ATOM     21  C   UNL     1      -3.493  -9.427  10.261  0.00  0.00    +0.020 A 
ENDBRANCH  15  17
ENDBRANCH   7  15
TORSDOF 3
ENDMDL
MODEL 5
REMARK VINA RESULT:      -5.3      3.459      5.281
REMARK  Name = 75536982
REMARK  4 active torsions:
REMARK  status: ('A' for Active; 'I' for Inactive)
REMARK    1  A    between atoms: S_1  and  N_6
REMARK    2  A    between atoms: S_1  and  C_16
REMARK    3  A    between atoms: N_7  and  C_15
REMARK    4  A    between atoms: C_15  and  C_17
REMARK                            x       y       z     vdW  Elec       q    Type
REMARK                         _______ _______ _______ _____ _____    ______ ____
ROOT
ATOM      2  O   UNL     1      18.145   9.699  21.870  0.00  0.00    -0.252 OA
ATOM      5  N   UNL     1      16.542   8.680  20.487  0.00  0.00    -0.278 N 
ATOM      6  N   UNL     1      14.024   8.138  19.400  0.00  0.00    -0.178 NA
ATOM      7  N   UNL     1      18.067   7.373  21.494  0.00  0.00    -0.278 N 
ATOM      9  C   UNL     1      16.287   7.352  19.961  0.00  0.00    +0.111 C 
ATOM     10  C   UNL     1      14.801   7.024  20.040  0.00  0.00    +0.133 C 
ATOM     11  C   UNL     1      17.184   6.449  20.804  0.00  0.00    +0.133 C 
ATOM     12  C   UNL     1      15.749   9.801  20.021  0.00  0.00    +0.127 C 
ATOM     13  C   UNL     1      14.264   9.452  20.084  0.00  0.00    +0.128 C 
ATOM     14  C   UNL     1      17.649   8.710  21.348  0.00  0.00    +0.306 C 
ENDROOT
BRANCH   6   1
ATOM      1  S   UNL     1      12.382   7.781  19.064  0.00  0.00    +0.029 S 
ATOM      3  O   UNL     1      12.311   7.060  17.813  0.00  0.00    -0.158 OA
ATOM      4  O   UNL     1      11.591   8.967  19.305  0.00  0.00    -0.158 OA
ATOM     16  C   UNL     1      12.067   6.634  20.379  0.00  0.00    +0.215 C 
ENDBRANCH   6   1
BRANCH   7  15
ATOM     15  C   UNL     1      19.153   6.914  22.331  0.00  0.00    +0.164 C 
BRANCH  15  17
ATOM      8  N   UNL     1      20.680   5.405  21.191  0.00  0.00    -0.258 NA
ATOM     17  C   UNL     1      20.411   6.682  21.543  0.00  0.00    +0.059 A 
ATOM     18  C   UNL     1      21.216   7.762  21.219  0.00  0.00    +0.025 A 
ATOM     19  C   UNL     1      22.372   7.515  20.487  0.00  0.00    +0.003 A 
ATOM     20  C   UNL     1      21.812   5.204  20.482  0.00  0.00    +0.111 A 
ATOM     21  C   UNL     1      22.683   6.214  20.108  0.00  0.00    +0.020 A 
ENDBRANCH  15  17
ENDBRANCH   7  15
TORSDOF 3
ENDMDL
MODEL 6
REMARK VINA RESULT:      -5.3     26.866     28.739
REMARK  Name = 75536982
REMARK  4 active torsions:
REMARK  status: ('A' for Active; 'I' for Inactive)
REMARK    1  A    between atoms: S_1  and  N_6
REMARK    2  A    between atoms: S_1  and  C_16
REMARK    3  A    between atoms: N_7  and  C_15
REMARK    4  A    between atoms: C_15  and  C_17
REMARK                            x       y       z     vdW  Elec       q    Type
REMARK                         _______ _______ _______ _____ _____    ______ ____
ROOT
ATOM      2  O   UNL     1      -2.325 -10.649  14.698  0.00  0.00    -0.252 OA
ATOM      5  N   UNL     1      -4.460 -10.803  15.667  0.00  0.00    -0.278 N 
ATOM      6  N   UNL     1      -6.382 -11.259  17.645  0.00  0.00    -0.178 NA
ATOM      7  N   UNL     1      -4.149 -11.693  13.628  0.00  0.00    -0.278 N 
ATOM      9  C   UNL     1      -5.779 -11.248  15.260  0.00  0.00    +0.111 C 
ATOM     10  C   UNL     1      -6.436 -12.055  16.374  0.00  0.00    +0.133 C 
ATOM     11  C   UNL     1      -5.517 -12.031  13.976  0.00  0.00    +0.133 C 
ATOM     12  C   UNL     1      -4.290 -10.138  16.945  0.00  0.00    +0.127 C 
ATOM     13  C   UNL     1      -4.971 -10.943  18.048  0.00  0.00    +0.128 C 
ATOM     14  C   UNL     1      -3.497 -11.001  14.668  0.00  0.00    +0.306 C 
ENDROOT
BRANCH   6   1
ATOM      1  S   UNL     1      -7.388 -11.834  18.908  0.00  0.00    +0.029 S 
ATOM      3  O   UNL     1      -6.820 -11.430  20.174  0.00  0.00    -0.158 OA
ATOM      4  O   UNL     1      -7.737 -13.210  18.634  0.00  0.00    -0.158 OA
ATOM     16  C   UNL     1      -8.821 -10.834  18.603  0.00  0.00    +0.215 C 
ENDBRANCH   6   1
BRANCH   7  15
ATOM     15  C   UNL     1      -3.534 -12.152  12.403  0.00  0.00    +0.164 C 
BRANCH  15  17
ATOM      8  N   UNL     1      -4.669 -11.471  10.365  0.00  0.00    -0.258 NA
ATOM     17  C   UNL     1      -3.718 -11.173  11.279  0.00  0.00    +0.059 A 
ATOM     18  C   UNL     1      -2.927 -10.037  11.233  0.00  0.00    +0.025 A 
ATOM     19  C   UNL     1      -3.123  -9.149  10.181  0.00  0.00    +0.003 A 
ATOM     20  C   UNL     1      -4.831 -10.585   9.358  0.00  0.00    +0.111 A 
ATOM     21  C   UNL     1      -4.092  -9.421   9.221  0.00  0.00    +0.020 A 
ENDBRANCH  15  17
ENDBRANCH   7  15
TORSDOF 3
ENDMDL
MODEL 7
REMARK VINA RESULT:      -5.3     14.269     16.974
REMARK  Name = 75536982
REMARK  4 active torsions:
REMARK  status: ('A' for Active; 'I' for Inactive)
REMARK    1  A    between atoms: S_1  and  N_6
REMARK    2  A    between atoms: S_1  and  C_16
REMARK    3  A    between atoms: N_7  and  C_15
REMARK    4  A    between atoms: C_15  and  C_17
REMARK                            x       y       z     vdW  Elec       q    Type
REMARK                         _______ _______ _______ _____ _____    ______ ____
ROOT
ATOM      2  O   UNL     1      13.921   6.049   1.968  0.00  0.00    -0.252 OA
ATOM      5  N   UNL     1      11.894   6.049   3.156  0.00  0.00    -0.278 N 
ATOM      6  N   UNL     1      10.135   6.495   5.283  0.00  0.00    -0.178 NA
ATOM      7  N   UNL     1      12.475   4.187   2.041  0.00  0.00    -0.278 N 
ATOM      9  C   UNL     1      10.756   5.162   3.310  0.00  0.00    +0.111 C 
ATOM     10  C   UNL     1      10.326   5.097   4.771  0.00  0.00    +0.133 C 
ATOM     11  C   UNL     1      11.247   3.838   2.731  0.00  0.00    +0.133 C 
ATOM     12  C   UNL     1      11.850   7.379   3.732  0.00  0.00    +0.127 C 
ATOM     13  C   UNL     1      11.397   7.302   5.188  0.00  0.00    +0.128 C 
ATOM     14  C   UNL     1      12.892   5.499   2.339  0.00  0.00    +0.306 C 
ENDROOT
BRANCH   6   1
ATOM      1  S   UNL     1       9.303   6.617   6.776  0.00  0.00    +0.029 S 
ATOM      3  O   UNL     1       9.387   5.346   7.459  0.00  0.00    -0.158 OA
ATOM      4  O   UNL     1       8.037   7.278   6.549  0.00  0.00    -0.158 OA
ATOM     16  C   UNL     1      10.377   7.760   7.605  0.00  0.00    +0.215 C 
ENDBRANCH   6   1
BRANCH   7  15
ATOM     15  C   UNL     1      13.216   3.223   1.258  0.00  0.00    +0.164 C 
BRANCH  15  17
ATOM      8  N   UNL     1      12.003   3.438  -0.836  0.00  0.00    -0.258 NA
ATOM     17  C   UNL     1      13.194   3.551  -0.207  0.00  0.00    +0.059 A 
ATOM     18  C   UNL     1      14.367   3.947  -0.830  0.00  0.00    +0.025 A 
ATOM     19  C   UNL     1      14.314   4.246  -2.187  0.00  0.00    +0.003 A 
ATOM     20  C   UNL     1      11.990   3.737  -2.154  0.00  0.00    +0.111 A 
ATOM     21  C   UNL     1      13.106   4.141  -2.869  0.00  0.00    +0.020 A 
ENDBRANCH  15  17
ENDBRANCH   7  15
TORSDOF 3
ENDMDL
MODEL 8
REMARK VINA RESULT:      -5.2     13.227     15.930
REMARK  Name = 75536982
REMARK  4 active torsions:
REMARK  status: ('A' for Active; 'I' for Inactive)
REMARK    1  A    between atoms: S_1  and  N_6
REMARK    2  A    between atoms: S_1  and  C_16
REMARK    3  A    between atoms: N_7  and  C_15
REMARK    4  A    between atoms: C_15  and  C_17
REMARK                            x       y       z     vdW  Elec       q    Type
REMARK                         _______ _______ _______ _____ _____    ______ ____
ROOT
ATOM      2  O   UNL     1       9.893   6.916   0.918  0.00  0.00    -0.252 OA
ATOM      5  N   UNL     1       9.574   6.538   3.215  0.00  0.00    -0.278 N 
ATOM      6  N   UNL     1       9.564   7.089   5.956  0.00  0.00    -0.178 NA
ATOM      7  N   UNL     1      10.571   4.933   2.000  0.00  0.00    -0.278 N 
ATOM      9  C   UNL     1       9.751   5.437   4.142  0.00  0.00    +0.111 C 
ATOM     10  C   UNL     1      10.370   5.931   5.445  0.00  0.00    +0.133 C 
ATOM     11  C   UNL     1      10.610   4.442   3.366  0.00  0.00    +0.133 C 
ATOM     12  C   UNL     1       8.920   7.753   3.660  0.00  0.00    +0.127 C 
ATOM     13  C   UNL     1       9.533   8.225   4.976  0.00  0.00    +0.128 C 
ATOM     14  C   UNL     1       9.997   6.217   1.917  0.00  0.00    +0.306 C 
ENDROOT
BRANCH   6   1
ATOM      1  S   UNL     1       9.879   7.536   7.580  0.00  0.00    +0.029 S 
ATOM      3  O   UNL     1       8.620   7.656   8.281  0.00  0.00    -0.158 OA
ATOM      4  O   UNL     1      10.859   8.599   7.586  0.00  0.00    -0.158 OA
ATOM     16  C   UNL     1      10.677   6.051   8.131  0.00  0.00    +0.215 C 
ENDBRANCH   6   1
BRANCH   7  15
ATOM     15  C   UNL     1      11.185   4.210   0.908  0.00  0.00    +0.164 C 
BRANCH  15  17
ATOM      8  N   UNL     1      13.160   5.506   0.338  0.00  0.00    -0.258 NA
ATOM     17  C   UNL     1      12.678   4.372   0.896  0.00  0.00    +0.059 A 
ATOM     18  C   UNL     1      13.472   3.378   1.444  0.00  0.00    +0.025 A 
ATOM     19  C   UNL     1      14.851   3.558   1.418  0.00  0.00    +0.003 A 
ATOM     20  C   UNL     1      14.505   5.645   0.330  0.00  0.00    +0.111 A 
ATOM     21  C   UNL     1      15.385   4.711   0.852  0.00  0.00    +0.020 A 
ENDBRANCH  15  17
ENDBRANCH   7  15
TORSDOF 3
ENDMDL
MODEL 9
REMARK VINA RESULT:      -5.2     27.141     29.277
REMARK  Name = 75536982
REMARK  4 active torsions:
REMARK  status: ('A' for Active; 'I' for Inactive)
REMARK    1  A    between atoms: S_1  and  N_6
REMARK    2  A    between atoms: S_1  and  C_16
REMARK    3  A    between atoms: N_7  and  C_15
REMARK    4  A    between atoms: C_15  and  C_17
REMARK                            x       y       z     vdW  Elec       q    Type
REMARK                         _______ _______ _______ _____ _____    ______ ____
ROOT
ATOM      2  O   UNL     1      -6.879 -10.667  20.096  0.00  0.00    -0.252 OA
ATOM      5  N   UNL     1      -5.855 -11.469  18.140  0.00  0.00    -0.278 N 
ATOM      6  N   UNL     1      -3.927 -11.691  16.127  0.00  0.00    -0.178 NA
ATOM      7  N   UNL     1      -8.054 -11.018  18.083  0.00  0.00    -0.278 N 
ATOM      9  C   UNL     1      -6.279 -11.896  16.820  0.00  0.00    +0.111 C 
ATOM     10  C   UNL     1      -5.339 -11.345  15.754  0.00  0.00    +0.133 C 
ATOM     11  C   UNL     1      -7.717 -11.396  16.721  0.00  0.00    +0.133 C 
ATOM     12  C   UNL     1      -4.472 -11.645  18.541  0.00  0.00    +0.127 C 
ATOM     13  C   UNL     1      -3.541 -11.110  17.456  0.00  0.00    +0.128 C 
ATOM     14  C   UNL     1      -6.924 -11.011  18.922  0.00  0.00    +0.306 C 
ENDROOT
BRANCH   6   1
ATOM      1  S   UNL     1      -2.772 -11.484  14.878  0.00  0.00    +0.029 S 
ATOM      3  O   UNL     1      -3.270 -10.500  13.944  0.00  0.00    -0.158 OA
ATOM      4  O   UNL     1      -2.320 -12.786  14.443  0.00  0.00    -0.158 OA
ATOM     16  C   UNL     1      -1.468 -10.737  15.821  0.00  0.00    +0.215 C 
ENDBRANCH   6   1
BRANCH   7  15
ATOM     15  C   UNL     1      -9.383 -10.581  18.450  0.00  0.00    +0.164 C 
BRANCH  15  17
ATOM      8  N   UNL     1     -10.970 -10.087  16.678  0.00  0.00    -0.258 NA
ATOM     17  C   UNL     1      -9.957  -9.624  17.445  0.00  0.00    +0.059 A 
ATOM     18  C   UNL     1      -9.437  -8.343  17.353  0.00  0.00    +0.025 A 
ATOM     19  C   UNL     1      -9.992  -7.481  16.414  0.00  0.00    +0.003 A 
ATOM     20  C   UNL     1     -11.484  -9.220  15.776  0.00  0.00    +0.111 A 
ATOM     21  C   UNL     1     -11.035  -7.920  15.607  0.00  0.00    +0.020 A 
ENDBRANCH  15  17
ENDBRANCH   7  15
TORSDOF 3
ENDMDL
MODEL 10
REMARK VINA RESULT:      -5.2     26.950     29.637
REMARK  Name = 75536982
REMARK  4 active torsions:
REMARK  status: ('A' for Active; 'I' for Inactive)
REMARK    1  A    between atoms: S_1  and  N_6
REMARK    2  A    between atoms: S_1  and  C_16
REMARK    3  A    between atoms: N_7  and  C_15
REMARK    4  A    between atoms: C_15  and  C_17
REMARK                            x       y       z     vdW  Elec       q    Type
REMARK                         _______ _______ _______ _____ _____    ______ ____
ROOT
ATOM      2  O   UNL     1     -15.647   8.886  20.051  0.00  0.00    -0.252 OA
ATOM      5  N   UNL     1     -15.409   6.703  20.886  0.00  0.00    -0.278 N 
ATOM      6  N   UNL     1     -16.022   4.413  22.368  0.00  0.00    -0.178 NA
ATOM      7  N   UNL     1     -13.595   8.028  20.833  0.00  0.00    -0.278 N 
ATOM      9  C   UNL     1     -14.320   5.847  21.318  0.00  0.00    +0.111 C 
ATOM     10  C   UNL     1     -14.704   5.097  22.588  0.00  0.00    +0.133 C 
ATOM     11  C   UNL     1     -13.144   6.806  21.476  0.00  0.00    +0.133 C 
ATOM     12  C   UNL     1     -16.747   6.158  20.770  0.00  0.00    +0.127 C 
ATOM     13  C   UNL     1     -17.112   5.391  22.038  0.00  0.00    +0.128 C 
ATOM     14  C   UNL     1     -14.970   7.985  20.527  0.00  0.00    +0.306 C 
ENDROOT
BRANCH   6   1
ATOM      1  S   UNL     1     -16.434   3.230  23.538  0.00  0.00    +0.029 S 
ATOM      3  O   UNL     1     -15.464   3.280  24.609  0.00  0.00    -0.158 OA
ATOM      4  O   UNL     1     -16.755   1.996  22.857  0.00  0.00    -0.158 OA
ATOM     16  C   UNL     1     -17.948   3.938  24.133  0.00  0.00    +0.215 C 
ENDBRANCH   6   1
BRANCH   7  15
ATOM     15  C   UNL     1     -12.728   9.173  20.670  0.00  0.00    +0.164 C 
BRANCH  15  17
ATOM      8  N   UNL     1     -12.486   8.571  18.329  0.00  0.00    -0.258 NA
ATOM     17  C   UNL     1     -11.884   9.069  19.433  0.00  0.00    +0.059 A 
ATOM     18  C   UNL     1     -10.561   9.478  19.478  0.00  0.00    +0.025 A 
ATOM     19  C   UNL     1      -9.807   9.370  18.315  0.00  0.00    +0.003 A 
ATOM     20  C   UNL     1     -11.721   8.481  17.218  0.00  0.00    +0.111 A 
ATOM     21  C   UNL     1     -10.390   8.863  17.160  0.00  0.00    +0.020 A 
ENDBRANCH  15  17
ENDBRANCH   7  15
TORSDOF 3
ENDMDL
