REMARK  Name = 7663744
REMARK  3 active torsions:
REMARK  status: ('A' for Active; 'I' for Inactive)
REMARK    1  A    between atoms: C_15  and  C_18
REMARK    2  A    between atoms: C_16  and  C_19
REMARK    3  A    between atoms: C_22  and  C_26
REMARK                            x       y       z     vdW  Elec       q    Type
REMARK                         _______ _______ _______ _____ _____    ______ ____
ROOT
ATOM      2  O   UNL     1       0.402  -2.407  -1.463  0.00  0.00    -0.267 OA
ATOM      3  O   UNL     1      -3.416   0.917  -2.508  0.00  0.00    -0.270 OA
ATOM      4  N   UNL     1      -3.938  -0.157  -0.496  0.00  0.00    -0.297 N 
ATOM      5  N   UNL     1      -1.375  -1.965  -0.022  0.00  0.00    -0.311 N 
ATOM      6  C   UNL     1      -3.786  -2.640  -0.567  0.00  0.00    +0.027 C 
ATOM      7  C   UNL     1      -3.293  -1.444   1.527  0.00  0.00    +0.054 C 
ATOM      8  C   UNL     1      -3.965  -2.687   0.946  0.00  0.00    +0.018 C 
ATOM      9  C   UNL     1      -4.435  -1.369  -1.146  0.00  0.00    +0.113 C 
ATOM     10  C   UNL     1      -2.289  -2.722  -0.890  0.00  0.00    +0.130 C 
ATOM     11  C   UNL     1      -3.980  -0.179   0.975  0.00  0.00    +0.117 C 
ATOM     12  C   UNL     1      -1.815  -1.413   1.184  0.00  0.00    +0.027 A 
ATOM     13  C   UNL     1      -0.940  -0.826   2.015  0.00  0.00    +0.022 A 
ATOM     14  C   UNL     1      -0.023  -1.914  -0.417  0.00  0.00    +0.259 A 
ATOM     15  C   UNL     1      -3.454   0.893  -1.279  0.00  0.00    +0.247 C 
ATOM     16  C   UNL     1       0.930  -1.222   0.521  0.00  0.00    +0.040 A 
ATOM     17  C   UNL     1       0.451  -0.732   1.673  0.00  0.00    +0.015 A 
ENDROOT
BRANCH  15  18
ATOM     18  C   UNL     1      -2.920   2.074  -0.592  0.00  0.00    +0.037 A 
ATOM     20  C   UNL     1      -1.569   2.130  -0.259  0.00  0.00    +0.013 A 
ATOM     21  C   UNL     1      -3.767   3.132  -0.274  0.00  0.00    +0.013 A 
ATOM     23  C   UNL     1      -1.062   3.253   0.396  0.00  0.00    +0.001 A 
ATOM     24  C   UNL     1      -3.260   4.255   0.380  0.00  0.00    +0.001 A 
ATOM     25  C   UNL     1      -1.907   4.315   0.715  0.00  0.00    +0.000 A 
ENDBRANCH  15  18
BRANCH  16  19
ATOM     19  C   UNL     1       2.325  -1.111   0.177  0.00  0.00    +0.014 C 
ATOM     22  C   UNL     1       3.094  -0.091   0.578  0.00  0.00    +0.008 C 
BRANCH  22  26
ATOM      1 CL   UNL     1       8.867   0.567  -0.771  0.00  0.00    -0.084 Cl
ATOM     26  C   UNL     1       4.519   0.071   0.245  0.00  0.00    -0.025 A 
ATOM     27  C   UNL     1       5.251  -1.032  -0.164  0.00  0.00    +0.009 A 
ATOM     28  C   UNL     1       5.102   1.325   0.346  0.00  0.00    +0.009 A 
ATOM     29  C   UNL     1       6.601  -0.878  -0.479  0.00  0.00    +0.020 A 
ATOM     30  C   UNL     1       6.452   1.479   0.031  0.00  0.00    +0.020 A 
ATOM     31  C   UNL     1       7.201   0.377  -0.382  0.00  0.00    +0.041 A 
ENDBRANCH  22  26
ENDBRANCH  16  19
TORSDOF 3
