MODEL 1
REMARK VINA RESULT:      -7.7      0.000      0.000
REMARK  Name = 26743740
REMARK  8 active torsions:
REMARK  status: ('A' for Active; 'I' for Inactive)
REMARK    1  A    between atoms: O_4  and  C_12
REMARK    2  A    between atoms: O_6  and  C_29
REMARK    3  A    between atoms: O_6  and  C_30
REMARK    4  A    between atoms: N_7  and  C_14
REMARK    5  A    between atoms: C_10  and  C_15
REMARK    6  A    between atoms: C_14  and  C_16
REMARK    7  A    between atoms: C_19  and  C_23
REMARK    8  A    between atoms: C_22  and  C_24
REMARK                            x       y       z     vdW  Elec       q    Type
REMARK                         _______ _______ _______ _____ _____    ______ ____
ROOT
ATOM      5  O   UNL     1      14.358   6.957  19.454  0.00  0.00    -0.336 OA
ATOM      8  N   UNL     1      15.615   7.398  21.255  0.00  0.00    -0.190 NA
ATOM      9  N   UNL     1      15.619   6.403  19.194  0.00  0.00    -0.056 NA
ATOM     15  C   UNL     1      14.442   7.523  20.686  0.00  0.00    +0.245 A 
ATOM     19  C   UNL     1      16.303   6.703  20.302  0.00  0.00    +0.202 A 
ENDROOT
BRANCH  19  23
ATOM     23  C   UNL     1      17.674   6.328  20.488  0.00  0.00    +0.023 A 
ATOM     25  C   UNL     1      18.396   6.830  21.571  0.00  0.00    +0.015 A 
ATOM     26  C   UNL     1      18.288   5.462  19.583  0.00  0.00    +0.015 A 
ATOM     27  C   UNL     1      19.730   6.466  21.750  0.00  0.00    +0.046 A 
ATOM     28  C   UNL     1      19.623   5.097  19.762  0.00  0.00    +0.046 A 
ATOM     29  C   UNL     1      20.343   5.600  20.845  0.00  0.00    +0.130 A 
BRANCH  29   6
ATOM      6  O   UNL     1      21.645   5.242  21.019  0.00  0.00    -0.406 OA
BRANCH   6  30
ATOM      1  F   UNL     1      23.186   3.597  21.136  0.00  0.00    -0.133 F 
ATOM      2  F   UNL     1      21.855   3.882  22.846  0.00  0.00    -0.133 F 
ATOM      3  F   UNL     1      21.084   3.026  20.960  0.00  0.00    -0.133 F 
ATOM     30  C   UNL     1      21.927   3.932  21.499  0.00  0.00    +0.575 C 
ENDBRANCH   6  30
ENDBRANCH  29   6
ENDBRANCH  19  23
BRANCH  15  10
ATOM      7  N   UNL     1      12.433   8.889  20.143  0.00  0.00    -0.285 NA
ATOM     10  C   UNL     1      13.190   8.197  21.206  0.00  0.00    +0.149 C 
ATOM     11  C   UNL     1      12.189   7.200  21.818  0.00  0.00    +0.061 C 
ATOM     12  C   UNL     1      10.886   7.439  21.065  0.00  0.00    +0.130 C 
ATOM     13  C   UNL     1      11.029   8.856  20.547  0.00  0.00    +0.116 C 
BRANCH  12   4
ATOM      4  O   UNL     1       9.775   7.305  21.929  0.00  0.00    -0.390 OA
ATOM     31  H   UNL     1       9.680   8.141  22.416  0.00  0.00    +0.210 HD
ENDBRANCH  12   4
BRANCH   7  14
ATOM     14  C   UNL     1      12.902  10.246  19.895  0.00  0.00    +0.120 C 
BRANCH  14  16
ATOM     16  C   UNL     1      13.539  10.381  18.537  0.00  0.00    -0.033 A 
ATOM     17  C   UNL     1      14.562  11.307  18.336  0.00  0.00    +0.005 A 
ATOM     18  C   UNL     1      13.103   9.580  17.480  0.00  0.00    +0.005 A 
ATOM     20  C   UNL     1      15.150  11.434  17.077  0.00  0.00    +0.003 A 
ATOM     21  C   UNL     1      13.691   9.708  16.222  0.00  0.00    +0.003 A 
ATOM     22  C   UNL     1      14.714  10.634  16.020  0.00  0.00    -0.050 A 
ATOM     24  C   UNL     1      15.343  10.770  14.675  0.00  0.00    +0.044 C 
ENDBRANCH  14  16
ENDBRANCH   7  14
ENDBRANCH  15  10
TORSDOF 7
ENDMDL
MODEL 2
REMARK VINA RESULT:      -7.6      2.039      4.146
REMARK  Name = 26743740
REMARK  8 active torsions:
REMARK  status: ('A' for Active; 'I' for Inactive)
REMARK    1  A    between atoms: O_4  and  C_12
REMARK    2  A    between atoms: O_6  and  C_29
REMARK    3  A    between atoms: O_6  and  C_30
REMARK    4  A    between atoms: N_7  and  C_14
REMARK    5  A    between atoms: C_10  and  C_15
REMARK    6  A    between atoms: C_14  and  C_16
REMARK    7  A    between atoms: C_19  and  C_23
REMARK    8  A    between atoms: C_22  and  C_24
REMARK                            x       y       z     vdW  Elec       q    Type
REMARK                         _______ _______ _______ _____ _____    ______ ____
ROOT
ATOM      5  O   UNL     1      15.309   8.574  19.941  0.00  0.00    -0.336 OA
ATOM      8  N   UNL     1      16.163   6.643  19.194  0.00  0.00    -0.190 NA
ATOM      9  N   UNL     1      16.516   8.389  20.629  0.00  0.00    -0.056 NA
ATOM     15  C   UNL     1      15.178   7.501  19.118  0.00  0.00    +0.245 A 
ATOM     19  C   UNL     1      16.960   7.230  20.133  0.00  0.00    +0.202 A 
ENDROOT
BRANCH  19  23
ATOM     23  C   UNL     1      18.192   6.631  20.556  0.00  0.00    +0.023 A 
ATOM     25  C   UNL     1      18.734   5.565  19.838  0.00  0.00    +0.015 A 
ATOM     26  C   UNL     1      18.848   7.114  21.688  0.00  0.00    +0.015 A 
ATOM     27  C   UNL     1      19.931   4.983  20.251  0.00  0.00    +0.046 A 
ATOM     28  C   UNL     1      20.047   6.531  22.102  0.00  0.00    +0.046 A 
ATOM     29  C   UNL     1      20.587   5.465  21.383  0.00  0.00    +0.130 A 
BRANCH  29   6
ATOM      6  O   UNL     1      21.757   4.897  21.787  0.00  0.00    -0.406 OA
BRANCH   6  30
ATOM      1  F   UNL     1      23.246   4.438  20.154  0.00  0.00    -0.133 F 
ATOM      2  F   UNL     1      22.829   6.535  20.605  0.00  0.00    -0.133 F 
ATOM      3  F   UNL     1      23.996   5.300  22.016  0.00  0.00    -0.133 F 
ATOM     30  C   UNL     1      22.961   5.308  21.150  0.00  0.00    +0.575 C 
ENDBRANCH   6  30
ENDBRANCH  29   6
ENDBRANCH  19  23
BRANCH  15  10
ATOM      7  N   UNL     1      12.909   8.431  18.688  0.00  0.00    -0.285 NA
ATOM     10  C   UNL     1      13.936   7.464  18.251  0.00  0.00    +0.149 C 
ATOM     11  C   UNL     1      14.224   7.831  16.784  0.00  0.00    +0.061 C 
ATOM     12  C   UNL     1      13.278   8.984  16.473  0.00  0.00    +0.130 C 
ATOM     13  C   UNL     1      12.166   8.815  17.489  0.00  0.00    +0.116 C 
BRANCH  12   4
ATOM      4  O   UNL     1      12.796   8.894  15.147  0.00  0.00    -0.390 OA
ATOM     31  H   UNL     1      12.996   8.000  14.822  0.00  0.00    +0.210 HD
ENDBRANCH  12   4
BRANCH   7  14
ATOM     14  C   UNL     1      12.036   7.909  19.732  0.00  0.00    +0.120 C 
BRANCH  14  16
ATOM     16  C   UNL     1      11.711   8.954  20.766  0.00  0.00    -0.033 A 
ATOM     17  C   UNL     1      12.241  10.239  20.648  0.00  0.00    +0.005 A 
ATOM     18  C   UNL     1      10.882   8.636  21.842  0.00  0.00    +0.005 A 
ATOM     20  C   UNL     1      11.943  11.206  21.607  0.00  0.00    +0.003 A 
ATOM     21  C   UNL     1      10.584   9.605  22.801  0.00  0.00    +0.003 A 
ATOM     22  C   UNL     1      11.114  10.889  22.684  0.00  0.00    -0.050 A 
ATOM     24  C   UNL     1      10.796  11.924  23.709  0.00  0.00    +0.044 C 
ENDBRANCH  14  16
ENDBRANCH   7  14
ENDBRANCH  15  10
TORSDOF 7
ENDMDL
MODEL 3
REMARK VINA RESULT:      -7.3     26.291     29.508
REMARK  Name = 26743740
REMARK  8 active torsions:
REMARK  status: ('A' for Active; 'I' for Inactive)
REMARK    1  A    between atoms: O_4  and  C_12
REMARK    2  A    between atoms: O_6  and  C_29
REMARK    3  A    between atoms: O_6  and  C_30
REMARK    4  A    between atoms: N_7  and  C_14
REMARK    5  A    between atoms: C_10  and  C_15
REMARK    6  A    between atoms: C_14  and  C_16
REMARK    7  A    between atoms: C_19  and  C_23
REMARK    8  A    between atoms: C_22  and  C_24
REMARK                            x       y       z     vdW  Elec       q    Type
REMARK                         _______ _______ _______ _____ _____    ______ ____
ROOT
ATOM      5  O   UNL     1      -5.137 -11.769  16.965  0.00  0.00    -0.336 OA
ATOM      8  N   UNL     1      -5.582 -10.174  15.457  0.00  0.00    -0.190 NA
ATOM      9  N   UNL     1      -6.438 -11.325  17.239  0.00  0.00    -0.056 NA
ATOM     15  C   UNL     1      -4.707 -11.039  15.902  0.00  0.00    +0.245 A 
ATOM     19  C   UNL     1      -6.628 -10.386  16.308  0.00  0.00    +0.202 A 
ENDROOT
BRANCH  19  23
ATOM     23  C   UNL     1      -7.848  -9.640  16.201  0.00  0.00    +0.023 A 
ATOM     25  C   UNL     1      -8.358  -8.971  17.313  0.00  0.00    +0.015 A 
ATOM     26  C   UNL     1      -8.526  -9.586  14.984  0.00  0.00    +0.015 A 
ATOM     27  C   UNL     1      -9.545  -8.246  17.208  0.00  0.00    +0.046 A 
ATOM     28  C   UNL     1      -9.714  -8.861  14.878  0.00  0.00    +0.046 A 
ATOM     29  C   UNL     1     -10.224  -8.193  15.991  0.00  0.00    +0.130 A 
BRANCH  29   6
ATOM      6  O   UNL     1     -11.382  -7.486  15.887  0.00  0.00    -0.406 OA
BRANCH   6  30
ATOM      1  F   UNL     1     -11.332  -5.532  17.018  0.00  0.00    -0.133 F 
ATOM      2  F   UNL     1     -10.144  -5.694  15.191  0.00  0.00    -0.133 F 
ATOM      3  F   UNL     1     -12.347  -5.575  15.083  0.00  0.00    -0.133 F 
ATOM     30  C   UNL     1     -11.300  -6.069  15.776  0.00  0.00    +0.575 C 
ENDBRANCH   6  30
ENDBRANCH  29   6
ENDBRANCH  19  23
BRANCH  15  10
ATOM      7  N   UNL     1      -2.989 -10.621  14.150  0.00  0.00    -0.285 NA
ATOM     10  C   UNL     1      -3.308 -11.335  15.403  0.00  0.00    +0.149 C 
ATOM     11  C   UNL     1      -2.217 -10.894  16.397  0.00  0.00    +0.061 C 
ATOM     12  C   UNL     1      -1.306  -9.971  15.597  0.00  0.00    +0.130 C 
ATOM     13  C   UNL     1      -1.545 -10.393  14.161  0.00  0.00    +0.116 C 
BRANCH  12   4
ATOM      4  O   UNL     1       0.044 -10.145  15.978  0.00  0.00    -0.390 OA
ATOM     31  H   UNL     1       0.323  -9.340  16.447  0.00  0.00    +0.210 HD
ENDBRANCH  12   4
BRANCH   7  14
ATOM     14  C   UNL     1      -3.423 -11.336  12.956  0.00  0.00    +0.120 C 
BRANCH  14  16
ATOM     16  C   UNL     1      -4.105 -10.422  11.973  0.00  0.00    -0.033 A 
ATOM     17  C   UNL     1      -5.440 -10.066  12.163  0.00  0.00    +0.005 A 
ATOM     18  C   UNL     1      -3.402  -9.934  10.871  0.00  0.00    +0.005 A 
ATOM     20  C   UNL     1      -6.074  -9.222  11.251  0.00  0.00    +0.003 A 
ATOM     21  C   UNL     1      -4.036  -9.089   9.959  0.00  0.00    +0.003 A 
ATOM     22  C   UNL     1      -5.371  -8.734  10.149  0.00  0.00    -0.050 A 
ATOM     24  C   UNL     1      -6.049  -7.832   9.174  0.00  0.00    +0.044 C 
ENDBRANCH  14  16
ENDBRANCH   7  14
ENDBRANCH  15  10
TORSDOF 7
ENDMDL
MODEL 4
REMARK VINA RESULT:      -7.2     27.453     29.312
REMARK  Name = 26743740
REMARK  8 active torsions:
REMARK  status: ('A' for Active; 'I' for Inactive)
REMARK    1  A    between atoms: O_4  and  C_12
REMARK    2  A    between atoms: O_6  and  C_29
REMARK    3  A    between atoms: O_6  and  C_30
REMARK    4  A    between atoms: N_7  and  C_14
REMARK    5  A    between atoms: C_10  and  C_15
REMARK    6  A    between atoms: C_14  and  C_16
REMARK    7  A    between atoms: C_19  and  C_23
REMARK    8  A    between atoms: C_22  and  C_24
REMARK                            x       y       z     vdW  Elec       q    Type
REMARK                         _______ _______ _______ _____ _____    ______ ____
ROOT
ATOM      5  O   UNL     1      -7.270 -10.710  11.269  0.00  0.00    -0.336 OA
ATOM      8  N   UNL     1      -6.078  -9.149  12.347  0.00  0.00    -0.190 NA
ATOM      9  N   UNL     1      -7.101 -11.183  12.577  0.00  0.00    -0.056 NA
ATOM     15  C   UNL     1      -6.637  -9.508  11.218  0.00  0.00    +0.245 A 
ATOM     19  C   UNL     1      -6.390 -10.207  13.150  0.00  0.00    +0.202 A 
ENDROOT
BRANCH  19  23
ATOM     23  C   UNL     1      -5.971 -10.260  14.521  0.00  0.00    +0.023 A 
ATOM     25  C   UNL     1      -6.885  -9.995  15.541  0.00  0.00    +0.015 A 
ATOM     26  C   UNL     1      -4.649 -10.575  14.833  0.00  0.00    +0.015 A 
ATOM     27  C   UNL     1      -6.477 -10.045  16.873  0.00  0.00    +0.046 A 
ATOM     28  C   UNL     1      -4.240 -10.625  16.167  0.00  0.00    +0.046 A 
ATOM     29  C   UNL     1      -5.154 -10.359  17.186  0.00  0.00    +0.130 A 
BRANCH  29   6
ATOM      6  O   UNL     1      -4.754 -10.409  18.486  0.00  0.00    -0.406 OA
BRANCH   6  30
ATOM      1  F   UNL     1      -5.570 -11.522  20.273  0.00  0.00    -0.133 F 
ATOM      2  F   UNL     1      -5.379 -12.607  18.386  0.00  0.00    -0.133 F 
ATOM      3  F   UNL     1      -3.580 -12.060  19.547  0.00  0.00    -0.133 F 
ATOM     30  C   UNL     1      -4.811 -11.660  19.162  0.00  0.00    +0.575 C 
ENDBRANCH   6  30
ENDBRANCH  29   6
ENDBRANCH  19  23
BRANCH  15  10
ATOM      7  N   UNL     1      -6.086  -9.569   8.792  0.00  0.00    -0.285 NA
ATOM     10  C   UNL     1      -6.677  -8.780   9.891  0.00  0.00    +0.149 C 
ATOM     11  C   UNL     1      -8.111  -8.469   9.427  0.00  0.00    +0.061 C 
ATOM     12  C   UNL     1      -8.217  -9.085   8.037  0.00  0.00    +0.130 C 
ATOM     13  C   UNL     1      -6.776  -9.159   7.571  0.00  0.00    +0.116 C 
BRANCH  12   4
ATOM      4  O   UNL     1      -9.003  -8.273   7.186  0.00  0.00    -0.390 OA
ATOM     31  H   UNL     1      -9.873  -8.696   7.099  0.00  0.00    +0.210 HD
ENDBRANCH  12   4
BRANCH   7  14
ATOM     14  C   UNL     1      -4.641  -9.412   8.685  0.00  0.00    +0.120 C 
BRANCH  14  16
ATOM     16  C   UNL     1      -3.914 -10.158   9.773  0.00  0.00    -0.033 A 
ATOM     17  C   UNL     1      -4.160 -11.517   9.970  0.00  0.00    +0.005 A 
ATOM     18  C   UNL     1      -2.996  -9.490  10.583  0.00  0.00    +0.005 A 
ATOM     20  C   UNL     1      -3.490 -12.207  10.980  0.00  0.00    +0.003 A 
ATOM     21  C   UNL     1      -2.325 -10.181  11.593  0.00  0.00    +0.003 A 
ATOM     22  C   UNL     1      -2.572 -11.539  11.791  0.00  0.00    -0.050 A 
ATOM     24  C   UNL     1      -1.856 -12.278  12.870  0.00  0.00    +0.044 C 
ENDBRANCH  14  16
ENDBRANCH   7  14
ENDBRANCH  15  10
TORSDOF 7
ENDMDL
MODEL 5
REMARK VINA RESULT:      -7.2      4.592      9.895
REMARK  Name = 26743740
REMARK  8 active torsions:
REMARK  status: ('A' for Active; 'I' for Inactive)
REMARK    1  A    between atoms: O_4  and  C_12
REMARK    2  A    between atoms: O_6  and  C_29
REMARK    3  A    between atoms: O_6  and  C_30
REMARK    4  A    between atoms: N_7  and  C_14
REMARK    5  A    between atoms: C_10  and  C_15
REMARK    6  A    between atoms: C_14  and  C_16
REMARK    7  A    between atoms: C_19  and  C_23
REMARK    8  A    between atoms: C_22  and  C_24
REMARK                            x       y       z     vdW  Elec       q    Type
REMARK                         _______ _______ _______ _____ _____    ______ ____
ROOT
ATOM      5  O   UNL     1      19.328   6.016  20.150  0.00  0.00    -0.336 OA
ATOM      8  N   UNL     1      17.963   7.507  21.115  0.00  0.00    -0.190 NA
ATOM      9  N   UNL     1      18.052   5.773  19.624  0.00  0.00    -0.056 NA
ATOM     15  C   UNL     1      19.186   7.051  21.019  0.00  0.00    +0.245 A 
ATOM     19  C   UNL     1      17.303   6.692  20.241  0.00  0.00    +0.202 A 
ENDROOT
BRANCH  19  23
ATOM     23  C   UNL     1      15.894   6.821  20.009  0.00  0.00    +0.023 A 
ATOM     25  C   UNL     1      15.000   6.742  21.077  0.00  0.00    +0.015 A 
ATOM     26  C   UNL     1      15.417   7.026  18.714  0.00  0.00    +0.015 A 
ATOM     27  C   UNL     1      13.630   6.867  20.850  0.00  0.00    +0.046 A 
ATOM     28  C   UNL     1      14.046   7.151  18.487  0.00  0.00    +0.046 A 
ATOM     29  C   UNL     1      13.153   7.070  19.555  0.00  0.00    +0.130 A 
BRANCH  29   6
ATOM      6  O   UNL     1      11.815   7.193  19.333  0.00  0.00    -0.406 OA
BRANCH   6  30
ATOM      1  F   UNL     1      12.194   9.410  19.521  0.00  0.00    -0.133 F 
ATOM      2  F   UNL     1      10.384   8.762  18.484  0.00  0.00    -0.133 F 
ATOM      3  F   UNL     1      10.552   8.546  20.676  0.00  0.00    -0.133 F 
ATOM     30  C   UNL     1      11.218   8.474  19.504  0.00  0.00    +0.575 C 
ENDBRANCH   6  30
ENDBRANCH  29   6
ENDBRANCH  19  23
BRANCH  15  10
ATOM      7  N   UNL     1      21.525   6.511  21.678  0.00  0.00    -0.285 NA
ATOM     10  C   UNL     1      20.442   7.513  21.728  0.00  0.00    +0.149 C 
ATOM     11  C   UNL     1      21.048   8.781  21.098  0.00  0.00    +0.061 C 
ATOM     12  C   UNL     1      22.488   8.407  20.769  0.00  0.00    +0.130 C 
ATOM     13  C   UNL     1      22.781   7.257  21.712  0.00  0.00    +0.116 C 
BRANCH  12   4
ATOM      4  O   UNL     1      23.354   9.502  20.990  0.00  0.00    -0.390 OA
ATOM     31  H   UNL     1      24.093   9.422  20.363  0.00  0.00    +0.210 HD
ENDBRANCH  12   4
BRANCH   7  14
ATOM     14  C   UNL     1      21.444   5.523  22.746  0.00  0.00    +0.120 C 
BRANCH  14  16
ATOM     16  C   UNL     1      22.283   4.308  22.452  0.00  0.00    -0.033 A 
ATOM     17  C   UNL     1      22.138   3.638  21.237  0.00  0.00    +0.005 A 
ATOM     18  C   UNL     1      23.204   3.851  23.396  0.00  0.00    +0.005 A 
ATOM     20  C   UNL     1      22.913   2.511  20.965  0.00  0.00    +0.003 A 
ATOM     21  C   UNL     1      23.979   2.723  23.123  0.00  0.00    +0.003 A 
ATOM     22  C   UNL     1      23.833   2.054  21.909  0.00  0.00    -0.050 A 
ATOM     24  C   UNL     1      24.661   0.848  21.617  0.00  0.00    +0.044 C 
ENDBRANCH  14  16
ENDBRANCH   7  14
ENDBRANCH  15  10
TORSDOF 7
ENDMDL
MODEL 6
REMARK VINA RESULT:      -6.8     16.756     20.146
REMARK  Name = 26743740
REMARK  8 active torsions:
REMARK  status: ('A' for Active; 'I' for Inactive)
REMARK    1  A    between atoms: O_4  and  C_12
REMARK    2  A    between atoms: O_6  and  C_29
REMARK    3  A    between atoms: O_6  and  C_30
REMARK    4  A    between atoms: N_7  and  C_14
REMARK    5  A    between atoms: C_10  and  C_15
REMARK    6  A    between atoms: C_14  and  C_16
REMARK    7  A    between atoms: C_19  and  C_23
REMARK    8  A    between atoms: C_22  and  C_24
REMARK                            x       y       z     vdW  Elec       q    Type
REMARK                         _______ _______ _______ _____ _____    ______ ____
ROOT
ATOM      5  O   UNL     1      12.528   6.070   0.801  0.00  0.00    -0.336 OA
ATOM      8  N   UNL     1      12.371   4.416   2.303  0.00  0.00    -0.190 NA
ATOM      9  N   UNL     1      11.782   6.584   1.870  0.00  0.00    -0.056 NA
ATOM     15  C   UNL     1      12.834   4.790   1.137  0.00  0.00    +0.245 A 
ATOM     19  C   UNL     1      11.733   5.550   2.715  0.00  0.00    +0.202 A 
ENDROOT
BRANCH  19  23
ATOM     23  C   UNL     1      11.053   5.615   3.976  0.00  0.00    +0.023 A 
ATOM     25  C   UNL     1      10.144   4.620   4.332  0.00  0.00    +0.015 A 
ATOM     26  C   UNL     1      11.301   6.676   4.847  0.00  0.00    +0.015 A 
ATOM     27  C   UNL     1       9.483   4.685   5.558  0.00  0.00    +0.046 A 
ATOM     28  C   UNL     1      10.640   6.742   6.074  0.00  0.00    +0.046 A 
ATOM     29  C   UNL     1       9.730   5.746   6.429  0.00  0.00    +0.130 A 
BRANCH  29   6
ATOM      6  O   UNL     1       9.086   5.810   7.626  0.00  0.00    -0.406 OA
BRANCH   6  30
ATOM      1  F   UNL     1       8.852   5.294   9.811  0.00  0.00    -0.133 F 
ATOM      2  F   UNL     1       9.666   3.768   8.476  0.00  0.00    -0.133 F 
ATOM      3  F   UNL     1      10.876   5.534   9.022  0.00  0.00    -0.133 F 
ATOM     30  C   UNL     1       9.635   5.093   8.726  0.00  0.00    +0.575 C 
ENDBRANCH   6  30
ENDBRANCH  29   6
ENDBRANCH  19  23
BRANCH  15  10
ATOM      7  N   UNL     1      13.112   4.103  -1.239  0.00  0.00    -0.285 NA
ATOM     10  C   UNL     1      13.652   4.006   0.132  0.00  0.00    +0.149 C 
ATOM     11  C   UNL     1      15.102   4.511   0.022  0.00  0.00    +0.061 C 
ATOM     12  C   UNL     1      15.299   4.824  -1.456  0.00  0.00    +0.130 C 
ATOM     13  C   UNL     1      14.253   3.968  -2.143  0.00  0.00    +0.116 C 
BRANCH  12   4
ATOM      4  O   UNL     1      16.608   4.487  -1.870  0.00  0.00    -0.390 OA
ATOM     31  H   UNL     1      16.787   3.580  -1.568  0.00  0.00    +0.210 HD
ENDBRANCH  12   4
BRANCH   7  14
ATOM     14  C   UNL     1      12.072   3.121  -1.518  0.00  0.00    +0.120 C 
BRANCH  14  16
ATOM     16  C   UNL     1      10.899   3.736  -2.236  0.00  0.00    -0.033 A 
ATOM     17  C   UNL     1      10.318   4.905  -1.746  0.00  0.00    +0.005 A 
ATOM     18  C   UNL     1      10.393   3.134  -3.388  0.00  0.00    +0.005 A 
ATOM     20  C   UNL     1       9.230   5.473  -2.408  0.00  0.00    +0.003 A 
ATOM     21  C   UNL     1       9.305   3.703  -4.050  0.00  0.00    +0.003 A 
ATOM     22  C   UNL     1       8.724   4.871  -3.561  0.00  0.00    -0.050 A 
ATOM     24  C   UNL     1       7.560   5.479  -4.268  0.00  0.00    +0.044 C 
ENDBRANCH  14  16
ENDBRANCH   7  14
ENDBRANCH  15  10
TORSDOF 7
ENDMDL
MODEL 7
REMARK VINA RESULT:      -6.8     28.771     32.594
REMARK  Name = 26743740
REMARK  8 active torsions:
REMARK  status: ('A' for Active; 'I' for Inactive)
REMARK    1  A    between atoms: O_4  and  C_12
REMARK    2  A    between atoms: O_6  and  C_29
REMARK    3  A    between atoms: O_6  and  C_30
REMARK    4  A    between atoms: N_7  and  C_14
REMARK    5  A    between atoms: C_10  and  C_15
REMARK    6  A    between atoms: C_14  and  C_16
REMARK    7  A    between atoms: C_19  and  C_23
REMARK    8  A    between atoms: C_22  and  C_24
REMARK                            x       y       z     vdW  Elec       q    Type
REMARK                         _______ _______ _______ _____ _____    ______ ____
ROOT
ATOM      5  O   UNL     1     -16.693   2.810  23.687  0.00  0.00    -0.336 OA
ATOM      8  N   UNL     1     -15.085   4.144  24.494  0.00  0.00    -0.190 NA
ATOM      9  N   UNL     1     -16.219   3.552  22.597  0.00  0.00    -0.056 NA
ATOM     15  C   UNL     1     -15.973   3.220  24.764  0.00  0.00    +0.245 A 
ATOM     19  C   UNL     1     -15.273   4.314  23.153  0.00  0.00    +0.202 A 
ENDROOT
BRANCH  19  23
ATOM     23  C   UNL     1     -14.500   5.258  22.400  0.00  0.00    +0.023 A 
ATOM     25  C   UNL     1     -13.125   5.077  22.254  0.00  0.00    +0.015 A 
ATOM     26  C   UNL     1     -15.125   6.359  21.813  0.00  0.00    +0.015 A 
ATOM     27  C   UNL     1     -12.374   5.997  21.522  0.00  0.00    +0.046 A 
ATOM     28  C   UNL     1     -14.374   7.279  21.081  0.00  0.00    +0.046 A 
ATOM     29  C   UNL     1     -12.999   7.098  20.936  0.00  0.00    +0.130 A 
BRANCH  29   6
ATOM      6  O   UNL     1     -12.267   7.996  20.221  0.00  0.00    -0.406 OA
BRANCH   6  30
ATOM      1  F   UNL     1     -11.249   6.574  18.793  0.00  0.00    -0.133 F 
ATOM      2  F   UNL     1     -13.128   7.494  18.163  0.00  0.00    -0.133 F 
ATOM      3  F   UNL     1     -11.280   8.699  18.281  0.00  0.00    -0.133 F 
ATOM     30  C   UNL     1     -11.990   7.704  18.855  0.00  0.00    +0.575 C 
ENDBRANCH   6  30
ENDBRANCH  29   6
ENDBRANCH  19  23
BRANCH  15  10
ATOM      7  N   UNL     1     -17.373   3.253  26.822  0.00  0.00    -0.285 NA
ATOM     10  C   UNL     1     -16.299   2.557  26.086  0.00  0.00    +0.149 C 
ATOM     11  C   UNL     1     -16.809   1.114  25.916  0.00  0.00    +0.061 C 
ATOM     12  C   UNL     1     -18.155   1.085  26.631  0.00  0.00    +0.130 C 
ATOM     13  C   UNL     1     -18.059   2.235  27.615  0.00  0.00    +0.116 C 
BRANCH  12   4
ATOM      4  O   UNL     1     -18.349  -0.152  27.286  0.00  0.00    -0.390 OA
ATOM     31  H   UNL     1     -19.164  -0.080  27.812  0.00  0.00    +0.210 HD
ENDBRANCH  12   4
BRANCH   7  14
ATOM     14  C   UNL     1     -16.884   4.353  27.645  0.00  0.00    +0.120 C 
BRANCH  14  16
ATOM     16  C   UNL     1     -16.380   3.873  28.980  0.00  0.00    -0.033 A 
ATOM     17  C   UNL     1     -17.131   4.105  30.133  0.00  0.00    +0.005 A 
ATOM     18  C   UNL     1     -15.162   3.198  29.064  0.00  0.00    +0.005 A 
ATOM     20  C   UNL     1     -16.663   3.664  31.370  0.00  0.00    +0.003 A 
ATOM     21  C   UNL     1     -14.695   2.757  30.302  0.00  0.00    +0.003 A 
ATOM     22  C   UNL     1     -15.444   2.989  31.455  0.00  0.00    -0.050 A 
ATOM     24  C   UNL     1     -14.945   2.518  32.778  0.00  0.00    +0.044 C 
ENDBRANCH  14  16
ENDBRANCH   7  14
ENDBRANCH  15  10
TORSDOF 7
ENDMDL
MODEL 8
REMARK VINA RESULT:      -6.8     27.456     30.254
REMARK  Name = 26743740
REMARK  8 active torsions:
REMARK  status: ('A' for Active; 'I' for Inactive)
REMARK    1  A    between atoms: O_4  and  C_12
REMARK    2  A    between atoms: O_6  and  C_29
REMARK    3  A    between atoms: O_6  and  C_30
REMARK    4  A    between atoms: N_7  and  C_14
REMARK    5  A    between atoms: C_10  and  C_15
REMARK    6  A    between atoms: C_14  and  C_16
REMARK    7  A    between atoms: C_19  and  C_23
REMARK    8  A    between atoms: C_22  and  C_24
REMARK                            x       y       z     vdW  Elec       q    Type
REMARK                         _______ _______ _______ _____ _____    ______ ____
ROOT
ATOM      5  O   UNL     1      -6.337 -10.355  17.898  0.00  0.00    -0.336 OA
ATOM      8  N   UNL     1      -7.053 -10.089  15.792  0.00  0.00    -0.190 NA
ATOM      9  N   UNL     1      -7.545  -9.649  17.983  0.00  0.00    -0.056 NA
ATOM     15  C   UNL     1      -6.121 -10.573  16.574  0.00  0.00    +0.245 A 
ATOM     19  C   UNL     1      -7.905  -9.532  16.702  0.00  0.00    +0.202 A 
ENDROOT
BRANCH  19  23
ATOM     23  C   UNL     1      -9.106  -8.864  16.295  0.00  0.00    +0.023 A 
ATOM     25  C   UNL     1      -9.654  -9.113  15.037  0.00  0.00    +0.015 A 
ATOM     26  C   UNL     1      -9.727  -7.961  17.159  0.00  0.00    +0.015 A 
ATOM     27  C   UNL     1     -10.822  -8.461  14.643  0.00  0.00    +0.046 A 
ATOM     28  C   UNL     1     -10.896  -7.309  16.765  0.00  0.00    +0.046 A 
ATOM     29  C   UNL     1     -11.442  -7.558  15.506  0.00  0.00    +0.130 A 
BRANCH  29   6
ATOM      6  O   UNL     1     -12.583  -6.922  15.123  0.00  0.00    -0.406 OA
BRANCH   6  30
ATOM      1  F   UNL     1     -12.545  -6.397  12.928  0.00  0.00    -0.133 F 
ATOM      2  F   UNL     1     -13.496  -4.992  14.304  0.00  0.00    -0.133 F 
ATOM      3  F   UNL     1     -11.299  -5.223  14.287  0.00  0.00    -0.133 F 
ATOM     30  C   UNL     1     -12.480  -5.868  14.171  0.00  0.00    +0.575 C 
ENDBRANCH   6  30
ENDBRANCH  29   6
ENDBRANCH  19  23
BRANCH  15  10
ATOM      7  N   UNL     1      -4.313 -10.930  14.901  0.00  0.00    -0.285 NA
ATOM     10  C   UNL     1      -4.861 -11.331  16.212  0.00  0.00    +0.149 C 
ATOM     11  C   UNL     1      -3.714 -11.087  17.210  0.00  0.00    +0.061 C 
ATOM     12  C   UNL     1      -2.550 -10.594  16.359  0.00  0.00    +0.130 C 
ATOM     13  C   UNL     1      -2.867 -11.131  14.978  0.00  0.00    +0.116 C 
BRANCH  12   4
ATOM      4  O   UNL     1      -1.322 -11.096  16.849  0.00  0.00    -0.390 OA
ATOM     31  H   UNL     1      -0.613 -10.531  16.497  0.00  0.00    +0.210 HD
ENDBRANCH  12   4
BRANCH   7  14
ATOM     14  C   UNL     1      -4.910 -11.652  13.784  0.00  0.00    +0.120 C 
BRANCH  14  16
ATOM     16  C   UNL     1      -4.749 -10.908  12.485  0.00  0.00    -0.033 A 
ATOM     17  C   UNL     1      -5.439  -9.714  12.276  0.00  0.00    +0.005 A 
ATOM     18  C   UNL     1      -3.911 -11.414  11.491  0.00  0.00    +0.005 A 
ATOM     20  C   UNL     1      -5.292  -9.026  11.071  0.00  0.00    +0.003 A 
ATOM     21  C   UNL     1      -3.765 -10.725  10.287  0.00  0.00    +0.003 A 
ATOM     22  C   UNL     1      -4.455  -9.532  10.077  0.00  0.00    -0.050 A 
ATOM     24  C   UNL     1      -4.299  -8.796   8.789  0.00  0.00    +0.044 C 
ENDBRANCH  14  16
ENDBRANCH   7  14
ENDBRANCH  15  10
TORSDOF 7
ENDMDL
MODEL 9
REMARK VINA RESULT:      -6.6     29.660     32.925
REMARK  Name = 26743740
REMARK  8 active torsions:
REMARK  status: ('A' for Active; 'I' for Inactive)
REMARK    1  A    between atoms: O_4  and  C_12
REMARK    2  A    between atoms: O_6  and  C_29
REMARK    3  A    between atoms: O_6  and  C_30
REMARK    4  A    between atoms: N_7  and  C_14
REMARK    5  A    between atoms: C_10  and  C_15
REMARK    6  A    between atoms: C_14  and  C_16
REMARK    7  A    between atoms: C_19  and  C_23
REMARK    8  A    between atoms: C_22  and  C_24
REMARK                            x       y       z     vdW  Elec       q    Type
REMARK                         _______ _______ _______ _____ _____    ______ ____
ROOT
ATOM      5  O   UNL     1     -17.600   5.564  26.637  0.00  0.00    -0.336 OA
ATOM      8  N   UNL     1     -16.642   3.543  26.751  0.00  0.00    -0.190 NA
ATOM      9  N   UNL     1     -17.060   5.462  27.926  0.00  0.00    -0.056 NA
ATOM     15  C   UNL     1     -17.310   4.393  26.013  0.00  0.00    +0.245 A 
ATOM     19  C   UNL     1     -16.511   4.244  27.916  0.00  0.00    +0.202 A 
ENDROOT
BRANCH  19  23
ATOM     23  C   UNL     1     -15.829   3.695  29.051  0.00  0.00    +0.023 A 
ATOM     25  C   UNL     1     -15.349   2.386  29.013  0.00  0.00    +0.015 A 
ATOM     26  C   UNL     1     -15.645   4.471  30.195  0.00  0.00    +0.015 A 
ATOM     27  C   UNL     1     -14.687   1.853  30.118  0.00  0.00    +0.046 A 
ATOM     28  C   UNL     1     -14.982   3.938  31.301  0.00  0.00    +0.046 A 
ATOM     29  C   UNL     1     -14.504   2.629  31.263  0.00  0.00    +0.130 A 
BRANCH  29   6
ATOM      6  O   UNL     1     -13.857   2.110  32.342  0.00  0.00    -0.406 OA
BRANCH   6  30
ATOM      1  F   UNL     1     -14.993   0.237  32.887  0.00  0.00    -0.133 F 
ATOM      2  F   UNL     1     -13.916   1.284  34.474  0.00  0.00    -0.133 F 
ATOM      3  F   UNL     1     -15.757   2.151  33.614  0.00  0.00    -0.133 F 
ATOM     30  C   UNL     1     -14.631   1.458  33.343  0.00  0.00    +0.575 C 
ENDBRANCH   6  30
ENDBRANCH  29   6
ENDBRANCH  19  23
BRANCH  15  10
ATOM      7  N   UNL     1     -16.723   4.497  23.596  0.00  0.00    -0.285 NA
ATOM     10  C   UNL     1     -17.792   4.252  24.584  0.00  0.00    +0.149 C 
ATOM     11  C   UNL     1     -18.305   2.834  24.267  0.00  0.00    +0.061 C 
ATOM     12  C   UNL     1     -17.495   2.384  23.058  0.00  0.00    +0.130 C 
ATOM     13  C   UNL     1     -17.049   3.688  22.424  0.00  0.00    +0.116 C 
BRANCH  12   4
ATOM      4  O   UNL     1     -18.292   1.617  22.177  0.00  0.00    -0.390 OA
ATOM     31  H   UNL     1     -19.188   1.576  22.553  0.00  0.00    +0.210 HD
ENDBRANCH  12   4
BRANCH   7  14
ATOM     14  C   UNL     1     -16.561   5.907  23.263  0.00  0.00    +0.120 C 
BRANCH  14  16
ATOM     16  C   UNL     1     -15.263   6.168  22.546  0.00  0.00    -0.033 A 
ATOM     17  C   UNL     1     -14.184   5.301  22.720  0.00  0.00    +0.005 A 
ATOM     18  C   UNL     1     -15.139   7.278  21.710  0.00  0.00    +0.005 A 
ATOM     20  C   UNL     1     -12.981   5.545  22.059  0.00  0.00    +0.003 A 
ATOM     21  C   UNL     1     -13.935   7.521  21.049  0.00  0.00    +0.003 A 
ATOM     22  C   UNL     1     -12.857   6.655  21.223  0.00  0.00    -0.050 A 
ATOM     24  C   UNL     1     -11.569   6.915  20.516  0.00  0.00    +0.044 C 
ENDBRANCH  14  16
ENDBRANCH   7  14
ENDBRANCH  15  10
TORSDOF 7
ENDMDL
MODEL 10
REMARK VINA RESULT:      -6.5     27.071     30.061
REMARK  Name = 26743740
REMARK  8 active torsions:
REMARK  status: ('A' for Active; 'I' for Inactive)
REMARK    1  A    between atoms: O_4  and  C_12
REMARK    2  A    between atoms: O_6  and  C_29
REMARK    3  A    between atoms: O_6  and  C_30
REMARK    4  A    between atoms: N_7  and  C_14
REMARK    5  A    between atoms: C_10  and  C_15
REMARK    6  A    between atoms: C_14  and  C_16
REMARK    7  A    between atoms: C_19  and  C_23
REMARK    8  A    between atoms: C_22  and  C_24
REMARK                            x       y       z     vdW  Elec       q    Type
REMARK                         _______ _______ _______ _____ _____    ______ ____
ROOT
ATOM      5  O   UNL     1      -6.689 -11.473  20.162  0.00  0.00    -0.336 OA
ATOM      8  N   UNL     1      -6.957 -12.329  18.109  0.00  0.00    -0.190 NA
ATOM      9  N   UNL     1      -5.499 -11.210  19.471  0.00  0.00    -0.056 NA
ATOM     15  C   UNL     1      -7.493 -12.135  19.288  0.00  0.00    +0.245 A 
ATOM     19  C   UNL     1      -5.734 -11.744  18.270  0.00  0.00    +0.202 A 
ENDROOT
BRANCH  19  23
ATOM     23  C   UNL     1      -4.770 -11.714  17.208  0.00  0.00    +0.023 A 
ATOM     25  C   UNL     1      -3.816 -10.698  17.160  0.00  0.00    +0.015 A 
ATOM     26  C   UNL     1      -4.788 -12.701  16.223  0.00  0.00    +0.015 A 
ATOM     27  C   UNL     1      -2.879 -10.669  16.127  0.00  0.00    +0.046 A 
ATOM     28  C   UNL     1      -3.852 -12.673  15.189  0.00  0.00    +0.046 A 
ATOM     29  C   UNL     1      -2.898 -11.656  15.141  0.00  0.00    +0.130 A 
BRANCH  29   6
ATOM      6  O   UNL     1      -1.984 -11.629  14.133  0.00  0.00    -0.406 OA
BRANCH   6  30
ATOM      1  F   UNL     1      -3.442 -10.261  13.086  0.00  0.00    -0.133 F 
ATOM      2  F   UNL     1      -1.375  -9.588  13.303  0.00  0.00    -0.133 F 
ATOM      3  F   UNL     1      -1.879 -11.208  11.887  0.00  0.00    -0.133 F 
ATOM     30  C   UNL     1      -2.153 -10.670  13.095  0.00  0.00    +0.575 C 
ENDBRANCH   6  30
ENDBRANCH  29   6
ENDBRANCH  19  23
BRANCH  15  10
ATOM      7  N   UNL     1      -9.959 -11.884  19.059  0.00  0.00    -0.285 NA
ATOM     10  C   UNL     1      -8.860 -12.536  19.800  0.00  0.00    +0.149 C 
ATOM     11  C   UNL     1      -9.129 -14.046  19.655  0.00  0.00    +0.061 C 
ATOM     12  C   UNL     1     -10.424 -14.141  18.858  0.00  0.00    +0.130 C 
ATOM     13  C   UNL     1     -11.094 -12.804  19.109  0.00  0.00    +0.116 C 
BRANCH  12   4
ATOM      4  O   UNL     1     -11.217 -15.219  19.315  0.00  0.00    -0.390 OA
ATOM     31  H   UNL     1     -11.137 -15.937  18.664  0.00  0.00    +0.210 HD
ENDBRANCH  12   4
BRANCH   7  14
ATOM     14  C   UNL     1     -10.297 -10.565  19.579  0.00  0.00    +0.120 C 
BRANCH  14  16
ATOM     16  C   UNL     1     -10.494  -9.561  18.474  0.00  0.00    -0.033 A 
ATOM     17  C   UNL     1     -11.783  -9.201  18.081  0.00  0.00    +0.005 A 
ATOM     18  C   UNL     1      -9.387  -8.993  17.843  0.00  0.00    +0.005 A 
ATOM     20  C   UNL     1     -11.965  -8.273  17.056  0.00  0.00    +0.003 A 
ATOM     21  C   UNL     1      -9.570  -8.065  16.817  0.00  0.00    +0.003 A 
ATOM     22  C   UNL     1     -10.858  -7.705  16.424  0.00  0.00    -0.050 A 
ATOM     24  C   UNL     1     -11.054  -6.713  15.328  0.00  0.00    +0.044 C 
ENDBRANCH  14  16
ENDBRANCH   7  14
ENDBRANCH  15  10
TORSDOF 7
ENDMDL
