MODEL 1
REMARK VINA RESULT:      -6.5      0.000      0.000
REMARK  Name = 11883059
REMARK  12 active torsions:
REMARK  status: ('A' for Active; 'I' for Inactive)
REMARK    1  A    between atoms: O_3  and  C_16
REMARK    2  A    between atoms: O_4  and  C_21
REMARK    3  A    between atoms: O_7  and  C_29
REMARK    4  A    between atoms: O_7  and  C_33
REMARK    5  A    between atoms: N_9  and  C_27
REMARK    6  A    between atoms: C_11  and  C_19
REMARK    7  A    between atoms: C_13  and  C_21
REMARK    8  A    between atoms: C_13  and  C_22
REMARK    9  A    between atoms: C_14  and  C_24
REMARK   10  A    between atoms: C_24  and  C_25
REMARK   11  A    between atoms: C_27  and  C_29
REMARK   12  A    between atoms: C_28  and  C_30
REMARK                            x       y       z     vdW  Elec       q    Type
REMARK                         _______ _______ _______ _____ _____    ______ ____
ROOT
ATOM      1  S   UNL     1      11.249   3.697   2.372  0.00  0.00    -0.057 S 
ATOM      6  O   UNL     1       9.163   7.064   4.817  0.00  0.00    -0.270 OA
ATOM      8  N   UNL     1      10.103   6.011   2.218  0.00  0.00    -0.229 NA
ATOM     10  N   UNL     1      10.263   5.020   4.409  0.00  0.00    -0.261 N 
ATOM     11  C   UNL     1      11.092   6.108  -1.508  0.00  0.00    -0.019 C 
ATOM     12  C   UNL     1      11.002   4.526  -1.654  0.00  0.00    +0.011 C 
ATOM     13  C   UNL     1      11.443   3.908  -3.037  0.00  0.00    +0.021 C 
ATOM     14  C   UNL     1      10.209   6.538  -0.246  0.00  0.00    +0.054 C 
ATOM     15  C   UNL     1      10.495   6.779  -2.773  0.00  0.00    +0.010 C 
ATOM     16  C   UNL     1      10.795   4.723  -4.192  0.00  0.00    +0.123 C 
ATOM     17  C   UNL     1      11.617   3.804  -0.420  0.00  0.00    +0.049 C 
ATOM     18  C   UNL     1      11.042   6.224  -4.080  0.00  0.00    +0.032 C 
ATOM     19  C   UNL     1      12.543   6.613  -1.316  0.00  0.00    +0.012 C 
ATOM     20  C   UNL     1      10.495   5.656   0.941  0.00  0.00    +0.058 A 
ATOM     22  C   UNL     1      10.904   2.453  -3.138  0.00  0.00    +0.016 C 
ATOM     23  C   UNL     1      11.111   4.425   0.839  0.00  0.00    +0.015 A 
ATOM     26  C   UNL     1      10.456   5.059   3.054  0.00  0.00    +0.165 A 
ATOM     28  C   UNL     1       9.642   6.003   5.199  0.00  0.00    +0.250 C 
ATOM     40  H   UNL     1      10.583   4.159   4.841  0.00  0.00    +0.157 HD
ENDROOT
BRANCH  28  30
ATOM      2  F   UNL     1       9.261   4.802  10.671  0.00  0.00    -0.205 F 
ATOM     30  C   UNL     1       9.540   5.685   6.648  0.00  0.00    +0.037 A 
ATOM     31  C   UNL     1       9.841   4.401   7.102  0.00  0.00    +0.016 A 
ATOM     32  C   UNL     1       9.144   6.671   7.552  0.00  0.00    +0.016 A 
ATOM     34  C   UNL     1       9.747   4.103   8.462  0.00  0.00    +0.039 A 
ATOM     35  C   UNL     1       9.050   6.372   8.912  0.00  0.00    +0.039 A 
ATOM     36  C   UNL     1       9.352   5.088   9.366  0.00  0.00    +0.123 A 
ENDBRANCH  28  30
BRANCH  16   3
ATOM      3  O   UNL     1      11.277   4.272  -5.457  0.00  0.00    -0.391 OA
ATOM     37  H   UNL     1      10.752   4.713  -6.147  0.00  0.00    +0.210 HD
ENDBRANCH  16   3
BRANCH  13  21
ATOM     21  C   UNL     1      12.972   3.799  -3.230  0.00  0.00    +0.165 C 
BRANCH  21   4
ATOM      4  O   UNL     1      13.224   2.678  -4.047  0.00  0.00    -0.394 OA
ATOM     38  H   UNL     1      13.459   3.009  -4.930  0.00  0.00    +0.209 HD
ENDBRANCH  21   4
ENDBRANCH  13  21
BRANCH  14  24
ATOM     24  C   UNL     1      10.306   8.025   0.123  0.00  0.00    +0.106 C 
BRANCH  24  25
ATOM      5  O   UNL     1       8.243   9.005  -0.675  0.00  0.00    -0.276 OA
ATOM      9  N   UNL     1       8.605   8.799   1.612  0.00  0.00    -0.313 N 
ATOM     25  C   UNL     1       8.944   8.661   0.273  0.00  0.00    +0.214 C 
ATOM     39  H   UNL     1       9.252   8.472   2.324  0.00  0.00    +0.149 HD
BRANCH   9  27
ATOM     27  C   UNL     1       7.358   9.380   2.055  0.00  0.00    +0.132 C 
BRANCH  27  29
ATOM     29  C   UNL     1       7.474   9.943   3.459  0.00  0.00    +0.178 C 
BRANCH  29   7
ATOM      7  O   UNL     1       6.212   9.864   4.106  0.00  0.00    -0.381 OA
ATOM     33  C   UNL     1       5.217  10.594   3.402  0.00  0.00    +0.194 C 
ENDBRANCH  29   7
ENDBRANCH  27  29
ENDBRANCH   9  27
ENDBRANCH  24  25
ENDBRANCH  14  24
TORSDOF 9
ENDMDL
MODEL 2
REMARK VINA RESULT:      -6.3     27.870     31.297
REMARK  Name = 11883059
REMARK  12 active torsions:
REMARK  status: ('A' for Active; 'I' for Inactive)
REMARK    1  A    between atoms: O_3  and  C_16
REMARK    2  A    between atoms: O_4  and  C_21
REMARK    3  A    between atoms: O_7  and  C_29
REMARK    4  A    between atoms: O_7  and  C_33
REMARK    5  A    between atoms: N_9  and  C_27
REMARK    6  A    between atoms: C_11  and  C_19
REMARK    7  A    between atoms: C_13  and  C_21
REMARK    8  A    between atoms: C_13  and  C_22
REMARK    9  A    between atoms: C_14  and  C_24
REMARK   10  A    between atoms: C_24  and  C_25
REMARK   11  A    between atoms: C_27  and  C_29
REMARK   12  A    between atoms: C_28  and  C_30
REMARK                            x       y       z     vdW  Elec       q    Type
REMARK                         _______ _______ _______ _____ _____    ______ ____
ROOT
ATOM      1  S   UNL     1     -10.188 -12.699  20.288  0.00  0.00    -0.057 S 
ATOM      6  O   UNL     1     -13.304  -9.296  19.663  0.00  0.00    -0.270 OA
ATOM      8  N   UNL     1     -10.685 -10.505  19.009  0.00  0.00    -0.229 NA
ATOM     10  N   UNL     1     -12.376 -11.276  20.543  0.00  0.00    -0.261 N 
ATOM     11  C   UNL     1      -7.101 -10.671  17.595  0.00  0.00    -0.019 C 
ATOM     12  C   UNL     1      -7.079 -12.263  17.623  0.00  0.00    +0.011 C 
ATOM     13  C   UNL     1      -5.722 -12.968  17.235  0.00  0.00    +0.021 C 
ATOM     14  C   UNL     1      -8.628 -10.199  17.581  0.00  0.00    +0.054 C 
ATOM     15  C   UNL     1      -6.422 -10.168  16.295  0.00  0.00    +0.010 C 
ATOM     16  C   UNL     1      -5.158 -12.315  15.941  0.00  0.00    +0.123 C 
ATOM     17  C   UNL     1      -7.724 -12.818  18.927  0.00  0.00    +0.049 C 
ATOM     18  C   UNL     1      -5.061 -10.796  16.028  0.00  0.00    +0.032 C 
ATOM     19  C   UNL     1      -6.378 -10.039  18.810  0.00  0.00    +0.012 C 
ATOM     20  C   UNL     1      -9.435 -10.944  18.613  0.00  0.00    +0.058 A 
ATOM     22  C   UNL     1      -6.001 -14.463  16.915  0.00  0.00    +0.016 C 
ATOM     23  C   UNL     1      -9.019 -12.127  19.190  0.00  0.00    +0.015 A 
ATOM     26  C   UNL     1     -11.171 -11.347  19.895  0.00  0.00    +0.165 A 
ATOM     28  C   UNL     1     -13.354 -10.278  20.395  0.00  0.00    +0.250 C 
ATOM     40  H   UNL     1     -12.555 -12.067  21.154  0.00  0.00    +0.157 HD
ENDROOT
BRANCH  28  30
ATOM      2  F   UNL     1     -18.009 -11.000  23.452  0.00  0.00    -0.205 F 
ATOM     30  C   UNL     1     -14.586 -10.469  21.204  0.00  0.00    +0.037 A 
ATOM     31  C   UNL     1     -14.691 -11.559  22.068  0.00  0.00    +0.016 A 
ATOM     32  C   UNL     1     -15.638  -9.558  21.100  0.00  0.00    +0.016 A 
ATOM     34  C   UNL     1     -15.847 -11.738  22.828  0.00  0.00    +0.039 A 
ATOM     35  C   UNL     1     -16.794  -9.737  21.860  0.00  0.00    +0.039 A 
ATOM     36  C   UNL     1     -16.898 -10.828  22.723  0.00  0.00    +0.123 A 
ENDBRANCH  28  30
BRANCH  16   3
ATOM      3  O   UNL     1      -3.867 -12.840  15.635  0.00  0.00    -0.391 OA
ATOM     37  H   UNL     1      -3.949 -13.369  14.823  0.00  0.00    +0.210 HD
ENDBRANCH  16   3
BRANCH  13  21
ATOM     21  C   UNL     1      -4.660 -12.973  18.357  0.00  0.00    +0.165 C 
BRANCH  21   4
ATOM      4  O   UNL     1      -4.056 -14.247  18.372  0.00  0.00    -0.394 OA
ATOM     38  H   UNL     1      -4.631 -14.834  18.892  0.00  0.00    +0.209 HD
ENDBRANCH  21   4
ENDBRANCH  13  21
BRANCH  14  24
ATOM     24  C   UNL     1      -8.827  -8.682  17.701  0.00  0.00    +0.106 C 
BRANCH  24  25
ATOM      5  O   UNL     1      -9.554  -8.623  15.394  0.00  0.00    -0.276 OA
ATOM      9  N   UNL     1     -10.234  -6.946  16.853  0.00  0.00    -0.313 N 
ATOM     25  C   UNL     1      -9.562  -8.111  16.511  0.00  0.00    +0.214 C 
ATOM     39  H   UNL     1     -10.186  -6.609  17.811  0.00  0.00    +0.149 HD
BRANCH   9  27
ATOM     27  C   UNL     1     -11.019  -6.182  15.912  0.00  0.00    +0.132 C 
BRANCH  27  29
ATOM     29  C   UNL     1     -12.471  -6.624  15.909  0.00  0.00    +0.178 C 
BRANCH  29   7
ATOM      7  O   UNL     1     -13.106  -6.156  14.727  0.00  0.00    -0.381 OA
ATOM     33  C   UNL     1     -12.238  -5.334  13.959  0.00  0.00    +0.194 C 
ENDBRANCH  29   7
ENDBRANCH  27  29
ENDBRANCH   9  27
ENDBRANCH  24  25
ENDBRANCH  14  24
TORSDOF 9
ENDMDL
MODEL 3
REMARK VINA RESULT:      -6.2     22.648     24.212
REMARK  Name = 11883059
REMARK  12 active torsions:
REMARK  status: ('A' for Active; 'I' for Inactive)
REMARK    1  A    between atoms: O_3  and  C_16
REMARK    2  A    between atoms: O_4  and  C_21
REMARK    3  A    between atoms: O_7  and  C_29
REMARK    4  A    between atoms: O_7  and  C_33
REMARK    5  A    between atoms: N_9  and  C_27
REMARK    6  A    between atoms: C_11  and  C_19
REMARK    7  A    between atoms: C_13  and  C_21
REMARK    8  A    between atoms: C_13  and  C_22
REMARK    9  A    between atoms: C_14  and  C_24
REMARK   10  A    between atoms: C_24  and  C_25
REMARK   11  A    between atoms: C_27  and  C_29
REMARK   12  A    between atoms: C_28  and  C_30
REMARK                            x       y       z     vdW  Elec       q    Type
REMARK                         _______ _______ _______ _____ _____    ______ ____
ROOT
ATOM      1  S   UNL     1      -7.840  -7.758   6.346  0.00  0.00    -0.057 S 
ATOM      6  O   UNL     1      -4.936 -11.373   6.759  0.00  0.00    -0.270 OA
ATOM      8  N   UNL     1      -6.962  -9.898   5.188  0.00  0.00    -0.229 NA
ATOM     10  N   UNL     1      -6.046  -9.381   7.356  0.00  0.00    -0.261 N 
ATOM     11  C   UNL     1      -9.591  -9.324   2.425  0.00  0.00    -0.019 C 
ATOM     12  C   UNL     1      -9.539  -7.743   2.596  0.00  0.00    +0.011 C 
ATOM     13  C   UNL     1     -10.564  -6.897   1.744  0.00  0.00    +0.021 C 
ATOM     14  C   UNL     1      -8.229  -9.928   3.007  0.00  0.00    +0.054 C 
ATOM     15  C   UNL     1      -9.677  -9.679   0.918  0.00  0.00    +0.010 C 
ATOM     16  C   UNL     1     -10.557  -7.411   0.277  0.00  0.00    +0.123 C 
ATOM     17  C   UNL     1      -9.482  -7.333   4.096  0.00  0.00    +0.049 C 
ATOM     18  C   UNL     1     -10.761  -8.918   0.167  0.00  0.00    +0.032 C 
ATOM     19  C   UNL     1     -10.793  -9.969   3.157  0.00  0.00    +0.012 C 
ATOM     20  C   UNL     1      -7.900  -9.325   4.348  0.00  0.00    +0.058 A 
ATOM     22  C   UNL     1     -10.098  -5.414   1.717  0.00  0.00    +0.016 C 
ATOM     23  C   UNL     1      -8.460  -8.151   4.809  0.00  0.00    +0.015 A 
ATOM     26  C   UNL     1      -6.855  -9.162   6.273  0.00  0.00    +0.165 A 
ATOM     28  C   UNL     1      -5.152 -10.450   7.536  0.00  0.00    +0.250 C 
ATOM     40  H   UNL     1      -6.103  -8.652   8.059  0.00  0.00    +0.157 HD
ENDROOT
BRANCH  28  30
ATOM      2  F   UNL     1      -2.209 -10.341  12.317  0.00  0.00    -0.205 F 
ATOM     30  C   UNL     1      -4.372 -10.421   8.801  0.00  0.00    +0.037 A 
ATOM     31  C   UNL     1      -3.863  -9.214   9.280  0.00  0.00    +0.016 A 
ATOM     32  C   UNL     1      -4.150 -11.602   9.511  0.00  0.00    +0.016 A 
ATOM     34  C   UNL     1      -3.132  -9.187  10.468  0.00  0.00    +0.039 A 
ATOM     35  C   UNL     1      -3.419 -11.575  10.699  0.00  0.00    +0.039 A 
ATOM     36  C   UNL     1      -2.910 -10.367  11.177  0.00  0.00    +0.123 A 
ENDBRANCH  28  30
BRANCH  16   3
ATOM      3  O   UNL     1     -11.566  -6.755  -0.490  0.00  0.00    -0.391 OA
ATOM     37  H   UNL     1     -11.164  -5.969  -0.897  0.00  0.00    +0.210 HD
ENDBRANCH  16   3
BRANCH  13  21
ATOM     21  C   UNL     1     -12.000  -6.871   2.312  0.00  0.00    +0.165 C 
BRANCH  21   4
ATOM      4  O   UNL     1     -12.522  -5.578   2.107  0.00  0.00    -0.394 OA
ATOM     38  H   UNL     1     -12.091  -4.987   2.748  0.00  0.00    +0.209 HD
ENDBRANCH  21   4
ENDBRANCH  13  21
BRANCH  14  24
ATOM     24  C   UNL     1      -8.179 -11.461   3.052  0.00  0.00    +0.106 C 
BRANCH  24  25
ATOM      5  O   UNL     1      -6.920 -12.119   1.094  0.00  0.00    -0.276 OA
ATOM      9  N   UNL     1      -5.974 -12.369   3.201  0.00  0.00    -0.313 N 
ATOM     25  C   UNL     1      -6.980 -12.010   2.316  0.00  0.00    +0.214 C 
ATOM     39  H   UNL     1      -6.117 -12.228   4.198  0.00  0.00    +0.149 HD
BRANCH   9  27
ATOM     27  C   UNL     1      -4.710 -12.926   2.778  0.00  0.00    +0.132 C 
BRANCH  27  29
ATOM     29  C   UNL     1      -3.555 -12.371   3.592  0.00  0.00    +0.178 C 
BRANCH  29   7
ATOM      7  O   UNL     1      -2.387 -12.323   2.784  0.00  0.00    -0.381 OA
ATOM     33  C   UNL     1      -1.919 -13.626   2.464  0.00  0.00    +0.194 C 
ENDBRANCH  29   7
ENDBRANCH  27  29
ENDBRANCH   9  27
ENDBRANCH  24  25
ENDBRANCH  14  24
TORSDOF 9
ENDMDL
MODEL 4
REMARK VINA RESULT:      -6.2     23.955     27.882
REMARK  Name = 11883059
REMARK  12 active torsions:
REMARK  status: ('A' for Active; 'I' for Inactive)
REMARK    1  A    between atoms: O_3  and  C_16
REMARK    2  A    between atoms: O_4  and  C_21
REMARK    3  A    between atoms: O_7  and  C_29
REMARK    4  A    between atoms: O_7  and  C_33
REMARK    5  A    between atoms: N_9  and  C_27
REMARK    6  A    between atoms: C_11  and  C_19
REMARK    7  A    between atoms: C_13  and  C_21
REMARK    8  A    between atoms: C_13  and  C_22
REMARK    9  A    between atoms: C_14  and  C_24
REMARK   10  A    between atoms: C_24  and  C_25
REMARK   11  A    between atoms: C_27  and  C_29
REMARK   12  A    between atoms: C_28  and  C_30
REMARK                            x       y       z     vdW  Elec       q    Type
REMARK                         _______ _______ _______ _____ _____    ______ ____
ROOT
ATOM      1  S   UNL     1      -7.455 -11.281  12.474  0.00  0.00    -0.057 S 
ATOM      6  O   UNL     1      -3.434 -11.356  10.129  0.00  0.00    -0.270 OA
ATOM      8  N   UNL     1      -4.879 -11.336  12.710  0.00  0.00    -0.229 NA
ATOM     10  N   UNL     1      -5.765 -11.306  10.469  0.00  0.00    -0.261 N 
ATOM     11  C   UNL     1      -5.349 -10.940  16.517  0.00  0.00    -0.019 C 
ATOM     12  C   UNL     1      -6.738 -11.717  16.505  0.00  0.00    +0.011 C 
ATOM     13  C   UNL     1      -7.533 -11.784  17.866  0.00  0.00    +0.021 C 
ATOM     14  C   UNL     1      -4.535 -11.365  15.208  0.00  0.00    +0.054 C 
ATOM     15  C   UNL     1      -4.529 -11.364  17.762  0.00  0.00    +0.010 C 
ATOM     16  C   UNL     1      -6.557 -12.178  19.011  0.00  0.00    +0.123 C 
ATOM     17  C   UNL     1      -7.613 -11.302  15.287  0.00  0.00    +0.049 C 
ATOM     18  C   UNL     1      -5.311 -11.299  19.066  0.00  0.00    +0.032 C 
ATOM     19  C   UNL     1      -5.523  -9.401  16.537  0.00  0.00    +0.012 C 
ATOM     20  C   UNL     1      -5.413 -11.319  13.985  0.00  0.00    +0.058 A 
ATOM     22  C   UNL     1      -8.609 -12.902  17.771  0.00  0.00    +0.016 C 
ATOM     23  C   UNL     1      -6.792 -11.310  14.042  0.00  0.00    +0.015 A 
ATOM     26  C   UNL     1      -5.861 -11.310  11.835  0.00  0.00    +0.165 A 
ATOM     28  C   UNL     1      -4.584 -11.329   9.708  0.00  0.00    +0.250 C 
ATOM     40  H   UNL     1      -6.665 -11.328   9.999  0.00  0.00    +0.157 HD
ENDROOT
BRANCH  28  30
ATOM      2  F   UNL     1      -5.309 -11.408   4.140  0.00  0.00    -0.205 F 
ATOM     30  C   UNL     1      -4.777 -11.350   8.234  0.00  0.00    +0.037 A 
ATOM     31  C   UNL     1      -5.490 -10.327   7.609  0.00  0.00    +0.016 A 
ATOM     32  C   UNL     1      -4.243 -12.393   7.476  0.00  0.00    +0.016 A 
ATOM     34  C   UNL     1      -5.670 -10.347   6.226  0.00  0.00    +0.039 A 
ATOM     35  C   UNL     1      -4.423 -12.412   6.092  0.00  0.00    +0.039 A 
ATOM     36  C   UNL     1      -5.137 -11.389   5.468  0.00  0.00    +0.123 A 
ENDBRANCH  28  30
BRANCH  16   3
ATOM      3  O   UNL     1      -7.215 -12.120  20.275  0.00  0.00    -0.391 OA
ATOM     37  H   UNL     1      -6.562 -11.830  20.935  0.00  0.00    +0.210 HD
ENDBRANCH  16   3
BRANCH  13  21
ATOM     21  C   UNL     1      -8.305 -10.493  18.220  0.00  0.00    +0.165 C 
BRANCH  21   4
ATOM      4  O   UNL     1      -9.323 -10.837  19.132  0.00  0.00    -0.394 OA
ATOM     38  H   UNL     1      -9.383 -11.807  19.147  0.00  0.00    +0.209 HD
ENDBRANCH  21   4
ENDBRANCH  13  21
BRANCH  14  24
ATOM     24  C   UNL     1      -3.228 -10.591  14.991  0.00  0.00    +0.106 C 
BRANCH  24  25
ATOM      5  O   UNL     1      -0.967 -11.328  15.435  0.00  0.00    -0.276 OA
ATOM      9  N   UNL     1      -2.322 -12.576  14.018  0.00  0.00    -0.313 N 
ATOM     25  C   UNL     1      -2.038 -11.512  14.862  0.00  0.00    +0.214 C 
ATOM     39  H   UNL     1      -3.246 -12.645  13.600  0.00  0.00    +0.149 HD
BRANCH   9  27
ATOM     27  C   UNL     1      -1.367 -13.615  13.708  0.00  0.00    +0.132 C 
BRANCH  27  29
ATOM     29  C   UNL     1      -1.918 -14.992  14.029  0.00  0.00    +0.178 C 
BRANCH  29   7
ATOM      7  O   UNL     1      -3.177 -14.860  14.673  0.00  0.00    -0.381 OA
ATOM     33  C   UNL     1      -4.100 -15.841  14.221  0.00  0.00    +0.194 C 
ENDBRANCH  29   7
ENDBRANCH  27  29
ENDBRANCH   9  27
ENDBRANCH  24  25
ENDBRANCH  14  24
TORSDOF 9
ENDMDL
MODEL 5
REMARK VINA RESULT:      -6.0     23.263     25.354
REMARK  Name = 11883059
REMARK  12 active torsions:
REMARK  status: ('A' for Active; 'I' for Inactive)
REMARK    1  A    between atoms: O_3  and  C_16
REMARK    2  A    between atoms: O_4  and  C_21
REMARK    3  A    between atoms: O_7  and  C_29
REMARK    4  A    between atoms: O_7  and  C_33
REMARK    5  A    between atoms: N_9  and  C_27
REMARK    6  A    between atoms: C_11  and  C_19
REMARK    7  A    between atoms: C_13  and  C_21
REMARK    8  A    between atoms: C_13  and  C_22
REMARK    9  A    between atoms: C_14  and  C_24
REMARK   10  A    between atoms: C_24  and  C_25
REMARK   11  A    between atoms: C_27  and  C_29
REMARK   12  A    between atoms: C_28  and  C_30
REMARK                            x       y       z     vdW  Elec       q    Type
REMARK                         _______ _______ _______ _____ _____    ______ ____
ROOT
ATOM      1  S   UNL     1      -8.553  -9.625  12.824  0.00  0.00    -0.057 S 
ATOM      6  O   UNL     1      -4.476 -10.664  14.817  0.00  0.00    -0.270 OA
ATOM      8  N   UNL     1      -6.039 -10.050  12.383  0.00  0.00    -0.229 NA
ATOM     10  N   UNL     1      -6.783 -10.206  14.670  0.00  0.00    -0.261 N 
ATOM     11  C   UNL     1      -6.797  -9.827   8.608  0.00  0.00    -0.019 C 
ATOM     12  C   UNL     1      -7.992  -8.799   8.829  0.00  0.00    +0.011 C 
ATOM     13  C   UNL     1      -8.833  -8.394   7.557  0.00  0.00    +0.021 C 
ATOM     14  C   UNL     1      -5.840  -9.752   9.886  0.00  0.00    +0.054 C 
ATOM     15  C   UNL     1      -5.979  -9.409   7.359  0.00  0.00    +0.010 C 
ATOM     16  C   UNL     1      -7.863  -8.050   6.391  0.00  0.00    +0.123 C 
ATOM     17  C   UNL     1      -8.864  -9.194  10.057  0.00  0.00    +0.049 C 
ATOM     18  C   UNL     1      -6.831  -9.141   6.126  0.00  0.00    +0.032 C 
ATOM     19  C   UNL     1      -7.286 -11.284   8.417  0.00  0.00    +0.012 C 
ATOM     20  C   UNL     1      -6.637  -9.788  11.164  0.00  0.00    +0.058 A 
ATOM     22  C   UNL     1      -9.647  -7.108   7.876  0.00  0.00    +0.016 C 
ATOM     23  C   UNL     1      -7.989  -9.517  11.221  0.00  0.00    +0.015 A 
ATOM     26  C   UNL     1      -6.954  -9.999  13.327  0.00  0.00    +0.165 A 
ATOM     28  C   UNL     1      -5.581 -10.520  15.326  0.00  0.00    +0.250 C 
ATOM     40  H   UNL     1      -7.631 -10.071  15.212  0.00  0.00    +0.157 HD
ENDROOT
BRANCH  28  30
ATOM      2  F   UNL     1      -5.959 -11.052  20.904  0.00  0.00    -0.205 F 
ATOM     30  C   UNL     1      -5.681 -10.660  16.803  0.00  0.00    +0.037 A 
ATOM     31  C   UNL     1      -6.797 -10.164  17.477  0.00  0.00    +0.016 A 
ATOM     32  C   UNL     1      -4.659 -11.289  17.515  0.00  0.00    +0.016 A 
ATOM     34  C   UNL     1      -6.891 -10.297  18.863  0.00  0.00    +0.039 A 
ATOM     35  C   UNL     1      -4.753 -11.422  18.901  0.00  0.00    +0.039 A 
ATOM     36  C   UNL     1      -5.870 -10.925  19.574  0.00  0.00    +0.123 A 
ENDBRANCH  28  30
BRANCH  16   3
ATOM      3  O   UNL     1      -8.590  -7.805   5.188  0.00  0.00    -0.391 OA
ATOM     37  H   UNL     1      -8.980  -6.917   5.254  0.00  0.00    +0.210 HD
ENDBRANCH  16   3
BRANCH  13  21
ATOM     21  C   UNL     1      -9.874  -9.446   7.115  0.00  0.00    +0.165 C 
BRANCH  21   4
ATOM      4  O   UNL     1     -11.014  -8.758   6.654  0.00  0.00    -0.394 OA
ATOM     38  H   UNL     1     -10.911  -8.636   5.695  0.00  0.00    +0.209 HD
ENDBRANCH  21   4
ENDBRANCH  13  21
BRANCH  14  24
ATOM     24  C   UNL     1      -4.711 -10.791   9.899  0.00  0.00    +0.106 C 
BRANCH  24  25
ATOM      5  O   UNL     1      -2.915  -9.172   9.963  0.00  0.00    -0.276 OA
ATOM      9  N   UNL     1      -2.862 -10.999  11.399  0.00  0.00    -0.313 N 
ATOM     25  C   UNL     1      -3.410 -10.209  10.398  0.00  0.00    +0.214 C 
ATOM     39  H   UNL     1      -3.357 -11.835  11.697  0.00  0.00    +0.149 HD
BRANCH   9  27
ATOM     27  C   UNL     1      -1.616 -10.686  12.060  0.00  0.00    +0.132 C 
BRANCH  27  29
ATOM     29  C   UNL     1      -1.844 -10.216  13.485  0.00  0.00    +0.178 C 
BRANCH  29   7
ATOM      7  O   UNL     1      -1.402 -11.218  14.390  0.00  0.00    -0.381 OA
ATOM     33  C   UNL     1      -1.083 -10.668  15.661  0.00  0.00    +0.194 C 
ENDBRANCH  29   7
ENDBRANCH  27  29
ENDBRANCH   9  27
ENDBRANCH  24  25
ENDBRANCH  14  24
TORSDOF 9
ENDMDL
MODEL 6
REMARK VINA RESULT:      -5.9     42.905     44.829
REMARK  Name = 11883059
REMARK  12 active torsions:
REMARK  status: ('A' for Active; 'I' for Inactive)
REMARK    1  A    between atoms: O_3  and  C_16
REMARK    2  A    between atoms: O_4  and  C_21
REMARK    3  A    between atoms: O_7  and  C_29
REMARK    4  A    between atoms: O_7  and  C_33
REMARK    5  A    between atoms: N_9  and  C_27
REMARK    6  A    between atoms: C_11  and  C_19
REMARK    7  A    between atoms: C_13  and  C_21
REMARK    8  A    between atoms: C_13  and  C_22
REMARK    9  A    between atoms: C_14  and  C_24
REMARK   10  A    between atoms: C_24  and  C_25
REMARK   11  A    between atoms: C_27  and  C_29
REMARK   12  A    between atoms: C_28  and  C_30
REMARK                            x       y       z     vdW  Elec       q    Type
REMARK                         _______ _______ _______ _____ _____    ______ ____
ROOT
ATOM      1  S   UNL     1      -6.561  -9.736  38.415  0.00  0.00    -0.057 S 
ATOM      6  O   UNL     1     -11.193  -9.278  38.424  0.00  0.00    -0.270 OA
ATOM      8  N   UNL     1      -8.550  -8.459  39.467  0.00  0.00    -0.229 NA
ATOM     10  N   UNL     1      -9.082 -10.123  37.806  0.00  0.00    -0.261 N 
ATOM     11  C   UNL     1      -6.040  -6.797  41.877  0.00  0.00    -0.019 C 
ATOM     12  C   UNL     1      -4.860  -6.850  40.809  0.00  0.00    +0.011 C 
ATOM     13  C   UNL     1      -3.434  -6.378  41.293  0.00  0.00    +0.021 C 
ATOM     14  C   UNL     1      -7.425  -6.884  41.085  0.00  0.00    +0.054 C 
ATOM     15  C   UNL     1      -5.993  -5.443  42.632  0.00  0.00    +0.010 C 
ATOM     16  C   UNL     1      -3.574  -5.036  42.067  0.00  0.00    +0.123 C 
ATOM     17  C   UNL     1      -4.845  -8.205  40.044  0.00  0.00    +0.049 C 
ATOM     18  C   UNL     1      -4.617  -5.090  43.179  0.00  0.00    +0.032 C 
ATOM     19  C   UNL     1      -5.966  -7.946  42.912  0.00  0.00    +0.012 C 
ATOM     20  C   UNL     1      -7.392  -7.982  40.054  0.00  0.00    +0.058 A 
ATOM     22  C   UNL     1      -2.542  -6.104  40.050  0.00  0.00    +0.016 C 
ATOM     23  C   UNL     1      -6.223  -8.548  39.588  0.00  0.00    +0.015 A 
ATOM     26  C   UNL     1      -8.233  -9.392  38.595  0.00  0.00    +0.165 A 
ATOM     28  C   UNL     1     -10.483 -10.028  37.765  0.00  0.00    +0.250 C 
ATOM     40  H   UNL     1      -8.603 -10.758  37.176  0.00  0.00    +0.157 HD
ENDROOT
BRANCH  28  30
ATOM      2  F   UNL     1     -13.012 -13.418  34.070  0.00  0.00    -0.205 F 
ATOM     30  C   UNL     1     -11.153 -10.926  36.787  0.00  0.00    +0.037 A 
ATOM     31  C   UNL     1     -12.392 -10.573  36.252  0.00  0.00    +0.016 A 
ATOM     32  C   UNL     1     -10.542 -12.121  36.405  0.00  0.00    +0.016 A 
ATOM     34  C   UNL     1     -13.020 -11.415  35.333  0.00  0.00    +0.039 A 
ATOM     35  C   UNL     1     -11.171 -12.963  35.487  0.00  0.00    +0.039 A 
ATOM     36  C   UNL     1     -12.410 -12.609  34.952  0.00  0.00    +0.123 A 
ENDBRANCH  28  30
BRANCH  16   3
ATOM      3  O   UNL     1      -2.323  -4.648  42.631  0.00  0.00    -0.391 OA
ATOM     37  H   UNL     1      -2.427  -3.750  42.991  0.00  0.00    +0.210 HD
ENDBRANCH  16   3
BRANCH  13  21
ATOM     21  C   UNL     1      -2.666  -7.421  42.135  0.00  0.00    +0.165 C 
BRANCH  21   4
ATOM      4  O   UNL     1      -1.289  -7.243  41.890  0.00  0.00    -0.394 OA
ATOM     38  H   UNL     1      -1.148  -6.299  41.706  0.00  0.00    +0.209 HD
ENDBRANCH  21   4
ENDBRANCH  13  21
BRANCH  14  24
ATOM     24  C   UNL     1      -8.666  -6.992  41.981  0.00  0.00    +0.106 C 
BRANCH  24  25
ATOM      5  O   UNL     1      -9.773  -4.931  42.598  0.00  0.00    -0.276 OA
ATOM      9  N   UNL     1     -10.267  -5.931  40.559  0.00  0.00    -0.313 N 
ATOM     25  C   UNL     1      -9.614  -5.833  41.779  0.00  0.00    +0.214 C 
ATOM     39  H   UNL     1     -10.057  -6.713  39.945  0.00  0.00    +0.149 HD
BRANCH   9  27
ATOM     27  C   UNL     1     -11.235  -4.961  40.101  0.00  0.00    +0.132 C 
BRANCH  27  29
ATOM     29  C   UNL     1     -10.584  -3.878  39.261  0.00  0.00    +0.178 C 
BRANCH  29   7
ATOM      7  O   UNL     1     -10.309  -2.747  40.076  0.00  0.00    -0.381 OA
ATOM     33  C   UNL     1      -8.939  -2.377  40.009  0.00  0.00    +0.194 C 
ENDBRANCH  29   7
ENDBRANCH  27  29
ENDBRANCH   9  27
ENDBRANCH  24  25
ENDBRANCH  14  24
TORSDOF 9
ENDMDL
MODEL 7
REMARK VINA RESULT:      -5.9     27.309     31.063
REMARK  Name = 11883059
REMARK  12 active torsions:
REMARK  status: ('A' for Active; 'I' for Inactive)
REMARK    1  A    between atoms: O_3  and  C_16
REMARK    2  A    between atoms: O_4  and  C_21
REMARK    3  A    between atoms: O_7  and  C_29
REMARK    4  A    between atoms: O_7  and  C_33
REMARK    5  A    between atoms: N_9  and  C_27
REMARK    6  A    between atoms: C_11  and  C_19
REMARK    7  A    between atoms: C_13  and  C_21
REMARK    8  A    between atoms: C_13  and  C_22
REMARK    9  A    between atoms: C_14  and  C_24
REMARK   10  A    between atoms: C_24  and  C_25
REMARK   11  A    between atoms: C_27  and  C_29
REMARK   12  A    between atoms: C_28  and  C_30
REMARK                            x       y       z     vdW  Elec       q    Type
REMARK                         _______ _______ _______ _____ _____    ______ ____
ROOT
ATOM      1  S   UNL     1     -11.623 -10.551  19.102  0.00  0.00    -0.057 S 
ATOM      6  O   UNL     1      -7.864  -9.040  16.809  0.00  0.00    -0.270 OA
ATOM      8  N   UNL     1     -10.792  -8.977  17.225  0.00  0.00    -0.229 NA
ATOM     10  N   UNL     1      -9.119 -10.275  18.376  0.00  0.00    -0.261 N 
ATOM     11  C   UNL     1     -14.483  -8.220  16.403  0.00  0.00    -0.019 C 
ATOM     12  C   UNL     1     -14.942  -8.423  17.914  0.00  0.00    +0.011 C 
ATOM     13  C   UNL     1     -16.491  -8.350  18.207  0.00  0.00    +0.021 C 
ATOM     14  C   UNL     1     -12.917  -7.896  16.403  0.00  0.00    +0.054 C 
ATOM     15  C   UNL     1     -15.233  -7.008  15.793  0.00  0.00    +0.010 C 
ATOM     16  C   UNL     1     -17.090  -7.108  17.489  0.00  0.00    +0.123 C 
ATOM     17  C   UNL     1     -14.238  -9.650  18.563  0.00  0.00    +0.049 C 
ATOM     18  C   UNL     1     -16.740  -7.046  16.006  0.00  0.00    +0.032 C 
ATOM     19  C   UNL     1     -14.750  -9.465  15.521  0.00  0.00    +0.012 C 
ATOM     20  C   UNL     1     -12.167  -8.849  17.297  0.00  0.00    +0.058 A 
ATOM     22  C   UNL     1     -16.708  -8.151  19.734  0.00  0.00    +0.016 C 
ATOM     23  C   UNL     1     -12.776  -9.613  18.271  0.00  0.00    +0.015 A 
ATOM     26  C   UNL     1     -10.397  -9.852  18.124  0.00  0.00    +0.165 A 
ATOM     28  C   UNL     1      -7.949  -9.855  17.720  0.00  0.00    +0.250 C 
ATOM     40  H   UNL     1      -9.053 -10.928  19.150  0.00  0.00    +0.157 HD
ENDROOT
BRANCH  28  30
ATOM      2  F   UNL     1      -3.181 -12.136  19.617  0.00  0.00    -0.205 F 
ATOM     30  C   UNL     1      -6.686 -10.458  18.222  0.00  0.00    +0.037 A 
ATOM     31  C   UNL     1      -6.591 -10.869  19.552  0.00  0.00    +0.016 A 
ATOM     32  C   UNL     1      -5.598 -10.615  17.363  0.00  0.00    +0.016 A 
ATOM     34  C   UNL     1      -5.406 -11.436  20.023  0.00  0.00    +0.039 A 
ATOM     35  C   UNL     1      -4.413 -11.182  17.835  0.00  0.00    +0.039 A 
ATOM     36  C   UNL     1      -4.318 -11.592  19.165  0.00  0.00    +0.123 A 
ENDBRANCH  28  30
BRANCH  16   3
ATOM      3  O   UNL     1     -18.510  -7.085  17.625  0.00  0.00    -0.391 OA
ATOM     37  H   UNL     1     -18.750  -7.712  18.328  0.00  0.00    +0.210 HD
ENDBRANCH  16   3
BRANCH  13  21
ATOM     21  C   UNL     1     -17.273  -9.630  17.839  0.00  0.00    +0.165 C 
BRANCH  21   4
ATOM      4  O   UNL     1     -18.332  -9.768  18.760  0.00  0.00    -0.394 OA
ATOM     38  H   UNL     1     -19.040 -10.264  18.314  0.00  0.00    +0.209 HD
ENDBRANCH  21   4
ENDBRANCH  13  21
BRANCH  14  24
ATOM     24  C   UNL     1     -12.282  -7.815  15.009  0.00  0.00    +0.106 C 
BRANCH  24  25
ATOM      5  O   UNL     1     -10.830  -5.900  15.289  0.00  0.00    -0.276 OA
ATOM      9  N   UNL     1     -12.498  -5.846  13.672  0.00  0.00    -0.313 N 
ATOM     25  C   UNL     1     -11.769  -6.429  14.699  0.00  0.00    +0.214 C 
ATOM     39  H   UNL     1     -13.253  -6.372  13.239  0.00  0.00    +0.149 HD
BRANCH   9  27
ATOM     27  C   UNL     1     -12.231  -4.519  13.167  0.00  0.00    +0.132 C 
BRANCH  27  29
ATOM     29  C   UNL     1     -12.406  -4.451  11.661  0.00  0.00    +0.178 C 
BRANCH  29   7
ATOM      7  O   UNL     1     -13.033  -3.225  11.312  0.00  0.00    -0.381 OA
ATOM     33  C   UNL     1     -14.402  -3.213  11.693  0.00  0.00    +0.194 C 
ENDBRANCH  29   7
ENDBRANCH  27  29
ENDBRANCH   9  27
ENDBRANCH  24  25
ENDBRANCH  14  24
TORSDOF 9
ENDMDL
MODEL 8
REMARK VINA RESULT:      -5.8     24.692     27.936
REMARK  Name = 11883059
REMARK  12 active torsions:
REMARK  status: ('A' for Active; 'I' for Inactive)
REMARK    1  A    between atoms: O_3  and  C_16
REMARK    2  A    between atoms: O_4  and  C_21
REMARK    3  A    between atoms: O_7  and  C_29
REMARK    4  A    between atoms: O_7  and  C_33
REMARK    5  A    between atoms: N_9  and  C_27
REMARK    6  A    between atoms: C_11  and  C_19
REMARK    7  A    between atoms: C_13  and  C_21
REMARK    8  A    between atoms: C_13  and  C_22
REMARK    9  A    between atoms: C_14  and  C_24
REMARK   10  A    between atoms: C_24  and  C_25
REMARK   11  A    between atoms: C_27  and  C_29
REMARK   12  A    between atoms: C_28  and  C_30
REMARK                            x       y       z     vdW  Elec       q    Type
REMARK                         _______ _______ _______ _____ _____    ______ ____
ROOT
ATOM      1  S   UNL     1      19.670  -5.956  20.343  0.00  0.00    -0.057 S 
ATOM      6  O   UNL     1      21.797  -9.897  21.613  0.00  0.00    -0.270 OA
ATOM      8  N   UNL     1      20.428  -7.384  22.362  0.00  0.00    -0.229 NA
ATOM     10  N   UNL     1      20.920  -8.254  20.169  0.00  0.00    -0.261 N 
ATOM     11  C   UNL     1      19.301  -4.500  24.660  0.00  0.00    -0.019 C 
ATOM     12  C   UNL     1      18.148  -4.050  23.660  0.00  0.00    +0.011 C 
ATOM     13  C   UNL     1      17.347  -2.742  24.032  0.00  0.00    +0.021 C 
ATOM     14  C   UNL     1      19.661  -6.025  24.343  0.00  0.00    +0.054 C 
ATOM     15  C   UNL     1      18.784  -4.413  26.119  0.00  0.00    +0.010 C 
ATOM     16  C   UNL     1      16.945  -2.798  25.534  0.00  0.00    +0.123 C 
ATOM     17  C   UNL     1      18.628  -4.091  22.180  0.00  0.00    +0.049 C 
ATOM     18  C   UNL     1      18.122  -3.085  26.460  0.00  0.00    +0.032 C 
ATOM     19  C   UNL     1      20.578  -3.633  24.533  0.00  0.00    +0.012 C 
ATOM     20  C   UNL     1      19.820  -6.247  22.862  0.00  0.00    +0.058 A 
ATOM     22  C   UNL     1      16.033  -2.699  23.203  0.00  0.00    +0.016 C 
ATOM     23  C   UNL     1      19.333  -5.376  21.909  0.00  0.00    +0.015 A 
ATOM     26  C   UNL     1      20.414  -7.334  21.048  0.00  0.00    +0.165 A 
ATOM     28  C   UNL     1      21.569  -9.457  20.492  0.00  0.00    +0.250 C 
ATOM     40  H   UNL     1      20.754  -8.020  19.195  0.00  0.00    +0.157 HD
ENDROOT
BRANCH  28  30
ATOM      2  F   UNL     1      23.167 -12.583  16.109  0.00  0.00    -0.205 F 
ATOM     30  C   UNL     1      21.992 -10.285  19.331  0.00  0.00    +0.037 A 
ATOM     31  C   UNL     1      23.270 -10.131  18.794  0.00  0.00    +0.016 A 
ATOM     32  C   UNL     1      21.111 -11.215  18.780  0.00  0.00    +0.016 A 
ATOM     34  C   UNL     1      23.667 -10.908  17.705  0.00  0.00    +0.039 A 
ATOM     35  C   UNL     1      21.508 -11.992  17.691  0.00  0.00    +0.039 A 
ATOM     36  C   UNL     1      22.786 -11.837  17.154  0.00  0.00    +0.123 A 
ENDBRANCH  28  30
BRANCH  16   3
ATOM      3  O   UNL     1      16.334  -1.573  25.936  0.00  0.00    -0.391 OA
ATOM     37  H   UNL     1      15.422  -1.774  26.209  0.00  0.00    +0.210 HD
ENDBRANCH  16   3
BRANCH  13  21
ATOM     21  C   UNL     1      18.086  -1.425  23.709  0.00  0.00    +0.165 C 
BRANCH  21   4
ATOM      4  O   UNL     1      17.568  -0.926  22.496  0.00  0.00    -0.394 OA
ATOM     38  H   UNL     1      16.633  -1.190  22.451  0.00  0.00    +0.209 HD
ENDBRANCH  21   4
ENDBRANCH  13  21
BRANCH  14  24
ATOM     24  C   UNL     1      20.862  -6.573  25.126  0.00  0.00    +0.106 C 
BRANCH  24  25
ATOM      5  O   UNL     1      21.073  -8.075  27.010  0.00  0.00    -0.276 OA
ATOM      9  N   UNL     1      19.414  -8.450  25.426  0.00  0.00    -0.313 N 
ATOM     25  C   UNL     1      20.490  -7.765  25.974  0.00  0.00    +0.214 C 
ATOM     39  H   UNL     1      18.993  -8.105  24.568  0.00  0.00    +0.149 HD
BRANCH   9  27
ATOM     27  C   UNL     1      18.844  -9.635  26.024  0.00  0.00    +0.132 C 
BRANCH  27  29
ATOM     29  C   UNL     1      17.502  -9.343  26.669  0.00  0.00    +0.178 C 
BRANCH  29   7
ATOM      7  O   UNL     1      16.986  -8.121  26.157  0.00  0.00    -0.381 OA
ATOM     33  C   UNL     1      15.607  -8.233  25.832  0.00  0.00    +0.194 C 
ENDBRANCH  29   7
ENDBRANCH  27  29
ENDBRANCH   9  27
ENDBRANCH  24  25
ENDBRANCH  14  24
TORSDOF 9
ENDMDL
MODEL 9
REMARK VINA RESULT:      -5.7     23.856     28.008
REMARK  Name = 11883059
REMARK  12 active torsions:
REMARK  status: ('A' for Active; 'I' for Inactive)
REMARK    1  A    between atoms: O_3  and  C_16
REMARK    2  A    between atoms: O_4  and  C_21
REMARK    3  A    between atoms: O_7  and  C_29
REMARK    4  A    between atoms: O_7  and  C_33
REMARK    5  A    between atoms: N_9  and  C_27
REMARK    6  A    between atoms: C_11  and  C_19
REMARK    7  A    between atoms: C_13  and  C_21
REMARK    8  A    between atoms: C_13  and  C_22
REMARK    9  A    between atoms: C_14  and  C_24
REMARK   10  A    between atoms: C_24  and  C_25
REMARK   11  A    between atoms: C_27  and  C_29
REMARK   12  A    between atoms: C_28  and  C_30
REMARK                            x       y       z     vdW  Elec       q    Type
REMARK                         _______ _______ _______ _____ _____    ______ ____
ROOT
ATOM      1  S   UNL     1      -9.290  -9.979  13.173  0.00  0.00    -0.057 S 
ATOM      6  O   UNL     1      -5.615  -9.297  10.397  0.00  0.00    -0.270 OA
ATOM      8  N   UNL     1      -6.711 -10.122  13.018  0.00  0.00    -0.229 NA
ATOM     10  N   UNL     1      -7.878  -9.349  11.055  0.00  0.00    -0.261 N 
ATOM     11  C   UNL     1      -6.663 -11.003  16.772  0.00  0.00    -0.019 C 
ATOM     12  C   UNL     1      -8.080 -11.726  16.700  0.00  0.00    +0.011 C 
ATOM     13  C   UNL     1      -8.694 -12.234  18.062  0.00  0.00    +0.021 C 
ATOM     14  C   UNL     1      -6.048 -10.977  15.297  0.00  0.00    +0.054 C 
ATOM     15  C   UNL     1      -5.711 -11.820  17.684  0.00  0.00    +0.010 C 
ATOM     16  C   UNL     1      -7.599 -12.989  18.868  0.00  0.00    +0.123 C 
ATOM     17  C   UNL     1      -9.083 -10.926  15.819  0.00  0.00    +0.049 C 
ATOM     18  C   UNL     1      -6.314 -12.185  19.033  0.00  0.00    +0.032 C 
ATOM     19  C   UNL     1      -6.754  -9.556  17.317  0.00  0.00    +0.012 C 
ATOM     20  C   UNL     1      -7.074 -10.524  14.290  0.00  0.00    +0.058 A 
ATOM     22  C   UNL     1      -9.829 -13.252  17.758  0.00  0.00    +0.016 C 
ATOM     23  C   UNL     1      -8.432 -10.527  14.538  0.00  0.00    +0.015 A 
ATOM     26  C   UNL     1      -7.796  -9.804  12.345  0.00  0.00    +0.165 A 
ATOM     28  C   UNL     1      -6.808  -9.126  10.173  0.00  0.00    +0.250 C 
ATOM     40  H   UNL     1      -8.830  -9.209  10.734  0.00  0.00    +0.157 HD
ENDROOT
BRANCH  28  30
ATOM      2  F   UNL     1      -8.251  -7.358   5.042  0.00  0.00    -0.205 F 
ATOM     30  C   UNL     1      -7.191  -8.658   8.814  0.00  0.00    +0.037 A 
ATOM     31  C   UNL     1      -7.905  -7.470   8.662  0.00  0.00    +0.016 A 
ATOM     32  C   UNL     1      -6.834  -9.407   7.692  0.00  0.00    +0.016 A 
ATOM     34  C   UNL     1      -8.264  -7.031   7.387  0.00  0.00    +0.039 A 
ATOM     35  C   UNL     1      -7.192  -8.967   6.417  0.00  0.00    +0.039 A 
ATOM     36  C   UNL     1      -7.907  -7.779   6.266  0.00  0.00    +0.123 A 
ENDBRANCH  28  30
BRANCH  16   3
ATOM      3  O   UNL     1      -8.084 -13.348  20.161  0.00  0.00    -0.391 OA
ATOM     37  H   UNL     1      -8.293 -14.298  20.144  0.00  0.00    +0.210 HD
ENDBRANCH  16   3
BRANCH  13  21
ATOM     21  C   UNL     1      -9.347 -11.128  18.922  0.00  0.00    +0.165 C 
BRANCH  21   4
ATOM      4  O   UNL     1     -10.414 -11.710  19.634  0.00  0.00    -0.394 OA
ATOM     38  H   UNL     1     -10.150 -12.619  19.861  0.00  0.00    +0.209 HD
ENDBRANCH  21   4
ENDBRANCH  13  21
BRANCH  14  24
ATOM     24  C   UNL     1      -4.743 -10.181  15.164  0.00  0.00    +0.106 C 
BRANCH  24  25
ATOM      5  O   UNL     1      -2.992 -11.850  15.221  0.00  0.00    -0.276 OA
ATOM      9  N   UNL     1      -3.425 -10.710  13.242  0.00  0.00    -0.313 N 
ATOM     25  C   UNL     1      -3.627 -11.016  14.580  0.00  0.00    +0.214 C 
ATOM     39  H   UNL     1      -4.013 -10.010  12.799  0.00  0.00    +0.149 HD
BRANCH   9  27
ATOM     27  C   UNL     1      -2.419 -11.353  12.428  0.00  0.00    +0.132 C 
BRANCH  27  29
ATOM     29  C   UNL     1      -3.031 -12.381  11.494  0.00  0.00    +0.178 C 
BRANCH  29   7
ATOM      7  O   UNL     1      -3.395 -11.753  10.273  0.00  0.00    -0.381 OA
ATOM     33  C   UNL     1      -4.285 -12.562   9.516  0.00  0.00    +0.194 C 
ENDBRANCH  29   7
ENDBRANCH  27  29
ENDBRANCH   9  27
ENDBRANCH  24  25
ENDBRANCH  14  24
TORSDOF 9
ENDMDL
MODEL 10
REMARK VINA RESULT:      -5.7     27.810     31.757
REMARK  Name = 11883059
REMARK  12 active torsions:
REMARK  status: ('A' for Active; 'I' for Inactive)
REMARK    1  A    between atoms: O_3  and  C_16
REMARK    2  A    between atoms: O_4  and  C_21
REMARK    3  A    between atoms: O_7  and  C_29
REMARK    4  A    between atoms: O_7  and  C_33
REMARK    5  A    between atoms: N_9  and  C_27
REMARK    6  A    between atoms: C_11  and  C_19
REMARK    7  A    between atoms: C_13  and  C_21
REMARK    8  A    between atoms: C_13  and  C_22
REMARK    9  A    between atoms: C_14  and  C_24
REMARK   10  A    between atoms: C_24  and  C_25
REMARK   11  A    between atoms: C_27  and  C_29
REMARK   12  A    between atoms: C_28  and  C_30
REMARK                            x       y       z     vdW  Elec       q    Type
REMARK                         _______ _______ _______ _____ _____    ______ ____
ROOT
ATOM      1  S   UNL     1     -11.236 -10.646  19.705  0.00  0.00    -0.057 S 
ATOM      6  O   UNL     1      -8.406  -9.057  16.368  0.00  0.00    -0.270 OA
ATOM      8  N   UNL     1     -11.113  -9.226  17.546  0.00  0.00    -0.229 NA
ATOM     10  N   UNL     1      -9.055 -10.217  18.315  0.00  0.00    -0.261 N 
ATOM     11  C   UNL     1     -14.955  -8.926  17.681  0.00  0.00    -0.019 C 
ATOM     12  C   UNL     1     -14.984  -8.997  19.271  0.00  0.00    +0.011 C 
ATOM     13  C   UNL     1     -16.402  -9.040  19.961  0.00  0.00    +0.021 C 
ATOM     14  C   UNL     1     -13.495  -8.455  17.234  0.00  0.00    +0.054 C 
ATOM     15  C   UNL     1     -15.980  -7.869  17.193  0.00  0.00    +0.010 C 
ATOM     16  C   UNL     1     -17.313  -7.952  19.325  0.00  0.00    +0.123 C 
ATOM     17  C   UNL     1     -13.992 -10.068  19.811  0.00  0.00    +0.049 C 
ATOM     18  C   UNL     1     -17.365  -8.026  17.803  0.00  0.00    +0.032 C 
ATOM     19  C   UNL     1     -15.285 -10.283  17.013  0.00  0.00    +0.012 C 
ATOM     20  C   UNL     1     -12.429  -9.223  17.972  0.00  0.00    +0.058 A 
ATOM     22  C   UNL     1     -16.244  -8.688  21.467  0.00  0.00    +0.016 C 
ATOM     23  C   UNL     1     -12.670  -9.925  19.136  0.00  0.00    +0.015 A 
ATOM     26  C   UNL     1     -10.397  -9.951  18.378  0.00  0.00    +0.165 A 
ATOM     28  C   UNL     1      -8.154  -9.766  17.335  0.00  0.00    +0.250 C 
ATOM     40  H   UNL     1      -8.713 -10.768  19.095  0.00  0.00    +0.157 HD
ENDROOT
BRANCH  28  30
ATOM      2  F   UNL     1      -2.815 -11.346  18.074  0.00  0.00    -0.205 F 
ATOM     30  C   UNL     1      -6.740 -10.184  17.531  0.00  0.00    +0.037 A 
ATOM     31  C   UNL     1      -6.365 -10.851  18.697  0.00  0.00    +0.016 A 
ATOM     32  C   UNL     1      -5.789  -9.910  16.548  0.00  0.00    +0.016 A 
ATOM     34  C   UNL     1      -5.039 -11.244  18.881  0.00  0.00    +0.039 A 
ATOM     35  C   UNL     1      -4.463 -10.303  16.731  0.00  0.00    +0.039 A 
ATOM     36  C   UNL     1      -4.089 -10.970  17.898  0.00  0.00    +0.123 A 
ENDBRANCH  28  30
BRANCH  16   3
ATOM      3  O   UNL     1     -18.643  -8.048  19.835  0.00  0.00    -0.391 OA
ATOM     37  H   UNL     1     -19.137  -8.653  19.256  0.00  0.00    +0.210 HD
ENDBRANCH  16   3
BRANCH  13  21
ATOM     21  C   UNL     1     -17.090 -10.422  19.927  0.00  0.00    +0.165 C 
BRANCH  21   4
ATOM      4  O   UNL     1     -17.817 -10.572  21.125  0.00  0.00    -0.394 OA
ATOM     38  H   UNL     1     -18.106  -9.685  21.401  0.00  0.00    +0.209 HD
ENDBRANCH  21   4
ENDBRANCH  13  21
BRANCH  14  24
ATOM     24  C   UNL     1     -13.253  -8.475  15.719  0.00  0.00    +0.106 C 
BRANCH  24  25
ATOM      5  O   UNL     1     -12.360  -6.233  15.895  0.00  0.00    -0.276 OA
ATOM      9  N   UNL     1     -13.075  -7.023  13.830  0.00  0.00    -0.313 N 
ATOM     25  C   UNL     1     -12.839  -7.121  15.193  0.00  0.00    +0.214 C 
ATOM     39  H   UNL     1     -13.466  -7.821  13.335  0.00  0.00    +0.149 HD
BRANCH   9  27
ATOM     27  C   UNL     1     -12.778  -5.838  13.059  0.00  0.00    +0.132 C 
BRANCH  27  29
ATOM     29  C   UNL     1     -13.879  -4.802  13.183  0.00  0.00    +0.178 C 
BRANCH  29   7
ATOM      7  O   UNL     1     -13.314  -3.500  13.113  0.00  0.00    -0.381 OA
ATOM     33  C   UNL     1     -12.299  -3.424  12.121  0.00  0.00    +0.194 C 
ENDBRANCH  29   7
ENDBRANCH  27  29
ENDBRANCH   9  27
ENDBRANCH  24  25
ENDBRANCH  14  24
TORSDOF 9
ENDMDL
