MODEL 1
REMARK VINA RESULT:      -7.5      0.000      0.000
REMARK  Name = 25338502
REMARK  7 active torsions:
REMARK  status: ('A' for Active; 'I' for Inactive)
REMARK    1  A    between atoms: O_3  and  C_27
REMARK    2  A    between atoms: O_3  and  C_29
REMARK    3  A    between atoms: N_4  and  C_15
REMARK    4  A    between atoms: N_5  and  C_10
REMARK    5  A    between atoms: N_7  and  C_19
REMARK    6  A    between atoms: C_11  and  C_14
REMARK    7  A    between atoms: C_17  and  C_18
REMARK                            x       y       z     vdW  Elec       q    Type
REMARK                         _______ _______ _______ _____ _____    ______ ____
ROOT
ATOM      4  N   UNL     1     -18.181   2.289  27.377  0.00  0.00    -0.293 NA
ATOM     10  C   UNL     1     -16.970   1.865  25.431  0.00  0.00    +0.090 C 
ATOM     11  C   UNL     1     -17.345   1.126  27.730  0.00  0.00    +0.147 C 
ATOM     12  C   UNL     1     -16.426   0.926  26.508  0.00  0.00    +0.052 C 
ATOM     13  C   UNL     1     -18.363   2.227  25.923  0.00  0.00    +0.107 C 
ATOM     15  C   UNL     1     -19.457   2.314  28.084  0.00  0.00    +0.105 C 
ENDROOT
BRANCH  10   5
ATOM      2  O   UNL     1     -16.082   3.036  22.973  0.00  0.00    -0.253 OA
ATOM      5  N   UNL     1     -16.142   3.039  25.284  0.00  0.00    -0.295 N 
ATOM      7  N   UNL     1     -14.960   4.685  24.210  0.00  0.00    -0.269 N 
ATOM     16  C   UNL     1     -15.752   3.547  24.041  0.00  0.00    +0.304 C 
ATOM     30  H   UNL     1     -15.770   3.474  26.122  0.00  0.00    +0.151 HD
ATOM     31  H   UNL     1     -14.780   4.979  25.167  0.00  0.00    +0.156 HD
BRANCH   7  19
ATOM     19  C   UNL     1     -14.369   5.490  23.206  0.00  0.00    +0.035 A 
ATOM     22  C   UNL     1     -14.915   6.736  22.901  0.00  0.00    +0.027 A 
ATOM     23  C   UNL     1     -13.241   5.035  22.523  0.00  0.00    +0.027 A 
ATOM     24  C   UNL     1     -14.333   7.529  21.912  0.00  0.00    +0.047 A 
ATOM     25  C   UNL     1     -12.659   5.828  21.534  0.00  0.00    +0.047 A 
ATOM     27  C   UNL     1     -13.204   7.075  21.228  0.00  0.00    +0.120 A 
BRANCH  27   3
ATOM      3  O   UNL     1     -12.637   7.849  20.263  0.00  0.00    -0.495 OA
ATOM     29  C   UNL     1     -11.508   7.308  19.580  0.00  0.00    +0.277 C 
ENDBRANCH  27   3
ENDBRANCH   7  19
ENDBRANCH  10   5
BRANCH  11  14
ATOM      1  O   UNL     1     -16.009   0.193  29.552  0.00  0.00    -0.336 OA
ATOM      6  N   UNL     1     -16.350   2.402  29.706  0.00  0.00    -0.190 NA
ATOM      8  N   UNL     1     -15.356   0.608  30.719  0.00  0.00    -0.056 NA
ATOM     14  C   UNL     1     -16.569   1.310  29.017  0.00  0.00    +0.245 A 
ATOM     17  C   UNL     1     -15.602   1.921  30.741  0.00  0.00    +0.204 A 
BRANCH  17  18
ATOM      9  N   UNL     1     -14.452   3.056  34.090  0.00  0.00    -0.263 NA
ATOM     18  C   UNL     1     -15.116   2.780  31.781  0.00  0.00    +0.041 A 
ATOM     20  C   UNL     1     -14.838   4.119  31.534  0.00  0.00    +0.014 A 
ATOM     21  C   UNL     1     -14.908   2.301  33.065  0.00  0.00    +0.122 A 
ATOM     26  C   UNL     1     -14.367   4.928  32.562  0.00  0.00    +0.020 A 
ATOM     28  C   UNL     1     -14.193   4.353  33.811  0.00  0.00    +0.111 A 
ENDBRANCH  17  18
ENDBRANCH  11  14
TORSDOF 5
ENDMDL
MODEL 2
REMARK VINA RESULT:      -7.5     27.918     31.814
REMARK  Name = 25338502
REMARK  7 active torsions:
REMARK  status: ('A' for Active; 'I' for Inactive)
REMARK    1  A    between atoms: O_3  and  C_27
REMARK    2  A    between atoms: O_3  and  C_29
REMARK    3  A    between atoms: N_4  and  C_15
REMARK    4  A    between atoms: N_5  and  C_10
REMARK    5  A    between atoms: N_7  and  C_19
REMARK    6  A    between atoms: C_11  and  C_14
REMARK    7  A    between atoms: C_17  and  C_18
REMARK                            x       y       z     vdW  Elec       q    Type
REMARK                         _______ _______ _______ _____ _____    ______ ____
ROOT
ATOM      4  N   UNL     1      13.410   9.256  18.534  0.00  0.00    -0.293 NA
ATOM     10  C   UNL     1      14.413   7.153  18.614  0.00  0.00    +0.090 C 
ATOM     11  C   UNL     1      12.366   8.389  19.112  0.00  0.00    +0.147 C 
ATOM     12  C   UNL     1      13.060   7.028  19.315  0.00  0.00    +0.052 C 
ATOM     13  C   UNL     1      14.258   8.376  17.723  0.00  0.00    +0.107 C 
ATOM     15  C   UNL     1      12.871  10.363  17.754  0.00  0.00    +0.105 C 
ENDROOT
BRANCH  10   5
ATOM      2  O   UNL     1      16.800   5.581  18.798  0.00  0.00    -0.253 OA
ATOM      5  N   UNL     1      15.489   7.325  19.561  0.00  0.00    -0.295 N 
ATOM      7  N   UNL     1      17.490   6.912  20.604  0.00  0.00    -0.269 N 
ATOM     16  C   UNL     1      16.625   6.510  19.584  0.00  0.00    +0.304 C 
ATOM     30  H   UNL     1      15.382   8.025  20.289  0.00  0.00    +0.151 HD
ATOM     31  H   UNL     1      17.193   7.705  21.168  0.00  0.00    +0.156 HD
BRANCH   7  19
ATOM     19  C   UNL     1      18.740   6.350  20.956  0.00  0.00    +0.035 A 
ATOM     22  C   UNL     1      19.366   6.729  22.143  0.00  0.00    +0.027 A 
ATOM     23  C   UNL     1      19.345   5.414  20.116  0.00  0.00    +0.027 A 
ATOM     24  C   UNL     1      20.598   6.175  22.490  0.00  0.00    +0.047 A 
ATOM     25  C   UNL     1      20.577   4.860  20.463  0.00  0.00    +0.047 A 
ATOM     27  C   UNL     1      21.204   5.240  21.650  0.00  0.00    +0.120 A 
BRANCH  27   3
ATOM      3  O   UNL     1      22.406   4.699  21.989  0.00  0.00    -0.495 OA
ATOM     29  C   UNL     1      22.398   3.360  22.481  0.00  0.00    +0.277 C 
ENDBRANCH  27   3
ENDBRANCH   7  19
ENDBRANCH  10   5
BRANCH  11  14
ATOM      1  O   UNL     1      10.867   8.142  21.027  0.00  0.00    -0.336 OA
ATOM      6  N   UNL     1      11.999  10.075  20.995  0.00  0.00    -0.190 NA
ATOM      8  N   UNL     1      10.463   8.849  22.167  0.00  0.00    -0.056 NA
ATOM     14  C   UNL     1      11.771   8.934  20.393  0.00  0.00    +0.245 A 
ATOM     17  C   UNL     1      11.174   9.977  22.078  0.00  0.00    +0.204 A 
BRANCH  17  18
ATOM      9  N   UNL     1      10.934  11.674  25.377  0.00  0.00    -0.263 NA
ATOM     18  C   UNL     1      11.084  11.024  23.053  0.00  0.00    +0.041 A 
ATOM     20  C   UNL     1      11.060  12.360  22.671  0.00  0.00    +0.014 A 
ATOM     21  C   UNL     1      11.019  10.736  24.408  0.00  0.00    +0.122 A 
ATOM     26  C   UNL     1      10.973  13.354  23.639  0.00  0.00    +0.020 A 
ATOM     28  C   UNL     1      10.913  12.962  24.967  0.00  0.00    +0.111 A 
ENDBRANCH  17  18
ENDBRANCH  11  14
TORSDOF 5
ENDMDL
MODEL 3
REMARK VINA RESULT:      -7.4     27.139     30.826
REMARK  Name = 25338502
REMARK  7 active torsions:
REMARK  status: ('A' for Active; 'I' for Inactive)
REMARK    1  A    between atoms: O_3  and  C_27
REMARK    2  A    between atoms: O_3  and  C_29
REMARK    3  A    between atoms: N_4  and  C_15
REMARK    4  A    between atoms: N_5  and  C_10
REMARK    5  A    between atoms: N_7  and  C_19
REMARK    6  A    between atoms: C_11  and  C_14
REMARK    7  A    between atoms: C_17  and  C_18
REMARK                            x       y       z     vdW  Elec       q    Type
REMARK                         _______ _______ _______ _____ _____    ______ ____
ROOT
ATOM      4  N   UNL     1      11.414   6.782  21.602  0.00  0.00    -0.293 NA
ATOM     10  C   UNL     1      10.591   8.927  21.993  0.00  0.00    +0.090 C 
ATOM     11  C   UNL     1      11.793   7.531  20.389  0.00  0.00    +0.147 C 
ATOM     12  C   UNL     1      11.394   8.988  20.693  0.00  0.00    +0.052 C 
ATOM     13  C   UNL     1      10.227   7.458  22.136  0.00  0.00    +0.107 C 
ATOM     15  C   UNL     1      11.167   5.367  21.349  0.00  0.00    +0.105 C 
ENDROOT
BRANCH  10   5
ATOM      2  O   UNL     1      10.886  11.637  22.874  0.00  0.00    -0.253 OA
ATOM      5  N   UNL     1      11.368   9.389  23.119  0.00  0.00    -0.295 N 
ATOM      7  N   UNL     1      12.277  10.881  24.606  0.00  0.00    -0.269 N 
ATOM     16  C   UNL     1      11.460  10.736  23.482  0.00  0.00    +0.304 C 
ATOM     30  H   UNL     1      11.929   8.713  23.626  0.00  0.00    +0.151 HD
ATOM     31  H   UNL     1      12.678  10.029  24.992  0.00  0.00    +0.156 HD
BRANCH   7  19
ATOM     19  C   UNL     1      12.621  12.075  25.282  0.00  0.00    +0.035 A 
ATOM     22  C   UNL     1      11.679  13.093  25.424  0.00  0.00    +0.027 A 
ATOM     23  C   UNL     1      13.904  12.234  25.808  0.00  0.00    +0.027 A 
ATOM     24  C   UNL     1      12.018  14.270  26.091  0.00  0.00    +0.047 A 
ATOM     25  C   UNL     1      14.244  13.411  26.475  0.00  0.00    +0.047 A 
ATOM     27  C   UNL     1      13.301  14.429  26.617  0.00  0.00    +0.120 A 
BRANCH  27   3
ATOM      3  O   UNL     1      13.632  15.578  27.267  0.00  0.00    -0.495 OA
ATOM     29  C   UNL     1      14.723  15.512  28.184  0.00  0.00    +0.277 C 
ENDBRANCH  27   3
ENDBRANCH   7  19
ENDBRANCH  10   5
BRANCH  11  14
ATOM      1  O   UNL     1      13.560   7.409  18.704  0.00  0.00    -0.336 OA
ATOM      6  N   UNL     1      14.297   7.257  20.813  0.00  0.00    -0.190 NA
ATOM      8  N   UNL     1      14.950   7.268  18.621  0.00  0.00    -0.056 NA
ATOM     14  C   UNL     1      13.257   7.393  20.028  0.00  0.00    +0.245 A 
ATOM     17  C   UNL     1      15.312   7.185  19.905  0.00  0.00    +0.204 A 
BRANCH  17  18
ATOM      9  N   UNL     1      18.493   7.717  21.756  0.00  0.00    -0.263 NA
ATOM     18  C   UNL     1      16.678   7.029  20.313  0.00  0.00    +0.041 A 
ATOM     20  C   UNL     1      17.504   6.088  19.710  0.00  0.00    +0.014 A 
ATOM     21  C   UNL     1      17.216   7.812  21.322  0.00  0.00    +0.122 A 
ATOM     26  C   UNL     1      18.825   5.960  20.128  0.00  0.00    +0.020 A 
ATOM     28  C   UNL     1      19.266   6.791  21.145  0.00  0.00    +0.111 A 
ENDBRANCH  17  18
ENDBRANCH  11  14
TORSDOF 5
ENDMDL
MODEL 4
REMARK VINA RESULT:      -7.1     29.213     32.451
REMARK  Name = 25338502
REMARK  7 active torsions:
REMARK  status: ('A' for Active; 'I' for Inactive)
REMARK    1  A    between atoms: O_3  and  C_27
REMARK    2  A    between atoms: O_3  and  C_29
REMARK    3  A    between atoms: N_4  and  C_15
REMARK    4  A    between atoms: N_5  and  C_10
REMARK    5  A    between atoms: N_7  and  C_19
REMARK    6  A    between atoms: C_11  and  C_14
REMARK    7  A    between atoms: C_17  and  C_18
REMARK                            x       y       z     vdW  Elec       q    Type
REMARK                         _______ _______ _______ _____ _____    ______ ____
ROOT
ATOM      4  N   UNL     1      12.824   8.431  20.137  0.00  0.00    -0.293 NA
ATOM     10  C   UNL     1      11.934   8.586  17.989  0.00  0.00    +0.090 C 
ATOM     11  C   UNL     1      13.281   7.193  19.477  0.00  0.00    +0.147 C 
ATOM     12  C   UNL     1      12.832   7.349  18.011  0.00  0.00    +0.052 C 
ATOM     13  C   UNL     1      11.587   8.819  19.451  0.00  0.00    +0.107 C 
ATOM     15  C   UNL     1      12.623   8.275  21.573  0.00  0.00    +0.105 C 
ENDROOT
BRANCH  10   5
ATOM      2  O   UNL     1      12.560   9.004  15.225  0.00  0.00    -0.253 OA
ATOM      5  N   UNL     1      12.614   9.726  17.421  0.00  0.00    -0.295 N 
ATOM      7  N   UNL     1      13.548  11.054  15.800  0.00  0.00    -0.269 N 
ATOM     16  C   UNL     1      12.883   9.852  16.054  0.00  0.00    +0.304 C 
ATOM     30  H   UNL     1      12.976  10.434  18.052  0.00  0.00    +0.151 HD
ATOM     31  H   UNL     1      13.741  11.648  16.603  0.00  0.00    +0.156 HD
BRANCH   7  19
ATOM     19  C   UNL     1      13.993  11.554  14.554  0.00  0.00    +0.035 A 
ATOM     22  C   UNL     1      15.328  11.402  14.178  0.00  0.00    +0.027 A 
ATOM     23  C   UNL     1      13.097  12.199  13.701  0.00  0.00    +0.027 A 
ATOM     24  C   UNL     1      15.767  11.895  12.949  0.00  0.00    +0.047 A 
ATOM     25  C   UNL     1      13.537  12.692  12.472  0.00  0.00    +0.047 A 
ATOM     27  C   UNL     1      14.871  12.540  12.096  0.00  0.00    +0.120 A 
BRANCH  27   3
ATOM      3  O   UNL     1      15.300  13.021  10.897  0.00  0.00    -0.495 OA
ATOM     29  C   UNL     1      16.578  12.580  10.441  0.00  0.00    +0.277 C 
ENDBRANCH  27   3
ENDBRANCH   7  19
ENDBRANCH  10   5
BRANCH  11  14
ATOM      1  O   UNL     1      15.351   6.203  18.635  0.00  0.00    -0.336 OA
ATOM      6  N   UNL     1      15.600   7.371  20.530  0.00  0.00    -0.190 NA
ATOM      8  N   UNL     1      16.709   6.122  18.966  0.00  0.00    -0.056 NA
ATOM     14  C   UNL     1      14.770   6.955  19.607  0.00  0.00    +0.245 A 
ATOM     17  C   UNL     1      16.777   6.835  20.095  0.00  0.00    +0.204 A 
BRANCH  17  18
ATOM      9  N   UNL     1      19.328   8.398  22.303  0.00  0.00    -0.263 NA
ATOM     18  C   UNL     1      18.004   7.031  20.810  0.00  0.00    +0.041 A 
ATOM     20  C   UNL     1      19.036   6.104  20.733  0.00  0.00    +0.014 A 
ATOM     21  C   UNL     1      18.198   8.152  21.602  0.00  0.00    +0.122 A 
ATOM     26  C   UNL     1      20.215   6.321  21.439  0.00  0.00    +0.020 A 
ATOM     28  C   UNL     1      20.310   7.474  22.203  0.00  0.00    +0.111 A 
ENDBRANCH  17  18
ENDBRANCH  11  14
TORSDOF 5
ENDMDL
MODEL 5
REMARK VINA RESULT:      -7.0      2.547      9.882
REMARK  Name = 25338502
REMARK  7 active torsions:
REMARK  status: ('A' for Active; 'I' for Inactive)
REMARK    1  A    between atoms: O_3  and  C_27
REMARK    2  A    between atoms: O_3  and  C_29
REMARK    3  A    between atoms: N_4  and  C_15
REMARK    4  A    between atoms: N_5  and  C_10
REMARK    5  A    between atoms: N_7  and  C_19
REMARK    6  A    between atoms: C_11  and  C_14
REMARK    7  A    between atoms: C_17  and  C_18
REMARK                            x       y       z     vdW  Elec       q    Type
REMARK                         _______ _______ _______ _____ _____    ______ ____
ROOT
ATOM      4  N   UNL     1     -17.022   4.406  23.144  0.00  0.00    -0.293 NA
ATOM     10  C   UNL     1     -17.380   5.122  25.333  0.00  0.00    +0.090 C 
ATOM     11  C   UNL     1     -16.688   5.842  23.103  0.00  0.00    +0.147 C 
ATOM     12  C   UNL     1     -16.771   6.300  24.573  0.00  0.00    +0.052 C 
ATOM     13  C   UNL     1     -17.980   4.248  24.243  0.00  0.00    +0.107 C 
ATOM     15  C   UNL     1     -17.554   3.904  21.882  0.00  0.00    +0.105 C 
ENDROOT
BRANCH  10   5
ATOM      2  O   UNL     1     -17.681   4.048  27.971  0.00  0.00    -0.253 OA
ATOM      5  N   UNL     1     -16.382   4.407  26.092  0.00  0.00    -0.295 N 
ATOM      7  N   UNL     1     -15.470   3.267  27.862  0.00  0.00    -0.269 N 
ATOM     16  C   UNL     1     -16.611   3.913  27.380  0.00  0.00    +0.304 C 
ATOM     30  H   UNL     1     -15.450   4.319  25.700  0.00  0.00    +0.151 HD
ATOM     31  H   UNL     1     -14.663   3.244  27.243  0.00  0.00    +0.156 HD
BRANCH   7  19
ATOM     19  C   UNL     1     -15.292   2.636  29.116  0.00  0.00    +0.035 A 
ATOM     22  C   UNL     1     -14.922   3.390  30.230  0.00  0.00    +0.027 A 
ATOM     23  C   UNL     1     -15.488   1.260  29.238  0.00  0.00    +0.027 A 
ATOM     24  C   UNL     1     -14.747   2.768  31.466  0.00  0.00    +0.047 A 
ATOM     25  C   UNL     1     -15.313   0.638  30.474  0.00  0.00    +0.047 A 
ATOM     27  C   UNL     1     -14.943   1.392  31.588  0.00  0.00    +0.120 A 
BRANCH  27   3
ATOM      3  O   UNL     1     -14.772   0.785  32.794  0.00  0.00    -0.495 OA
ATOM     29  C   UNL     1     -14.495   1.629  33.911  0.00  0.00    +0.277 C 
ENDBRANCH  27   3
ENDBRANCH   7  19
ENDBRANCH  10   5
BRANCH  11  14
ATOM      1  O   UNL     1     -14.457   5.096  22.438  0.00  0.00    -0.336 OA
ATOM      6  N   UNL     1     -14.883   7.244  21.965  0.00  0.00    -0.190 NA
ATOM      8  N   UNL     1     -13.301   5.597  21.828  0.00  0.00    -0.056 NA
ATOM     14  C   UNL     1     -15.338   6.130  22.480  0.00  0.00    +0.245 A 
ATOM     17  C   UNL     1     -13.629   6.868  21.579  0.00  0.00    +0.204 A 
BRANCH  17  18
ATOM      9  N   UNL     1     -12.007  10.071  20.611  0.00  0.00    -0.263 NA
ATOM     18  C   UNL     1     -12.729   7.787  20.945  0.00  0.00    +0.041 A 
ATOM     20  C   UNL     1     -11.736   7.340  20.082  0.00  0.00    +0.014 A 
ATOM     21  C   UNL     1     -12.822   9.151  21.174  0.00  0.00    +0.122 A 
ATOM     26  C   UNL     1     -10.878   8.255  19.482  0.00  0.00    +0.020 A 
ATOM     28  C   UNL     1     -11.054   9.598  19.777  0.00  0.00    +0.111 A 
ENDBRANCH  17  18
ENDBRANCH  11  14
TORSDOF 5
ENDMDL
MODEL 6
REMARK VINA RESULT:      -6.8     28.178     31.058
REMARK  Name = 25338502
REMARK  7 active torsions:
REMARK  status: ('A' for Active; 'I' for Inactive)
REMARK    1  A    between atoms: O_3  and  C_27
REMARK    2  A    between atoms: O_3  and  C_29
REMARK    3  A    between atoms: N_4  and  C_15
REMARK    4  A    between atoms: N_5  and  C_10
REMARK    5  A    between atoms: N_7  and  C_19
REMARK    6  A    between atoms: C_11  and  C_14
REMARK    7  A    between atoms: C_17  and  C_18
REMARK                            x       y       z     vdW  Elec       q    Type
REMARK                         _______ _______ _______ _____ _____    ______ ____
ROOT
ATOM      4  N   UNL     1      13.444   7.911  19.900  0.00  0.00    -0.293 NA
ATOM     10  C   UNL     1      11.390   8.677  20.693  0.00  0.00    +0.090 C 
ATOM     11  C   UNL     1      12.570   7.864  18.714  0.00  0.00    +0.147 C 
ATOM     12  C   UNL     1      11.250   8.511  19.180  0.00  0.00    +0.052 C 
ATOM     13  C   UNL     1      12.556   7.771  21.059  0.00  0.00    +0.107 C 
ATOM     15  C   UNL     1      14.485   6.889  19.887  0.00  0.00    +0.105 C 
ENDROOT
BRANCH  10   5
ATOM      2  O   UNL     1      10.679   9.970  23.148  0.00  0.00    -0.253 OA
ATOM      5  N   UNL     1      11.656  10.049  21.054  0.00  0.00    -0.295 N 
ATOM      7  N   UNL     1      11.663  11.945  22.347  0.00  0.00    -0.269 N 
ATOM     16  C   UNL     1      11.273  10.605  22.279  0.00  0.00    +0.304 C 
ATOM     30  H   UNL     1      12.078  10.657  20.359  0.00  0.00    +0.151 HD
ATOM     31  H   UNL     1      12.149  12.320  21.536  0.00  0.00    +0.156 HD
BRANCH   7  19
ATOM     19  C   UNL     1      11.464  12.854  23.412  0.00  0.00    +0.035 A 
ATOM     22  C   UNL     1      12.402  12.940  24.441  0.00  0.00    +0.027 A 
ATOM     23  C   UNL     1      10.330  13.666  23.433  0.00  0.00    +0.027 A 
ATOM     24  C   UNL     1      12.206  13.837  25.491  0.00  0.00    +0.047 A 
ATOM     25  C   UNL     1      10.134  14.564  24.483  0.00  0.00    +0.047 A 
ATOM     27  C   UNL     1      11.071  14.649  25.511  0.00  0.00    +0.120 A 
BRANCH  27   3
ATOM      3  O   UNL     1      10.881  15.525  26.536  0.00  0.00    -0.495 OA
ATOM     29  C   UNL     1      11.794  15.452  27.629  0.00  0.00    +0.277 C 
ENDBRANCH  27   3
ENDBRANCH   7  19
ENDBRANCH  10   5
BRANCH  11  14
ATOM      1  O   UNL     1      13.360   7.784  16.402  0.00  0.00    -0.336 OA
ATOM      6  N   UNL     1      13.512   9.807  17.350  0.00  0.00    -0.190 NA
ATOM      8  N   UNL     1      13.905   8.630  15.429  0.00  0.00    -0.056 NA
ATOM     14  C   UNL     1      13.159   8.555  17.502  0.00  0.00    +0.245 A 
ATOM     17  C   UNL     1      13.963   9.805  16.063  0.00  0.00    +0.204 A 
BRANCH  17  18
ATOM      9  N   UNL     1      14.148  12.778  13.838  0.00  0.00    -0.263 NA
ATOM     18  C   UNL     1      14.466  10.994  15.439  0.00  0.00    +0.041 A 
ATOM     20  C   UNL     1      15.702  11.523  15.794  0.00  0.00    +0.014 A 
ATOM     21  C   UNL     1      13.734  11.654  14.464  0.00  0.00    +0.122 A 
ATOM     26  C   UNL     1      16.163  12.678  15.171  0.00  0.00    +0.020 A 
ATOM     28  C   UNL     1      15.355  13.262  14.208  0.00  0.00    +0.111 A 
ENDBRANCH  17  18
ENDBRANCH  11  14
TORSDOF 5
ENDMDL
MODEL 7
REMARK VINA RESULT:      -6.6      5.491      9.935
REMARK  Name = 25338502
REMARK  7 active torsions:
REMARK  status: ('A' for Active; 'I' for Inactive)
REMARK    1  A    between atoms: O_3  and  C_27
REMARK    2  A    between atoms: O_3  and  C_29
REMARK    3  A    between atoms: N_4  and  C_15
REMARK    4  A    between atoms: N_5  and  C_10
REMARK    5  A    between atoms: N_7  and  C_19
REMARK    6  A    between atoms: C_11  and  C_14
REMARK    7  A    between atoms: C_17  and  C_18
REMARK                            x       y       z     vdW  Elec       q    Type
REMARK                         _______ _______ _______ _____ _____    ______ ____
ROOT
ATOM      4  N   UNL     1     -15.295   9.485  32.582  0.00  0.00    -0.293 NA
ATOM     10  C   UNL     1     -14.745   7.361  33.367  0.00  0.00    +0.090 C 
ATOM     11  C   UNL     1     -13.843   9.566  32.827  0.00  0.00    +0.147 C 
ATOM     12  C   UNL     1     -13.433   8.128  33.201  0.00  0.00    +0.052 C 
ATOM     13  C   UNL     1     -15.799   8.450  33.491  0.00  0.00    +0.107 C 
ATOM     15  C   UNL     1     -15.982  10.758  32.773  0.00  0.00    +0.105 C 
ENDROOT
BRANCH  10   5
ATOM      2  O   UNL     1     -14.210   4.553  33.190  0.00  0.00    -0.253 OA
ATOM      5  N   UNL     1     -15.005   6.503  32.235  0.00  0.00    -0.295 N 
ATOM      7  N   UNL     1     -15.072   4.567  31.006  0.00  0.00    -0.269 N 
ATOM     16  C   UNL     1     -14.712   5.135  32.231  0.00  0.00    +0.304 C 
ATOM     30  H   UNL     1     -15.351   6.926  31.380  0.00  0.00    +0.151 HD
ATOM     31  H   UNL     1     -15.478   5.192  30.314  0.00  0.00    +0.156 HD
BRANCH   7  19
ATOM     19  C   UNL     1     -14.941   3.217  30.603  0.00  0.00    +0.035 A 
ATOM     22  C   UNL     1     -16.074   2.473  30.277  0.00  0.00    +0.027 A 
ATOM     23  C   UNL     1     -13.677   2.631  30.531  0.00  0.00    +0.027 A 
ATOM     24  C   UNL     1     -15.945   1.142  29.879  0.00  0.00    +0.047 A 
ATOM     25  C   UNL     1     -13.547   1.300  30.133  0.00  0.00    +0.047 A 
ATOM     27  C   UNL     1     -14.681   0.556  29.807  0.00  0.00    +0.120 A 
BRANCH  27   3
ATOM      3  O   UNL     1     -14.555  -0.743  29.419  0.00  0.00    -0.495 OA
ATOM     29  C   UNL     1     -13.229  -1.249  29.270  0.00  0.00    +0.277 C 
ENDBRANCH  27   3
ENDBRANCH   7  19
ENDBRANCH  10   5
BRANCH  11  14
ATOM      1  O   UNL     1     -12.033  10.946  31.936  0.00  0.00    -0.336 OA
ATOM      6  N   UNL     1     -13.229   9.882  30.369  0.00  0.00    -0.190 NA
ATOM      8  N   UNL     1     -11.471  11.307  30.705  0.00  0.00    -0.056 NA
ATOM     14  C   UNL     1     -13.061  10.106  31.648  0.00  0.00    +0.245 A 
ATOM     17  C   UNL     1     -12.230  10.641  29.830  0.00  0.00    +0.204 A 
BRANCH  17  18
ATOM      9  N   UNL     1     -12.878  11.256  26.221  0.00  0.00    -0.263 NA
ATOM     18  C   UNL     1     -12.017  10.709  28.414  0.00  0.00    +0.041 A 
ATOM     20  C   UNL     1     -10.807  10.323  27.851  0.00  0.00    +0.014 A 
ATOM     21  C   UNL     1     -13.012  11.165  27.563  0.00  0.00    +0.122 A 
ATOM     26  C   UNL     1     -10.630  10.401  26.473  0.00  0.00    +0.020 A 
ATOM     28  C   UNL     1     -11.687  10.870  25.709  0.00  0.00    +0.111 A 
ENDBRANCH  17  18
ENDBRANCH  11  14
TORSDOF 5
ENDMDL
MODEL 8
REMARK VINA RESULT:      -6.6     20.410     22.681
REMARK  Name = 25338502
REMARK  7 active torsions:
REMARK  status: ('A' for Active; 'I' for Inactive)
REMARK    1  A    between atoms: O_3  and  C_27
REMARK    2  A    between atoms: O_3  and  C_29
REMARK    3  A    between atoms: N_4  and  C_15
REMARK    4  A    between atoms: N_5  and  C_10
REMARK    5  A    between atoms: N_7  and  C_19
REMARK    6  A    between atoms: C_11  and  C_14
REMARK    7  A    between atoms: C_17  and  C_18
REMARK                            x       y       z     vdW  Elec       q    Type
REMARK                         _______ _______ _______ _____ _____    ______ ____
ROOT
ATOM      4  N   UNL     1      -3.558 -12.125  11.815  0.00  0.00    -0.293 NA
ATOM     10  C   UNL     1      -3.384 -10.286  10.393  0.00  0.00    +0.090 C 
ATOM     11  C   UNL     1      -2.610 -11.232  12.508  0.00  0.00    +0.147 C 
ATOM     12  C   UNL     1      -2.599  -9.945  11.660  0.00  0.00    +0.052 C 
ATOM     13  C   UNL     1      -3.440 -11.806  10.388  0.00  0.00    +0.107 C 
ATOM     15  C   UNL     1      -3.313 -13.538  12.078  0.00  0.00    +0.105 C 
ENDROOT
BRANCH  10   5
ATOM      2  O   UNL     1      -4.936  -9.460   8.131  0.00  0.00    -0.253 OA
ATOM      5  N   UNL     1      -4.709  -9.711  10.418  0.00  0.00    -0.295 N 
ATOM      7  N   UNL     1      -6.652  -8.811   9.595  0.00  0.00    -0.269 N 
ATOM     16  C   UNL     1      -5.399  -9.333   9.262  0.00  0.00    +0.304 C 
ATOM     30  H   UNL     1      -5.128  -9.508  11.320  0.00  0.00    +0.151 HD
ATOM     31  H   UNL     1      -6.883  -8.776  10.585  0.00  0.00    +0.156 HD
BRANCH   7  19
ATOM     19  C   UNL     1      -7.648  -8.319   8.719  0.00  0.00    +0.035 A 
ATOM     22  C   UNL     1      -8.574  -9.196   8.153  0.00  0.00    +0.027 A 
ATOM     23  C   UNL     1      -7.706  -6.957   8.423  0.00  0.00    +0.027 A 
ATOM     24  C   UNL     1      -9.556  -8.711   7.290  0.00  0.00    +0.047 A 
ATOM     25  C   UNL     1      -8.689  -6.472   7.560  0.00  0.00    +0.047 A 
ATOM     27  C   UNL     1      -9.614  -7.349   6.994  0.00  0.00    +0.120 A 
BRANCH  27   3
ATOM      3  O   UNL     1     -10.573  -6.876   6.152  0.00  0.00    -0.495 OA
ATOM     29  C   UNL     1     -10.378  -7.101   4.756  0.00  0.00    +0.277 C 
ENDBRANCH  27   3
ENDBRANCH   7  19
ENDBRANCH  10   5
BRANCH  11  14
ATOM      1  O   UNL     1      -1.942 -10.730  14.805  0.00  0.00    -0.336 OA
ATOM      6  N   UNL     1      -4.153 -10.945  14.521  0.00  0.00    -0.190 NA
ATOM      8  N   UNL     1      -2.518 -10.523  16.064  0.00  0.00    -0.056 NA
ATOM     14  C   UNL     1      -2.973 -10.972  13.954  0.00  0.00    +0.245 A 
ATOM     17  C   UNL     1      -3.823 -10.666  15.816  0.00  0.00    +0.204 A 
BRANCH  17  18
ATOM      9  N   UNL     1      -7.012  -9.751  17.493  0.00  0.00    -0.263 NA
ATOM     18  C   UNL     1      -4.821 -10.536  16.836  0.00  0.00    +0.041 A 
ATOM     20  C   UNL     1      -4.610 -11.037  18.115  0.00  0.00    +0.014 A 
ATOM     21  C   UNL     1      -6.029  -9.907  16.578  0.00  0.00    +0.122 A 
ATOM     26  C   UNL     1      -5.597 -10.896  19.084  0.00  0.00    +0.020 A 
ATOM     28  C   UNL     1      -6.770 -10.251  18.726  0.00  0.00    +0.111 A 
ENDBRANCH  17  18
ENDBRANCH  11  14
TORSDOF 5
ENDMDL
MODEL 9
REMARK VINA RESULT:      -6.4     20.391     24.229
REMARK  Name = 25338502
REMARK  7 active torsions:
REMARK  status: ('A' for Active; 'I' for Inactive)
REMARK    1  A    between atoms: O_3  and  C_27
REMARK    2  A    between atoms: O_3  and  C_29
REMARK    3  A    between atoms: N_4  and  C_15
REMARK    4  A    between atoms: N_5  and  C_10
REMARK    5  A    between atoms: N_7  and  C_19
REMARK    6  A    between atoms: C_11  and  C_14
REMARK    7  A    between atoms: C_17  and  C_18
REMARK                            x       y       z     vdW  Elec       q    Type
REMARK                         _______ _______ _______ _____ _____    ______ ____
ROOT
ATOM      4  N   UNL     1      -1.949  -9.662  11.825  0.00  0.00    -0.293 NA
ATOM     10  C   UNL     1      -2.566 -11.210  13.454  0.00  0.00    +0.090 C 
ATOM     11  C   UNL     1      -2.744 -10.657  11.081  0.00  0.00    +0.147 C 
ATOM     12  C   UNL     1      -3.289 -11.606  12.167  0.00  0.00    +0.052 C 
ATOM     13  C   UNL     1      -1.388 -10.376  12.976  0.00  0.00    +0.107 C 
ATOM     15  C   UNL     1      -0.911  -9.035  11.014  0.00  0.00    +0.105 C 
ENDROOT
BRANCH  10   5
ATOM      2  O   UNL     1      -4.274 -12.260  15.499  0.00  0.00    -0.253 OA
ATOM      5  N   UNL     1      -3.424 -10.453  14.334  0.00  0.00    -0.295 N 
ATOM      7  N   UNL     1      -4.947 -10.069  16.006  0.00  0.00    -0.269 N 
ATOM     16  C   UNL     1      -4.231 -11.046  15.310  0.00  0.00    +0.304 C 
ATOM     30  H   UNL     1      -3.498  -9.451  14.190  0.00  0.00    +0.151 HD
ATOM     31  H   UNL     1      -4.796  -9.104  15.724  0.00  0.00    +0.156 HD
BRANCH   7  19
ATOM     19  C   UNL     1      -5.868 -10.256  17.065  0.00  0.00    +0.035 A 
ATOM     22  C   UNL     1      -5.406 -10.551  18.347  0.00  0.00    +0.027 A 
ATOM     23  C   UNL     1      -7.238 -10.143  16.825  0.00  0.00    +0.027 A 
ATOM     24  C   UNL     1      -6.313 -10.735  19.390  0.00  0.00    +0.047 A 
ATOM     25  C   UNL     1      -8.145 -10.326  17.869  0.00  0.00    +0.047 A 
ATOM     27  C   UNL     1      -7.683 -10.622  19.151  0.00  0.00    +0.120 A 
BRANCH  27   3
ATOM      3  O   UNL     1      -8.568 -10.801  20.169  0.00  0.00    -0.495 OA
ATOM     29  C   UNL     1      -9.927 -11.047  19.812  0.00  0.00    +0.277 C 
ENDBRANCH  27   3
ENDBRANCH   7  19
ENDBRANCH  10   5
BRANCH  11  14
ATOM      1  O   UNL     1      -4.264  -8.803  10.602  0.00  0.00    -0.336 OA
ATOM      6  N   UNL     1      -4.463 -10.536   9.197  0.00  0.00    -0.190 NA
ATOM      8  N   UNL     1      -5.269  -8.453   9.692  0.00  0.00    -0.056 NA
ATOM     14  C   UNL     1      -3.844 -10.044  10.240  0.00  0.00    +0.245 A 
ATOM     17  C   UNL     1      -5.328  -9.524   8.896  0.00  0.00    +0.204 A 
BRANCH  17  18
ATOM      9  N   UNL     1      -8.519  -9.599   6.989  0.00  0.00    -0.263 NA
ATOM     18  C   UNL     1      -6.238  -9.615   7.792  0.00  0.00    +0.041 A 
ATOM     20  C   UNL     1      -5.776  -9.800   6.494  0.00  0.00    +0.014 A 
ATOM     21  C   UNL     1      -7.608  -9.522   7.984  0.00  0.00    +0.122 A 
ATOM     26  C   UNL     1      -6.682  -9.884   5.443  0.00  0.00    +0.020 A 
ATOM     28  C   UNL     1      -8.032  -9.779   5.741  0.00  0.00    +0.111 A 
ENDBRANCH  17  18
ENDBRANCH  11  14
TORSDOF 5
ENDMDL
MODEL 10
REMARK VINA RESULT:      -6.3     42.849     45.526
REMARK  Name = 25338502
REMARK  7 active torsions:
REMARK  status: ('A' for Active; 'I' for Inactive)
REMARK    1  A    between atoms: O_3  and  C_27
REMARK    2  A    between atoms: O_3  and  C_29
REMARK    3  A    between atoms: N_4  and  C_15
REMARK    4  A    between atoms: N_5  and  C_10
REMARK    5  A    between atoms: N_7  and  C_19
REMARK    6  A    between atoms: C_11  and  C_14
REMARK    7  A    between atoms: C_17  and  C_18
REMARK                            x       y       z     vdW  Elec       q    Type
REMARK                         _______ _______ _______ _____ _____    ______ ____
ROOT
ATOM      4  N   UNL     1      16.978  -7.264  -3.082  0.00  0.00    -0.293 NA
ATOM     10  C   UNL     1      17.851  -9.412  -2.839  0.00  0.00    +0.090 C 
ATOM     11  C   UNL     1      16.935  -7.818  -4.448  0.00  0.00    +0.147 C 
ATOM     12  C   UNL     1      17.365  -9.289  -4.284  0.00  0.00    +0.052 C 
ATOM     13  C   UNL     1      18.063  -7.973  -2.396  0.00  0.00    +0.107 C 
ATOM     15  C   UNL     1      17.168  -5.819  -3.053  0.00  0.00    +0.105 C 
ENDROOT
BRANCH  10   5
ATOM      2  O   UNL     1      18.397 -11.096  -0.588  0.00  0.00    -0.253 OA
ATOM      5  N   UNL     1      16.880 -10.081  -2.007  0.00  0.00    -0.295 N 
ATOM      7  N   UNL     1      16.087 -11.402  -0.307  0.00  0.00    -0.269 N 
ATOM     16  C   UNL     1      17.232 -10.891  -0.923  0.00  0.00    +0.304 C 
ATOM     30  H   UNL     1      15.900 -10.018  -2.265  0.00  0.00    +0.151 HD
ATOM     31  H   UNL     1      15.193 -11.132  -0.710  0.00  0.00    +0.156 HD
BRANCH   7  19
ATOM     19  C   UNL     1      16.013 -12.257   0.817  0.00  0.00    +0.035 A 
ATOM     22  C   UNL     1      16.495 -13.563   0.733  0.00  0.00    +0.027 A 
ATOM     23  C   UNL     1      15.458 -11.794   2.011  0.00  0.00    +0.027 A 
ATOM     24  C   UNL     1      16.422 -14.407   1.842  0.00  0.00    +0.047 A 
ATOM     25  C   UNL     1      15.386 -12.637   3.119  0.00  0.00    +0.047 A 
ATOM     27  C   UNL     1      15.867 -13.943   3.035  0.00  0.00    +0.120 A 
BRANCH  27   3
ATOM      3  O   UNL     1      15.796 -14.766   4.117  0.00  0.00    -0.495 OA
ATOM     29  C   UNL     1      16.200 -14.223   5.373  0.00  0.00    +0.277 C 
ENDBRANCH  27   3
ENDBRANCH   7  19
ENDBRANCH  10   5
BRANCH  11  14
ATOM      1  O   UNL     1      14.821  -8.802  -5.181  0.00  0.00    -0.336 OA
ATOM      6  N   UNL     1      15.022  -6.620  -5.643  0.00  0.00    -0.190 NA
ATOM      8  N   UNL     1      13.637  -8.430  -5.828  0.00  0.00    -0.056 NA
ATOM     14  C   UNL     1      15.582  -7.679  -5.113  0.00  0.00    +0.245 A 
ATOM     17  C   UNL     1      13.830  -7.131  -6.068  0.00  0.00    +0.204 A 
BRANCH  17  18
ATOM      9  N   UNL     1      11.034  -6.145  -8.312  0.00  0.00    -0.263 NA
ATOM     18  C   UNL     1      12.855  -6.314  -6.730  0.00  0.00    +0.041 A 
ATOM     20  C   UNL     1      12.759  -4.953  -6.463  0.00  0.00    +0.014 A 
ATOM     21  C   UNL     1      11.976  -6.857  -7.654  0.00  0.00    +0.122 A 
ATOM     26  C   UNL     1      11.803  -4.186  -7.120  0.00  0.00    +0.020 A 
ATOM     28  C   UNL     1      10.971  -4.824  -8.027  0.00  0.00    +0.111 A 
ENDBRANCH  17  18
ENDBRANCH  11  14
TORSDOF 5
ENDMDL
