REMARK  Name = 51138092
REMARK  10 active torsions:
REMARK  status: ('A' for Active; 'I' for Inactive)
REMARK    1  A    between atoms: N_4  and  C_21
REMARK    2  A    between atoms: N_5  and  C_26
REMARK    3  A    between atoms: N_6  and  C_29
REMARK    4  A    between atoms: C_8  and  C_13
REMARK    5  A    between atoms: C_11  and  C_19
REMARK    6  A    between atoms: C_13  and  C_16
REMARK    7  A    between atoms: C_16  and  C_23
REMARK    8  A    between atoms: C_16  and  C_24
REMARK    9  A    between atoms: C_21  and  C_25
REMARK   10  A    between atoms: C_26  and  C_28
REMARK                            x       y       z     vdW  Elec       q    Type
REMARK                         _______ _______ _______ _____ _____    ______ ____
ROOT
ATOM      3  N   UNL     1      -1.458  -0.475  -0.607  0.00  0.00    -0.299 NA
ATOM      4  N   UNL     1       3.245   0.899   0.617  0.00  0.00    -0.339 N 
ATOM      8  C   UNL     1      -0.930  -1.562   0.230  0.00  0.00    +0.085 C 
ATOM      9  C   UNL     1       0.557  -1.472   0.584  0.00  0.00    -0.021 A 
ATOM     10  C   UNL     1       1.358  -0.299   0.469  0.00  0.00    +0.008 A 
ATOM     11  C   UNL     1      -1.422   0.841   0.014  0.00  0.00    +0.145 C 
ATOM     12  C   UNL     1       1.100   1.052   0.048  0.00  0.00    -0.020 A 
ATOM     14  C   UNL     1      -0.191   1.634  -0.422  0.00  0.00    +0.065 C 
ATOM     15  C   UNL     1       2.707  -0.346   0.841  0.00  0.00    +0.050 A 
ATOM     17  C   UNL     1       2.287   1.748   0.147  0.00  0.00    +0.091 A 
ATOM     18  C   UNL     1       1.191  -2.609   1.145  0.00  0.00    +0.006 A 
ATOM     20  C   UNL     1       3.325  -1.490   1.348  0.00  0.00    +0.026 A 
ATOM     22  C   UNL     1       2.537  -2.623   1.507  0.00  0.00    +0.002 A 
ATOM     34  H   UNL     1      -1.004  -0.465  -1.519  0.00  0.00    +0.123 HD
ENDROOT
BRANCH  11  19
ATOM      1  O   UNL     1      -2.848   1.750  -1.671  0.00  0.00    -0.274 OA
ATOM      5  N   UNL     1      -3.490   1.917   0.561  0.00  0.00    -0.307 N 
ATOM     19  C   UNL     1      -2.654   1.540  -0.476  0.00  0.00    +0.231 C 
ATOM     35  H   UNL     1      -3.246   1.679   1.518  0.00  0.00    +0.149 HD
BRANCH   5  26
ATOM     26  C   UNL     1      -4.733   2.626   0.357  0.00  0.00    +0.178 C 
BRANCH  26  28
ATOM      2  O   UNL     1      -6.137   0.869   1.279  0.00  0.00    -0.466 OA
ATOM     28  C   UNL     1      -5.899   1.689   0.222  0.00  0.00    +0.122 A 
ATOM     31  C   UNL     1      -6.818   1.469  -0.778  0.00  0.00    +0.046 A 
ATOM     32  C   UNL     1      -7.676   0.448  -0.305  0.00  0.00    +0.041 A 
ATOM     33  C   UNL     1      -7.220   0.117   0.950  0.00  0.00    +0.195 A 
ENDBRANCH  26  28
ENDBRANCH   5  26
ENDBRANCH  11  19
BRANCH   8  13
ATOM     13  C   UNL     1      -1.276  -2.849  -0.541  0.00  0.00    +0.026 C 
BRANCH  13  16
ATOM     16  C   UNL     1      -2.751  -3.243  -0.415  0.00  0.00    -0.015 C 
ATOM     23  C   UNL     1      -3.696  -2.167  -0.951  0.00  0.00    +0.007 C 
ATOM     24  C   UNL     1      -2.987  -4.558  -1.163  0.00  0.00    +0.007 C 
ENDBRANCH  13  16
ENDBRANCH   8  13
BRANCH   4  21
ATOM     21  C   UNL     1       4.620   1.279   0.860  0.00  0.00    +0.196 C 
BRANCH  21  25
ATOM      6  N   UNL     1       6.924   0.865  -0.070  0.00  0.00    -0.336 N 
ATOM      7  N   UNL     1       5.223   0.345  -1.399  0.00  0.00    -0.239 NA
ATOM     25  C   UNL     1       5.566   0.822  -0.223  0.00  0.00    +0.129 A 
ATOM     27  C   UNL     1       7.482   0.385  -1.221  0.00  0.00    +0.106 A 
ATOM     29  C   UNL     1       7.652   1.328   1.088  0.00  0.00    +0.150 C 
ATOM     30  C   UNL     1       6.412   0.071  -2.026  0.00  0.00    +0.130 A 
ENDBRANCH  21  25
ENDBRANCH   4  21
TORSDOF 7
