MODEL 1
REMARK VINA RESULT:      -7.0      0.000      0.000
REMARK  Name = 45783468
REMARK  9 active torsions:
REMARK  status: ('A' for Active; 'I' for Inactive)
REMARK    1  A    between atoms: O_3  and  C_29
REMARK    2  A    between atoms: O_3  and  C_30
REMARK    3  A    between atoms: N_4  and  C_10
REMARK    4  A    between atoms: N_9  and  C_27
REMARK    5  A    between atoms: N_9  and  C_28
REMARK    6  A    between atoms: C_11  and  C_19
REMARK    7  A    between atoms: C_20  and  C_21
REMARK    8  A    between atoms: C_22  and  C_23
REMARK    9  A    between atoms: C_28  and  C_29
REMARK                            x       y       z     vdW  Elec       q    Type
REMARK                         _______ _______ _______ _____ _____    ______ ____
ROOT
ATOM      1  O   UNL     1      14.477   6.963  19.089  0.00  0.00    -0.336 OA
ATOM      6  N   UNL     1      15.609   7.701  20.876  0.00  0.00    -0.190 NA
ATOM      7  N   UNL     1      15.749   6.385  19.010  0.00  0.00    -0.056 NA
ATOM     19  C   UNL     1      14.479   7.723  20.216  0.00  0.00    +0.245 A 
ATOM     22  C   UNL     1      16.358   6.867  20.097  0.00  0.00    +0.204 A 
ENDROOT
BRANCH  22  23
ATOM      8  N   UNL     1      19.662   6.958  21.801  0.00  0.00    -0.240 NA
ATOM     23  C   UNL     1      17.712   6.537  20.434  0.00  0.00    +0.041 A 
ATOM     24  C   UNL     1      18.391   5.525  19.765  0.00  0.00    +0.016 A 
ATOM     25  C   UNL     1      18.386   7.218  21.435  0.00  0.00    +0.124 A 
ATOM     26  C   UNL     1      19.704   5.228  20.114  0.00  0.00    +0.044 A 
ATOM     27  C   UNL     1      20.289   5.966  21.129  0.00  0.00    +0.119 A 
BRANCH  27   9
ATOM      9  N   UNL     1      21.627   5.651  21.474  0.00  0.00    -0.327 N 
ATOM     31  H   UNL     1      22.335   5.873  20.784  0.00  0.00    +0.148 HD
BRANCH   9  28
ATOM     28  C   UNL     1      21.980   5.048  22.718  0.00  0.00    +0.131 C 
BRANCH  28  29
ATOM     29  C   UNL     1      22.479   3.633  22.486  0.00  0.00    +0.178 C 
BRANCH  29   3
ATOM      3  O   UNL     1      22.860   3.482  21.124  0.00  0.00    -0.381 OA
ATOM     30  C   UNL     1      23.490   2.229  20.895  0.00  0.00    +0.194 C 
ENDBRANCH  29   3
ENDBRANCH  28  29
ENDBRANCH   9  28
ENDBRANCH  27   9
ENDBRANCH  22  23
BRANCH  19  11
ATOM      4  N   UNL     1      12.180   8.319  19.473  0.00  0.00    -0.288 NA
ATOM     11  C   UNL     1      13.196   8.464  20.533  0.00  0.00    +0.146 C 
ATOM     12  C   UNL     1      10.878   8.418  20.131  0.00  0.00    +0.085 C 
ATOM     13  C   UNL     1      12.508   7.943  21.809  0.00  0.00    +0.030 C 
ATOM     16  C   UNL     1      11.092   7.586  21.378  0.00  0.00    +0.017 C 
BRANCH   4  10
ATOM      2  O   UNL     1      15.211  10.127  14.437  0.00  0.00    -0.276 OA
ATOM      5  N   UNL     1      13.935  10.541  16.334  0.00  0.00    -0.302 N 
ATOM     10  C   UNL     1      12.328   9.296  18.396  0.00  0.00    +0.060 C 
ATOM     14  C   UNL     1      12.635   8.580  17.075  0.00  0.00    +0.038 C 
ATOM     15  C   UNL     1      13.444  10.291  18.739  0.00  0.00    +0.038 C 
ATOM     17  C   UNL     1      12.888   9.588  15.955  0.00  0.00    +0.109 C 
ATOM     18  C   UNL     1      13.682  11.266  17.585  0.00  0.00    +0.109 C 
ATOM     20  C   UNL     1      15.039  10.724  15.503  0.00  0.00    +0.212 C 
ATOM     21  C   UNL     1      16.075  11.719  15.965  0.00  0.00    +0.109 C 
ENDBRANCH   4  10
ENDBRANCH  19  11
TORSDOF 7
ENDMDL
MODEL 2
REMARK VINA RESULT:      -7.0     28.666     32.945
REMARK  Name = 45783468
REMARK  9 active torsions:
REMARK  status: ('A' for Active; 'I' for Inactive)
REMARK    1  A    between atoms: O_3  and  C_29
REMARK    2  A    between atoms: O_3  and  C_30
REMARK    3  A    between atoms: N_4  and  C_10
REMARK    4  A    between atoms: N_9  and  C_27
REMARK    5  A    between atoms: N_9  and  C_28
REMARK    6  A    between atoms: C_11  and  C_19
REMARK    7  A    between atoms: C_20  and  C_21
REMARK    8  A    between atoms: C_22  and  C_23
REMARK    9  A    between atoms: C_28  and  C_29
REMARK                            x       y       z     vdW  Elec       q    Type
REMARK                         _______ _______ _______ _____ _____    ______ ____
ROOT
ATOM      1  O   UNL     1     -17.272   2.207  22.526  0.00  0.00    -0.336 OA
ATOM      6  N   UNL     1     -17.366   3.799  24.100  0.00  0.00    -0.190 NA
ATOM      7  N   UNL     1     -16.923   1.585  23.731  0.00  0.00    -0.056 NA
ATOM     19  C   UNL     1     -17.516   3.509  22.832  0.00  0.00    +0.245 A 
ATOM     22  C   UNL     1     -17.001   2.587  24.611  0.00  0.00    +0.204 A 
ENDROOT
BRANCH  22  23
ATOM      8  N   UNL     1     -16.478   0.921  27.894  0.00  0.00    -0.240 NA
ATOM     23  C   UNL     1     -16.721   2.413  26.006  0.00  0.00    +0.041 A 
ATOM     24  C   UNL     1     -16.430   3.502  26.821  0.00  0.00    +0.016 A 
ATOM     25  C   UNL     1     -16.733   1.155  26.587  0.00  0.00    +0.124 A 
ATOM     26  C   UNL     1     -16.162   3.301  28.171  0.00  0.00    +0.044 A 
ATOM     27  C   UNL     1     -16.199   2.004  28.654  0.00  0.00    +0.119 A 
BRANCH  27   9
ATOM      9  N   UNL     1     -15.923   1.816  30.031  0.00  0.00    -0.327 N 
ATOM     31  H   UNL     1     -16.645   2.109  30.680  0.00  0.00    +0.148 HD
BRANCH   9  28
ATOM     28  C   UNL     1     -14.700   1.253  30.501  0.00  0.00    +0.131 C 
BRANCH  28  29
ATOM     29  C   UNL     1     -14.938  -0.161  31.003  0.00  0.00    +0.178 C 
BRANCH  29   3
ATOM      3  O   UNL     1     -14.727  -1.083  29.941  0.00  0.00    -0.381 OA
ATOM     30  C   UNL     1     -13.445  -0.912  29.351  0.00  0.00    +0.194 C 
ENDBRANCH  29   3
ENDBRANCH  28  29
ENDBRANCH   9  28
ENDBRANCH  27   9
ENDBRANCH  22  23
BRANCH  19  11
ATOM      4  N   UNL     1     -16.804   4.682  20.757  0.00  0.00    -0.288 NA
ATOM     11  C   UNL     1     -17.920   4.408  21.682  0.00  0.00    +0.146 C 
ATOM     12  C   UNL     1     -17.401   4.901  19.440  0.00  0.00    +0.085 C 
ATOM     13  C   UNL     1     -19.017   3.786  20.798  0.00  0.00    +0.030 C 
ATOM     16  C   UNL     1     -18.449   3.809  19.386  0.00  0.00    +0.017 C 
BRANCH   4  10
ATOM      2  O   UNL     1     -12.776   9.065  19.212  0.00  0.00    -0.276 OA
ATOM      5  N   UNL     1     -13.727   7.581  20.726  0.00  0.00    -0.302 N 
ATOM     10  C   UNL     1     -15.971   5.809  21.177  0.00  0.00    +0.060 C 
ATOM     14  C   UNL     1     -16.027   6.924  20.125  0.00  0.00    +0.038 C 
ATOM     15  C   UNL     1     -14.525   5.343  21.389  0.00  0.00    +0.038 C 
ATOM     17  C   UNL     1     -15.089   8.071  20.498  0.00  0.00    +0.109 C 
ATOM     18  C   UNL     1     -13.616   6.522  21.737  0.00  0.00    +0.109 C 
ATOM     20  C   UNL     1     -12.660   8.150  20.032  0.00  0.00    +0.212 C 
ATOM     21  C   UNL     1     -11.290   7.588  20.320  0.00  0.00    +0.109 C 
ENDBRANCH   4  10
ENDBRANCH  19  11
TORSDOF 7
ENDMDL
MODEL 3
REMARK VINA RESULT:      -6.8      2.782     11.287
REMARK  Name = 45783468
REMARK  9 active torsions:
REMARK  status: ('A' for Active; 'I' for Inactive)
REMARK    1  A    between atoms: O_3  and  C_29
REMARK    2  A    between atoms: O_3  and  C_30
REMARK    3  A    between atoms: N_4  and  C_10
REMARK    4  A    between atoms: N_9  and  C_27
REMARK    5  A    between atoms: N_9  and  C_28
REMARK    6  A    between atoms: C_11  and  C_19
REMARK    7  A    between atoms: C_20  and  C_21
REMARK    8  A    between atoms: C_22  and  C_23
REMARK    9  A    between atoms: C_28  and  C_29
REMARK                            x       y       z     vdW  Elec       q    Type
REMARK                         _______ _______ _______ _____ _____    ______ ____
ROOT
ATOM      1  O   UNL     1      21.280   6.247  23.121  0.00  0.00    -0.336 OA
ATOM      6  N   UNL     1      20.940   6.032  20.916  0.00  0.00    -0.190 NA
ATOM      7  N   UNL     1      19.922   6.517  22.907  0.00  0.00    -0.056 NA
ATOM     19  C   UNL     1      21.805   5.972  21.897  0.00  0.00    +0.245 A 
ATOM     22  C   UNL     1      19.799   6.370  21.585  0.00  0.00    +0.204 A 
ENDROOT
BRANCH  22  23
ATOM      8  N   UNL     1      17.100   5.961  19.060  0.00  0.00    -0.240 NA
ATOM     23  C   UNL     1      18.553   6.554  20.900  0.00  0.00    +0.041 A 
ATOM     24  C   UNL     1      17.607   7.461  21.363  0.00  0.00    +0.016 A 
ATOM     25  C   UNL     1      18.255   5.836  19.753  0.00  0.00    +0.124 A 
ATOM     26  C   UNL     1      16.407   7.618  20.678  0.00  0.00    +0.044 A 
ATOM     27  C   UNL     1      16.204   6.852  19.542  0.00  0.00    +0.119 A 
BRANCH  27   9
ATOM      9  N   UNL     1      14.977   7.022  18.855  0.00  0.00    -0.327 N 
ATOM     31  H   UNL     1      14.957   6.723  17.886  0.00  0.00    +0.148 HD
BRANCH   9  28
ATOM     28  C   UNL     1      13.821   7.588  19.471  0.00  0.00    +0.131 C 
BRANCH  28  29
ATOM     29  C   UNL     1      12.564   6.959  18.894  0.00  0.00    +0.178 C 
BRANCH  29   3
ATOM      3  O   UNL     1      11.562   7.956  18.744  0.00  0.00    -0.381 OA
ATOM     30  C   UNL     1      11.168   8.492  20.001  0.00  0.00    +0.194 C 
ENDBRANCH  29   3
ENDBRANCH  28  29
ENDBRANCH   9  28
ENDBRANCH  27   9
ENDBRANCH  22  23
BRANCH  19  11
ATOM      4  N   UNL     1      23.605   4.607  20.856  0.00  0.00    -0.288 NA
ATOM     11  C   UNL     1      23.283   5.642  21.857  0.00  0.00    +0.146 C 
ATOM     12  C   UNL     1      24.974   4.872  20.412  0.00  0.00    +0.085 C 
ATOM     13  C   UNL     1      24.151   6.851  21.463  0.00  0.00    +0.030 C 
ATOM     16  C   UNL     1      24.971   6.380  20.270  0.00  0.00    +0.017 C 
BRANCH   4  10
ATOM      2  O   UNL     1      25.655   0.132  24.543  0.00  0.00    -0.276 OA
ATOM      5  N   UNL     1      24.550   0.896  22.647  0.00  0.00    -0.302 N 
ATOM     10  C   UNL     1      23.446   3.245  21.363  0.00  0.00    +0.060 C 
ATOM     14  C   UNL     1      23.726   3.210  22.871  0.00  0.00    +0.038 C 
ATOM     15  C   UNL     1      24.393   2.293  20.620  0.00  0.00    +0.038 C 
ATOM     17  C   UNL     1      23.660   1.780  23.404  0.00  0.00    +0.109 C 
ATOM     18  C   UNL     1      24.313   0.880  21.199  0.00  0.00    +0.109 C 
ATOM     20  C   UNL     1      25.499   0.127  23.319  0.00  0.00    +0.212 C 
ATOM     21  C   UNL     1      26.380  -0.754  22.469  0.00  0.00    +0.109 C 
ENDBRANCH   4  10
ENDBRANCH  19  11
TORSDOF 7
ENDMDL
MODEL 4
REMARK VINA RESULT:      -6.7      3.017      4.719
REMARK  Name = 45783468
REMARK  9 active torsions:
REMARK  status: ('A' for Active; 'I' for Inactive)
REMARK    1  A    between atoms: O_3  and  C_29
REMARK    2  A    between atoms: O_3  and  C_30
REMARK    3  A    between atoms: N_4  and  C_10
REMARK    4  A    between atoms: N_9  and  C_27
REMARK    5  A    between atoms: N_9  and  C_28
REMARK    6  A    between atoms: C_11  and  C_19
REMARK    7  A    between atoms: C_20  and  C_21
REMARK    8  A    between atoms: C_22  and  C_23
REMARK    9  A    between atoms: C_28  and  C_29
REMARK                            x       y       z     vdW  Elec       q    Type
REMARK                         _______ _______ _______ _____ _____    ______ ____
ROOT
ATOM      1  O   UNL     1      14.521   7.016  19.045  0.00  0.00    -0.336 OA
ATOM      6  N   UNL     1      15.903   8.384  20.157  0.00  0.00    -0.190 NA
ATOM      7  N   UNL     1      15.661   6.260  19.342  0.00  0.00    -0.056 NA
ATOM     19  C   UNL     1      14.746   8.254  19.560  0.00  0.00    +0.245 A 
ATOM     22  C   UNL     1      16.429   7.135  19.998  0.00  0.00    +0.204 A 
ENDROOT
BRANCH  22  23
ATOM      8  N   UNL     1      19.474   7.180  22.133  0.00  0.00    -0.240 NA
ATOM     23  C   UNL     1      17.726   6.794  20.506  0.00  0.00    +0.041 A 
ATOM     24  C   UNL     1      18.490   5.797  19.911  0.00  0.00    +0.016 A 
ATOM     25  C   UNL     1      18.259   7.451  21.604  0.00  0.00    +0.124 A 
ATOM     26  C   UNL     1      19.745   5.489  20.427  0.00  0.00    +0.044 A 
ATOM     27  C   UNL     1      20.187   6.202  21.528  0.00  0.00    +0.119 A 
BRANCH  27   9
ATOM      9  N   UNL     1      21.466   5.877  22.042  0.00  0.00    -0.327 N 
ATOM     31  H   UNL     1      22.063   6.656  22.295  0.00  0.00    +0.148 HD
BRANCH   9  28
ATOM     28  C   UNL     1      21.913   4.531  22.199  0.00  0.00    +0.131 C 
BRANCH  28  29
ATOM     29  C   UNL     1      22.985   4.461  23.274  0.00  0.00    +0.178 C 
BRANCH  29   3
ATOM      3  O   UNL     1      22.436   3.887  24.453  0.00  0.00    -0.381 OA
ATOM     30  C   UNL     1      22.749   4.661  25.603  0.00  0.00    +0.194 C 
ENDBRANCH  29   3
ENDBRANCH  28  29
ENDBRANCH   9  28
ENDBRANCH  27   9
ENDBRANCH  22  23
BRANCH  19  11
ATOM      4  N   UNL     1      13.855  10.495  20.171  0.00  0.00    -0.288 NA
ATOM     11  C   UNL     1      13.644   9.275  19.369  0.00  0.00    +0.146 C 
ATOM     12  C   UNL     1      13.226  11.591  19.433  0.00  0.00    +0.085 C 
ATOM     13  C   UNL     1      13.542   9.775  17.915  0.00  0.00    +0.030 C 
ATOM     16  C   UNL     1      13.646  11.291  18.009  0.00  0.00    +0.017 C 
BRANCH   4  10
ATOM      2  O   UNL     1       9.984  12.562  24.479  0.00  0.00    -0.276 OA
ATOM      5  N   UNL     1      11.956  11.538  23.801  0.00  0.00    -0.302 N 
ATOM     10  C   UNL     1      13.339  10.384  21.535  0.00  0.00    +0.060 C 
ATOM     14  C   UNL     1      11.817  10.568  21.538  0.00  0.00    +0.038 C 
ATOM     15  C   UNL     1      14.008  11.430  22.436  0.00  0.00    +0.038 C 
ATOM     17  C   UNL     1      11.269  10.552  22.964  0.00  0.00    +0.109 C 
ATOM     18  C   UNL     1      13.416  11.396  23.845  0.00  0.00    +0.109 C 
ATOM     20  C   UNL     1      11.215  12.486  24.505  0.00  0.00    +0.212 C 
ATOM     21  C   UNL     1      11.995  13.469  25.341  0.00  0.00    +0.109 C 
ENDBRANCH   4  10
ENDBRANCH  19  11
TORSDOF 7
ENDMDL
MODEL 5
REMARK VINA RESULT:      -6.6     27.296     30.403
REMARK  Name = 45783468
REMARK  9 active torsions:
REMARK  status: ('A' for Active; 'I' for Inactive)
REMARK    1  A    between atoms: O_3  and  C_29
REMARK    2  A    between atoms: O_3  and  C_30
REMARK    3  A    between atoms: N_4  and  C_10
REMARK    4  A    between atoms: N_9  and  C_27
REMARK    5  A    between atoms: N_9  and  C_28
REMARK    6  A    between atoms: C_11  and  C_19
REMARK    7  A    between atoms: C_20  and  C_21
REMARK    8  A    between atoms: C_22  and  C_23
REMARK    9  A    between atoms: C_28  and  C_29
REMARK                            x       y       z     vdW  Elec       q    Type
REMARK                         _______ _______ _______ _____ _____    ______ ____
ROOT
ATOM      1  O   UNL     1      -9.141 -10.734  19.897  0.00  0.00    -0.336 OA
ATOM      6  N   UNL     1      -8.434  -9.988  17.906  0.00  0.00    -0.190 NA
ATOM      7  N   UNL     1      -7.795 -11.106  19.797  0.00  0.00    -0.056 NA
ATOM     19  C   UNL     1      -9.437 -10.081  18.743  0.00  0.00    +0.245 A 
ATOM     22  C   UNL     1      -7.449 -10.632  18.597  0.00  0.00    +0.204 A 
ENDROOT
BRANCH  22  23
ATOM      8  N   UNL     1      -4.561 -10.327  16.274  0.00  0.00    -0.240 NA
ATOM     23  C   UNL     1      -6.129 -10.785  18.057  0.00  0.00    +0.041 A 
ATOM     24  C   UNL     1      -5.154 -11.504  18.739  0.00  0.00    +0.016 A 
ATOM     25  C   UNL     1      -5.785 -10.221  16.839  0.00  0.00    +0.124 A 
ATOM     26  C   UNL     1      -3.883 -11.635  18.190  0.00  0.00    +0.044 A 
ATOM     27  C   UNL     1      -3.639 -11.033  16.967  0.00  0.00    +0.119 A 
BRANCH  27   9
ATOM      9  N   UNL     1      -2.339 -11.174  16.421  0.00  0.00    -0.327 N 
ATOM     31  H   UNL     1      -1.564 -10.971  17.043  0.00  0.00    +0.148 HD
BRANCH   9  28
ATOM     28  C   UNL     1      -2.110 -11.574  15.071  0.00  0.00    +0.131 C 
BRANCH  28  29
ATOM     29  C   UNL     1      -1.785 -10.359  14.218  0.00  0.00    +0.178 C 
BRANCH  29   3
ATOM      3  O   UNL     1      -2.031 -10.662  12.851  0.00  0.00    -0.381 OA
ATOM     30  C   UNL     1      -3.384 -10.408  12.496  0.00  0.00    +0.194 C 
ENDBRANCH  29   3
ENDBRANCH  28  29
ENDBRANCH   9  28
ENDBRANCH  27   9
ENDBRANCH  22  23
BRANCH  19  11
ATOM      4  N   UNL     1     -11.478  -9.962  17.323  0.00  0.00    -0.288 NA
ATOM     11  C   UNL     1     -10.855  -9.568  18.602  0.00  0.00    +0.146 C 
ATOM     12  C   UNL     1     -12.915 -10.060  17.575  0.00  0.00    +0.085 C 
ATOM     13  C   UNL     1     -11.799 -10.126  19.685  0.00  0.00    +0.030 C 
ATOM     16  C   UNL     1     -12.950 -10.760  18.918  0.00  0.00    +0.017 C 
BRANCH   4  10
ATOM      2  O   UNL     1     -13.115  -5.031  14.034  0.00  0.00    -0.276 OA
ATOM      5  N   UNL     1     -12.033  -7.071  14.290  0.00  0.00    -0.302 N 
ATOM     10  C   UNL     1     -11.174  -9.042  16.228  0.00  0.00    +0.060 C 
ATOM     14  C   UNL     1     -11.511  -7.604  16.640  0.00  0.00    +0.038 C 
ATOM     15  C   UNL     1     -11.962  -9.440  14.974  0.00  0.00    +0.038 C 
ATOM     17  C   UNL     1     -11.292  -6.638  15.477  0.00  0.00    +0.109 C 
ATOM     18  C   UNL     1     -11.734  -8.437  13.843  0.00  0.00    +0.109 C 
ATOM     20  C   UNL     1     -12.908  -6.188  13.658  0.00  0.00    +0.212 C 
ATOM     21  C   UNL     1     -13.636  -6.710  12.445  0.00  0.00    +0.109 C 
ENDBRANCH   4  10
ENDBRANCH  19  11
TORSDOF 7
ENDMDL
MODEL 6
REMARK VINA RESULT:      -6.6      3.511      4.790
REMARK  Name = 45783468
REMARK  9 active torsions:
REMARK  status: ('A' for Active; 'I' for Inactive)
REMARK    1  A    between atoms: O_3  and  C_29
REMARK    2  A    between atoms: O_3  and  C_30
REMARK    3  A    between atoms: N_4  and  C_10
REMARK    4  A    between atoms: N_9  and  C_27
REMARK    5  A    between atoms: N_9  and  C_28
REMARK    6  A    between atoms: C_11  and  C_19
REMARK    7  A    between atoms: C_20  and  C_21
REMARK    8  A    between atoms: C_22  and  C_23
REMARK    9  A    between atoms: C_28  and  C_29
REMARK                            x       y       z     vdW  Elec       q    Type
REMARK                         _______ _______ _______ _____ _____    ______ ____
ROOT
ATOM      1  O   UNL     1      14.313   9.003  20.235  0.00  0.00    -0.336 OA
ATOM      6  N   UNL     1      15.153   7.603  21.769  0.00  0.00    -0.190 NA
ATOM      7  N   UNL     1      15.623   8.722  19.830  0.00  0.00    -0.056 NA
ATOM     19  C   UNL     1      14.117   8.304  21.384  0.00  0.00    +0.245 A 
ATOM     22  C   UNL     1      16.053   7.891  20.784  0.00  0.00    +0.204 A 
ENDROOT
BRANCH  22  23
ATOM      8  N   UNL     1      19.657   7.431  21.574  0.00  0.00    -0.240 NA
ATOM     23  C   UNL     1      17.373   7.333  20.785  0.00  0.00    +0.041 A 
ATOM     24  C   UNL     1      17.673   6.201  20.036  0.00  0.00    +0.016 A 
ATOM     25  C   UNL     1      18.392   7.906  21.530  0.00  0.00    +0.124 A 
ATOM     26  C   UNL     1      18.963   5.681  20.057  0.00  0.00    +0.044 A 
ATOM     27  C   UNL     1      19.910   6.327  20.834  0.00  0.00    +0.119 A 
BRANCH  27   9
ATOM      9  N   UNL     1      21.220   5.786  20.846  0.00  0.00    -0.327 N 
ATOM     31  H   UNL     1      21.805   6.005  20.047  0.00  0.00    +0.148 HD
BRANCH   9  28
ATOM     28  C   UNL     1      21.706   4.971  21.910  0.00  0.00    +0.131 C 
BRANCH  28  29
ATOM     29  C   UNL     1      22.073   3.593  21.383  0.00  0.00    +0.178 C 
BRANCH  29   3
ATOM      3  O   UNL     1      22.859   2.910  22.351  0.00  0.00    -0.381 OA
ATOM     30  C   UNL     1      22.917   3.629  23.576  0.00  0.00    +0.194 C 
ENDBRANCH  29   3
ENDBRANCH  28  29
ENDBRANCH   9  28
ENDBRANCH  27   9
ENDBRANCH  22  23
BRANCH  19  11
ATOM      4  N   UNL     1      12.001   9.605  21.531  0.00  0.00    -0.288 NA
ATOM     11  C   UNL     1      12.754   8.440  22.032  0.00  0.00    +0.146 C 
ATOM     12  C   UNL     1      10.583   9.259  21.637  0.00  0.00    +0.085 C 
ATOM     13  C   UNL     1      11.840   7.232  21.752  0.00  0.00    +0.030 C 
ATOM     16  C   UNL     1      10.574   7.825  21.150  0.00  0.00    +0.017 C 
BRANCH   4  10
ATOM      2  O   UNL     1      10.329  13.831  25.673  0.00  0.00    -0.276 OA
ATOM      5  N   UNL     1      11.472  13.152  23.768  0.00  0.00    -0.302 N 
ATOM     10  C   UNL     1      12.318  10.844  22.239  0.00  0.00    +0.060 C 
ATOM     14  C   UNL     1      11.911  10.726  23.713  0.00  0.00    +0.038 C 
ATOM     15  C   UNL     1      11.599  12.027  21.577  0.00  0.00    +0.038 C 
ATOM     17  C   UNL     1      12.145  12.044  24.450  0.00  0.00    +0.109 C 
ATOM     18  C   UNL     1      11.840  13.319  22.356  0.00  0.00    +0.109 C 
ATOM     20  C   UNL     1      10.594  13.971  24.476  0.00  0.00    +0.212 C 
ATOM     21  C   UNL     1       9.939  15.088  23.703  0.00  0.00    +0.109 C 
ENDBRANCH   4  10
ENDBRANCH  19  11
TORSDOF 7
ENDMDL
MODEL 7
REMARK VINA RESULT:      -6.5      2.881     11.499
REMARK  Name = 45783468
REMARK  9 active torsions:
REMARK  status: ('A' for Active; 'I' for Inactive)
REMARK    1  A    between atoms: O_3  and  C_29
REMARK    2  A    between atoms: O_3  and  C_30
REMARK    3  A    between atoms: N_4  and  C_10
REMARK    4  A    between atoms: N_9  and  C_27
REMARK    5  A    between atoms: N_9  and  C_28
REMARK    6  A    between atoms: C_11  and  C_19
REMARK    7  A    between atoms: C_20  and  C_21
REMARK    8  A    between atoms: C_22  and  C_23
REMARK    9  A    between atoms: C_28  and  C_29
REMARK                            x       y       z     vdW  Elec       q    Type
REMARK                         _______ _______ _______ _____ _____    ______ ____
ROOT
ATOM      1  O   UNL     1      21.766   5.858  23.003  0.00  0.00    -0.336 OA
ATOM      6  N   UNL     1      21.332   5.551  20.826  0.00  0.00    -0.190 NA
ATOM      7  N   UNL     1      20.420   6.199  22.822  0.00  0.00    -0.056 NA
ATOM     19  C   UNL     1      22.228   5.488  21.779  0.00  0.00    +0.245 A 
ATOM     22  C   UNL     1      20.239   5.992  21.514  0.00  0.00    +0.204 A 
ENDROOT
BRANCH  22  23
ATOM      8  N   UNL     1      17.496   5.736  19.017  0.00  0.00    -0.240 NA
ATOM     23  C   UNL     1      18.982   6.218  20.863  0.00  0.00    +0.041 A 
ATOM     24  C   UNL     1      18.045   7.095  21.397  0.00  0.00    +0.016 A 
ATOM     25  C   UNL     1      18.662   5.569  19.681  0.00  0.00    +0.124 A 
ATOM     26  C   UNL     1      16.833   7.293  20.743  0.00  0.00    +0.044 A 
ATOM     27  C   UNL     1      16.609   6.596  19.567  0.00  0.00    +0.119 A 
BRANCH  27   9
ATOM      9  N   UNL     1      15.371   6.808  18.913  0.00  0.00    -0.327 N 
ATOM     31  H   UNL     1      15.303   6.476  17.957  0.00  0.00    +0.148 HD
BRANCH   9  28
ATOM     28  C   UNL     1      14.267   7.455  19.544  0.00  0.00    +0.131 C 
BRANCH  28  29
ATOM     29  C   UNL     1      13.021   7.310  18.688  0.00  0.00    +0.178 C 
BRANCH  29   3
ATOM      3  O   UNL     1      12.060   6.523  19.381  0.00  0.00    -0.381 OA
ATOM     30  C   UNL     1      12.140   6.723  20.786  0.00  0.00    +0.194 C 
ENDBRANCH  29   3
ENDBRANCH  28  29
ENDBRANCH   9  28
ENDBRANCH  27   9
ENDBRANCH  22  23
BRANCH  19  11
ATOM      4  N   UNL     1      23.850   3.601  21.758  0.00  0.00    -0.288 NA
ATOM     11  C   UNL     1      23.681   5.067  21.705  0.00  0.00    +0.146 C 
ATOM     12  C   UNL     1      25.067   3.298  21.007  0.00  0.00    +0.085 C 
ATOM     13  C   UNL     1      24.357   5.492  20.389  0.00  0.00    +0.030 C 
ATOM     16  C   UNL     1      24.929   4.208  19.804  0.00  0.00    +0.017 C 
BRANCH   4  10
ATOM      2  O   UNL     1      24.507  -1.263  25.462  0.00  0.00    -0.276 OA
ATOM      5  N   UNL     1      23.693   0.856  24.968  0.00  0.00    -0.302 N 
ATOM     10  C   UNL     1      23.899   3.076  23.121  0.00  0.00    +0.060 C 
ATOM     14  C   UNL     1      25.008   2.022  23.238  0.00  0.00    +0.038 C 
ATOM     15  C   UNL     1      22.542   2.471  23.501  0.00  0.00    +0.038 C 
ATOM     17  C   UNL     1      25.014   1.390  24.629  0.00  0.00    +0.109 C 
ATOM     18  C   UNL     1      22.597   1.830  24.888  0.00  0.00    +0.109 C 
ATOM     20  C   UNL     1      23.564  -0.473  25.368  0.00  0.00    +0.212 C 
ATOM     21  C   UNL     1      22.171  -0.948  25.697  0.00  0.00    +0.109 C 
ENDBRANCH   4  10
ENDBRANCH  19  11
TORSDOF 7
ENDMDL
MODEL 8
REMARK VINA RESULT:      -6.5     26.689     29.865
REMARK  Name = 45783468
REMARK  9 active torsions:
REMARK  status: ('A' for Active; 'I' for Inactive)
REMARK    1  A    between atoms: O_3  and  C_29
REMARK    2  A    between atoms: O_3  and  C_30
REMARK    3  A    between atoms: N_4  and  C_10
REMARK    4  A    between atoms: N_9  and  C_27
REMARK    5  A    between atoms: N_9  and  C_28
REMARK    6  A    between atoms: C_11  and  C_19
REMARK    7  A    between atoms: C_20  and  C_21
REMARK    8  A    between atoms: C_22  and  C_23
REMARK    9  A    between atoms: C_28  and  C_29
REMARK                            x       y       z     vdW  Elec       q    Type
REMARK                         _______ _______ _______ _____ _____    ______ ____
ROOT
ATOM      1  O   UNL     1      -2.581 -10.761  14.591  0.00  0.00    -0.336 OA
ATOM      6  N   UNL     1      -4.783 -10.608  14.208  0.00  0.00    -0.190 NA
ATOM      7  N   UNL     1      -3.194 -10.727  15.850  0.00  0.00    -0.056 NA
ATOM     19  C   UNL     1      -3.588 -10.686  13.681  0.00  0.00    +0.245 A 
ATOM     22  C   UNL     1      -4.491 -10.636  15.541  0.00  0.00    +0.204 A 
ENDROOT
BRANCH  22  23
ATOM      8  N   UNL     1      -6.469 -11.441  18.585  0.00  0.00    -0.240 NA
ATOM     23  C   UNL     1      -5.519 -10.571  16.538  0.00  0.00    +0.041 A 
ATOM     24  C   UNL     1      -6.536  -9.627  16.459  0.00  0.00    +0.016 A 
ATOM     25  C   UNL     1      -5.530 -11.448  17.611  0.00  0.00    +0.124 A 
ATOM     26  C   UNL     1      -7.520  -9.588  17.441  0.00  0.00    +0.044 A 
ATOM     27  C   UNL     1      -7.442 -10.508  18.474  0.00  0.00    +0.119 A 
BRANCH  27   9
ATOM      9  N   UNL     1      -8.450 -10.455  19.468  0.00  0.00    -0.327 N 
ATOM     31  H   UNL     1      -8.555  -9.574  19.959  0.00  0.00    +0.148 HD
BRANCH   9  28
ATOM     28  C   UNL     1      -9.281 -11.571  19.782  0.00  0.00    +0.131 C 
BRANCH  28  29
ATOM     29  C   UNL     1     -10.735 -11.232  19.500  0.00  0.00    +0.178 C 
BRANCH  29   3
ATOM      3  O   UNL     1     -11.053  -9.981  20.096  0.00  0.00    -0.381 OA
ATOM     30  C   UNL     1     -12.413  -9.930  20.507  0.00  0.00    +0.194 C 
ENDBRANCH  29   3
ENDBRANCH  28  29
ENDBRANCH   9  28
ENDBRANCH  27   9
ENDBRANCH  22  23
BRANCH  19  11
ATOM      4  N   UNL     1      -3.792  -9.608  11.448  0.00  0.00    -0.288 NA
ATOM     11  C   UNL     1      -3.181 -10.706  12.222  0.00  0.00    +0.146 C 
ATOM     12  C   UNL     1      -2.859  -9.296  10.365  0.00  0.00    +0.085 C 
ATOM     13  C   UNL     1      -1.664 -10.528  12.025  0.00  0.00    +0.030 C 
ATOM     16  C   UNL     1      -1.524  -9.344  11.078  0.00  0.00    +0.017 C 
BRANCH   4  10
ATOM      2  O   UNL     1      -8.143  -8.681   7.203  0.00  0.00    -0.276 OA
ATOM      5  N   UNL     1      -7.440  -9.252   9.342  0.00  0.00    -0.302 N 
ATOM     10  C   UNL     1      -5.127  -9.929  10.947  0.00  0.00    +0.060 C 
ATOM     14  C   UNL     1      -5.103 -10.037   9.417  0.00  0.00    +0.038 C 
ATOM     15  C   UNL     1      -6.128  -8.856  11.393  0.00  0.00    +0.038 C 
ATOM     17  C   UNL     1      -6.507 -10.277   8.866  0.00  0.00    +0.109 C 
ATOM     18  C   UNL     1      -7.513  -9.120  10.802  0.00  0.00    +0.109 C 
ATOM     20  C   UNL     1      -8.197  -8.525   8.426  0.00  0.00    +0.212 C 
ATOM     21  C   UNL     1      -9.131  -7.486   8.994  0.00  0.00    +0.109 C 
ENDBRANCH   4  10
ENDBRANCH  19  11
TORSDOF 7
ENDMDL
MODEL 9
REMARK VINA RESULT:      -6.5      2.719      3.701
REMARK  Name = 45783468
REMARK  9 active torsions:
REMARK  status: ('A' for Active; 'I' for Inactive)
REMARK    1  A    between atoms: O_3  and  C_29
REMARK    2  A    between atoms: O_3  and  C_30
REMARK    3  A    between atoms: N_4  and  C_10
REMARK    4  A    between atoms: N_9  and  C_27
REMARK    5  A    between atoms: N_9  and  C_28
REMARK    6  A    between atoms: C_11  and  C_19
REMARK    7  A    between atoms: C_20  and  C_21
REMARK    8  A    between atoms: C_22  and  C_23
REMARK    9  A    between atoms: C_28  and  C_29
REMARK                            x       y       z     vdW  Elec       q    Type
REMARK                         _______ _______ _______ _____ _____    ______ ____
ROOT
ATOM      1  O   UNL     1      14.398   7.745  21.384  0.00  0.00    -0.336 OA
ATOM      6  N   UNL     1      15.593   7.488  19.506  0.00  0.00    -0.190 NA
ATOM      7  N   UNL     1      15.608   7.155  21.770  0.00  0.00    -0.056 NA
ATOM     19  C   UNL     1      14.471   7.906  20.036  0.00  0.00    +0.245 A 
ATOM     22  C   UNL     1      16.258   7.035  20.609  0.00  0.00    +0.204 A 
ENDROOT
BRANCH  22  23
ATOM      8  N   UNL     1      19.092   4.953  19.400  0.00  0.00    -0.240 NA
ATOM     23  C   UNL     1      17.572   6.468  20.514  0.00  0.00    +0.041 A 
ATOM     24  C   UNL     1      18.580   6.844  21.394  0.00  0.00    +0.016 A 
ATOM     25  C   UNL     1      17.876   5.527  19.544  0.00  0.00    +0.124 A 
ATOM     26  C   UNL     1      19.844   6.276  21.278  0.00  0.00    +0.044 A 
ATOM     27  C   UNL     1      20.047   5.344  20.274  0.00  0.00    +0.119 A 
BRANCH  27   9
ATOM      9  N   UNL     1      21.340   4.775  20.167  0.00  0.00    -0.327 N 
ATOM     31  H   UNL     1      21.584   4.373  19.269  0.00  0.00    +0.148 HD
BRANCH   9  28
ATOM     28  C   UNL     1      22.264   4.754  21.254  0.00  0.00    +0.131 C 
BRANCH  28  29
ATOM     29  C   UNL     1      22.318   3.362  21.863  0.00  0.00    +0.178 C 
BRANCH  29   3
ATOM      3  O   UNL     1      22.692   2.423  20.863  0.00  0.00    -0.381 OA
ATOM     30  C   UNL     1      24.106   2.317  20.753  0.00  0.00    +0.194 C 
ENDBRANCH  29   3
ENDBRANCH  28  29
ENDBRANCH   9  28
ENDBRANCH  27   9
ENDBRANCH  22  23
BRANCH  19  11
ATOM      4  N   UNL     1      13.589   9.818  18.711  0.00  0.00    -0.288 NA
ATOM     11  C   UNL     1      13.268   8.535  19.365  0.00  0.00    +0.146 C 
ATOM     12  C   UNL     1      12.663   9.952  17.586  0.00  0.00    +0.085 C 
ATOM     13  C   UNL     1      12.687   7.657  18.241  0.00  0.00    +0.030 C 
ATOM     16  C   UNL     1      12.665   8.551  17.010  0.00  0.00    +0.017 C 
BRANCH   4  10
ATOM      2  O   UNL     1      10.106  13.900  21.715  0.00  0.00    -0.276 OA
ATOM      5  N   UNL     1      12.083  13.235  20.692  0.00  0.00    -0.302 N 
ATOM     10  C   UNL     1      13.519  10.962  19.619  0.00  0.00    +0.060 C 
ATOM     14  C   UNL     1      12.351  10.785  20.597  0.00  0.00    +0.038 C 
ATOM     15  C   UNL     1      13.357  12.260  18.818  0.00  0.00    +0.038 C 
ATOM     17  C   UNL     1      12.200  12.014  21.493  0.00  0.00    +0.109 C 
ATOM     18  C   UNL     1      13.186  13.460  19.750  0.00  0.00    +0.109 C 
ATOM     20  C   UNL     1      11.003  14.094  20.890  0.00  0.00    +0.212 C 
ATOM     21  C   UNL     1      10.952  15.328  20.024  0.00  0.00    +0.109 C 
ENDBRANCH   4  10
ENDBRANCH  19  11
TORSDOF 7
ENDMDL
MODEL 10
REMARK VINA RESULT:      -6.5      1.612      2.104
REMARK  Name = 45783468
REMARK  9 active torsions:
REMARK  status: ('A' for Active; 'I' for Inactive)
REMARK    1  A    between atoms: O_3  and  C_29
REMARK    2  A    between atoms: O_3  and  C_30
REMARK    3  A    between atoms: N_4  and  C_10
REMARK    4  A    between atoms: N_9  and  C_27
REMARK    5  A    between atoms: N_9  and  C_28
REMARK    6  A    between atoms: C_11  and  C_19
REMARK    7  A    between atoms: C_20  and  C_21
REMARK    8  A    between atoms: C_22  and  C_23
REMARK    9  A    between atoms: C_28  and  C_29
REMARK                            x       y       z     vdW  Elec       q    Type
REMARK                         _______ _______ _______ _____ _____    ______ ____
ROOT
ATOM      1  O   UNL     1      15.351   6.564  18.690  0.00  0.00    -0.336 OA
ATOM      6  N   UNL     1      16.475   7.671  20.281  0.00  0.00    -0.190 NA
ATOM      7  N   UNL     1      16.516   5.825  18.930  0.00  0.00    -0.056 NA
ATOM     19  C   UNL     1      15.406   7.634  19.526  0.00  0.00    +0.245 A 
ATOM     22  C   UNL     1      17.126   6.541  19.879  0.00  0.00    +0.204 A 
ENDROOT
BRANCH  22  23
ATOM      8  N   UNL     1      20.036   6.434  22.192  0.00  0.00    -0.240 NA
ATOM     23  C   UNL     1      18.386   6.157  20.446  0.00  0.00    +0.041 A 
ATOM     24  C   UNL     1      19.174   5.180  19.847  0.00  0.00    +0.016 A 
ATOM     25  C   UNL     1      18.858   6.749  21.606  0.00  0.00    +0.124 A 
ATOM     26  C   UNL     1      20.391   4.828  20.421  0.00  0.00    +0.044 A 
ATOM     27  C   UNL     1      20.773   5.479  21.582  0.00  0.00    +0.119 A 
BRANCH  27   9
ATOM      9  N   UNL     1      22.015   5.109  22.155  0.00  0.00    -0.327 N 
ATOM     31  H   UNL     1      22.716   5.839  22.223  0.00  0.00    +0.148 HD
BRANCH   9  28
ATOM     28  C   UNL     1      22.289   3.786  22.612  0.00  0.00    +0.131 C 
BRANCH  28  29
ATOM     29  C   UNL     1      23.302   3.825  23.743  0.00  0.00    +0.178 C 
BRANCH  29   3
ATOM      3  O   UNL     1      24.393   2.968  23.432  0.00  0.00    -0.381 OA
ATOM     30  C   UNL     1      23.965   1.823  22.707  0.00  0.00    +0.194 C 
ENDBRANCH  29   3
ENDBRANCH  28  29
ENDBRANCH   9  28
ENDBRANCH  27   9
ENDBRANCH  22  23
BRANCH  19  11
ATOM      4  N   UNL     1      13.726   8.776  18.090  0.00  0.00    -0.288 NA
ATOM     11  C   UNL     1      14.243   8.603  19.461  0.00  0.00    +0.146 C 
ATOM     12  C   UNL     1      12.304   9.094  18.221  0.00  0.00    +0.085 C 
ATOM     13  C   UNL     1      13.028   8.129  20.281  0.00  0.00    +0.030 C 
ATOM     16  C   UNL     1      11.865   8.125  19.300  0.00  0.00    +0.017 C 
BRANCH   4  10
ATOM      2  O   UNL     1      13.539  14.038  14.913  0.00  0.00    -0.276 OA
ATOM      5  N   UNL     1      14.455  11.961  15.408  0.00  0.00    -0.302 N 
ATOM     10  C   UNL     1      14.448   9.792  17.326  0.00  0.00    +0.060 C 
ATOM     14  C   UNL     1      13.931  11.189  17.691  0.00  0.00    +0.038 C 
ATOM     15  C   UNL     1      14.282   9.535  15.822  0.00  0.00    +0.038 C 
ATOM     17  C   UNL     1      14.605  12.260  16.835  0.00  0.00    +0.109 C 
ATOM     18  C   UNL     1      14.949  10.639  15.002  0.00  0.00    +0.109 C 
ATOM     20  C   UNL     1      13.914  12.919  14.552  0.00  0.00    +0.212 C 
ATOM     21  C   UNL     1      13.789  12.534  13.099  0.00  0.00    +0.109 C 
ENDBRANCH   4  10
ENDBRANCH  19  11
TORSDOF 7
ENDMDL
