REMARK  Name = 56774590
REMARK  7 active torsions:
REMARK  status: ('A' for Active; 'I' for Inactive)
REMARK    1  A    between atoms: O_2  and  C_8
REMARK    2  A    between atoms: N_5  and  C_10
REMARK    3  A    between atoms: N_6  and  C_21
REMARK    4  A    between atoms: C_7  and  C_8
REMARK    5  A    between atoms: C_8  and  C_12
REMARK    6  A    between atoms: C_10  and  C_14
REMARK    7  A    between atoms: C_25  and  C_26
REMARK                            x       y       z     vdW  Elec       q    Type
REMARK                         _______ _______ _______ _____ _____    ______ ____
ROOT
ATOM      1  O   UNL     1      -0.401  -2.407  -1.317  0.00  0.00    -0.369 OA
ATOM      3  O   UNL     1      -3.598  -2.674   0.342  0.00  0.00    -0.273 OA
ATOM      5  N   UNL     1      -2.127  -0.872   0.272  0.00  0.00    -0.287 N 
ATOM      7  C   UNL     1      -0.791  -0.389  -0.097  0.00  0.00    +0.135 C 
ATOM      9  C   UNL     1      -0.370  -0.990  -1.433  0.00  0.00    +0.185 C 
ATOM     11  C   UNL     1      -2.566  -2.147  -0.078  0.00  0.00    +0.242 C 
ATOM     13  C   UNL     1      -1.719  -2.869  -1.120  0.00  0.00    +0.255 C 
ENDROOT
BRANCH   7   8
ATOM      8  C   UNL     1       0.224  -0.721   1.001  0.00  0.00    +0.167 C 
BRANCH   8  12
ATOM     12  C   UNL     1       1.600  -0.204   0.667  0.00  0.00    -0.017 A 
ATOM     15  C   UNL     1       2.675  -1.088   0.578  0.00  0.00    +0.008 A 
ATOM     16  C   UNL     1       1.798   1.159   0.446  0.00  0.00    +0.008 A 
ATOM     17  C   UNL     1       3.948  -0.610   0.268  0.00  0.00    +0.023 A 
ATOM     18  C   UNL     1       3.071   1.638   0.136  0.00  0.00    +0.023 A 
ATOM     21  C   UNL     1       4.146   0.753   0.047  0.00  0.00    +0.033 A 
BRANCH  21   6
ATOM      4  O   UNL     1       6.761  -0.707  -0.265  0.00  0.00    -0.276 OA
ATOM      6  N   UNL     1       5.420   1.232  -0.263  0.00  0.00    -0.286 N 
ATOM     25  C   UNL     1       6.609   0.503  -0.394  0.00  0.00    +0.214 C 
ATOM     26  C   UNL     1       7.776   1.395  -0.739  0.00  0.00    +0.109 C 
ATOM     28  H   UNL     1       5.482   2.237  -0.409  0.00  0.00    +0.155 HD
ENDBRANCH  21   6
ENDBRANCH   8  12
BRANCH   8   2
ATOM      2  O   UNL     1      -0.211  -0.152   2.232  0.00  0.00    -0.385 OA
ATOM     27  H   UNL     1      -0.091   0.812   2.199  0.00  0.00    +0.210 HD
ENDBRANCH   8   2
ENDBRANCH   7   8
BRANCH   5  10
ATOM     10  C   UNL     1      -2.916  -0.045   1.175  0.00  0.00    +0.143 C 
BRANCH  10  14
ATOM     14  C   UNL     1      -3.938   0.773   0.440  0.00  0.00    -0.030 A 
ATOM     19  C   UNL     1      -3.612   2.048  -0.021  0.00  0.00    +0.005 A 
ATOM     20  C   UNL     1      -5.215   0.257   0.218  0.00  0.00    +0.005 A 
ATOM     22  C   UNL     1      -4.562   2.808  -0.705  0.00  0.00    +0.000 A 
ATOM     23  C   UNL     1      -6.165   1.016  -0.465  0.00  0.00    +0.000 A 
ATOM     24  C   UNL     1      -5.838   2.292  -0.926  0.00  0.00    +0.000 A 
ENDBRANCH  10  14
ENDBRANCH   5  10
TORSDOF 6
