MODEL 1
REMARK VINA RESULT:      -5.7      0.000      0.000
REMARK  Name = 75536721
REMARK  10 active torsions:
REMARK  status: ('A' for Active; 'I' for Inactive)
REMARK    1  A    between atoms: O_2  and  C_8
REMARK    2  A    between atoms: N_4  and  C_7
REMARK    3  A    between atoms: N_4  and  C_12
REMARK    4  A    between atoms: N_5  and  C_11
REMARK    5  A    between atoms: N_6  and  C_16
REMARK    6  A    between atoms: C_9  and  C_11
REMARK    7  A    between atoms: C_12  and  C_13
REMARK    8  A    between atoms: C_12  and  C_14
REMARK    9  A    between atoms: C_16  and  C_17
REMARK   10  A    between atoms: C_16  and  C_18
REMARK                            x       y       z     vdW  Elec       q    Type
REMARK                         _______ _______ _______ _____ _____    ______ ____
ROOT
ATOM      1  O   UNL     1      11.665   7.038  19.610  0.00  0.00    -0.371 OA
ATOM      7  C   UNL     1      14.007   6.917  19.981  0.00  0.00    +0.111 C 
ATOM      8  C   UNL     1      13.376   7.751  21.079  0.00  0.00    +0.164 C 
ATOM      9  C   UNL     1      11.926   7.290  21.000  0.00  0.00    +0.165 C 
ATOM     10  C   UNL     1      12.922   6.947  18.917  0.00  0.00    +0.181 C 
ENDROOT
BRANCH   8   2
ATOM      2  O   UNL     1      13.942   7.498  22.351  0.00  0.00    -0.388 OA
ATOM     20  H   UNL     1      14.716   6.921  22.232  0.00  0.00    +0.210 HD
ENDBRANCH   8   2
BRANCH   7   4
ATOM      4  N   UNL     1      15.279   7.441  19.507  0.00  0.00    -0.307 NA
ATOM     19  H   UNL     1      15.390   8.411  19.801  0.00  0.00    +0.123 HD
BRANCH   4  12
ATOM     12  C   UNL     1      16.393   6.643  20.003  0.00  0.00    +0.048 C 
ATOM     13  C   UNL     1      17.413   7.533  20.701  0.00  0.00    +0.023 C 
ATOM     14  C   UNL     1      17.034   5.855  18.866  0.00  0.00    +0.023 C 
ENDBRANCH   4  12
ENDBRANCH   7   4
BRANCH   9  11
ATOM     11  C   UNL     1      10.941   8.316  21.531  0.00  0.00    +0.140 C 
BRANCH  11   5
ATOM      3  O   UNL     1      11.051  11.144  22.093  0.00  0.00    -0.253 OA
ATOM      5  N   UNL     1      11.431   8.941  22.725  0.00  0.00    -0.297 N 
ATOM      6  N   UNL     1      11.977  10.660  24.164  0.00  0.00    -0.297 N 
ATOM     15  C   UNL     1      11.450  10.326  22.920  0.00  0.00    +0.300 C 
ATOM     21  H   UNL     1      11.797   8.346  23.462  0.00  0.00    +0.150 HD
ATOM     22  H   UNL     1      12.209   9.909  24.808  0.00  0.00    +0.150 HD
BRANCH   6  16
ATOM     16  C   UNL     1      12.109  12.025  24.617  0.00  0.00    +0.068 C 
ATOM     17  C   UNL     1      13.357  12.179  25.477  0.00  0.00    +0.027 C 
ATOM     18  C   UNL     1      10.860  12.461  25.372  0.00  0.00    +0.027 C 
ENDBRANCH   6  16
ENDBRANCH  11   5
ENDBRANCH   9  11
TORSDOF 6
ENDMDL
MODEL 2
REMARK VINA RESULT:      -5.7      3.190      5.904
REMARK  Name = 75536721
REMARK  10 active torsions:
REMARK  status: ('A' for Active; 'I' for Inactive)
REMARK    1  A    between atoms: O_2  and  C_8
REMARK    2  A    between atoms: N_4  and  C_7
REMARK    3  A    between atoms: N_4  and  C_12
REMARK    4  A    between atoms: N_5  and  C_11
REMARK    5  A    between atoms: N_6  and  C_16
REMARK    6  A    between atoms: C_9  and  C_11
REMARK    7  A    between atoms: C_12  and  C_13
REMARK    8  A    between atoms: C_12  and  C_14
REMARK    9  A    between atoms: C_16  and  C_17
REMARK   10  A    between atoms: C_16  and  C_18
REMARK                            x       y       z     vdW  Elec       q    Type
REMARK                         _______ _______ _______ _____ _____    ______ ____
ROOT
ATOM      1  O   UNL     1      11.947   8.790  21.085  0.00  0.00    -0.371 OA
ATOM      7  C   UNL     1      12.026   7.311  19.229  0.00  0.00    +0.111 C 
ATOM      8  C   UNL     1      13.415   7.427  19.827  0.00  0.00    +0.164 C 
ATOM      9  C   UNL     1      13.090   7.931  21.227  0.00  0.00    +0.165 C 
ATOM     10  C   UNL     1      11.347   8.545  19.802  0.00  0.00    +0.181 C 
ENDROOT
BRANCH   8   2
ATOM      2  O   UNL     1      14.103   6.191  19.857  0.00  0.00    -0.388 OA
ATOM     20  H   UNL     1      13.774   5.641  19.126  0.00  0.00    +0.210 HD
ENDBRANCH   8   2
BRANCH   7   4
ATOM      4  N   UNL     1      12.017   7.283  17.775  0.00  0.00    -0.307 NA
ATOM     19  H   UNL     1      11.285   6.657  17.441  0.00  0.00    +0.123 HD
BRANCH   4  12
ATOM     12  C   UNL     1      11.816   8.618  17.225  0.00  0.00    +0.048 C 
ATOM     13  C   UNL     1      10.608   8.632  16.298  0.00  0.00    +0.023 C 
ATOM     14  C   UNL     1      13.072   9.093  16.504  0.00  0.00    +0.023 C 
ENDBRANCH   4  12
ENDBRANCH   7   4
BRANCH   9  11
ATOM     11  C   UNL     1      14.233   8.697  21.870  0.00  0.00    +0.140 C 
BRANCH  11   5
ATOM      3  O   UNL     1      16.816   8.839  20.591  0.00  0.00    -0.253 OA
ATOM      5  N   UNL     1      15.363   7.846  22.107  0.00  0.00    -0.297 N 
ATOM      6  N   UNL     1      17.506   7.027  21.864  0.00  0.00    -0.297 N 
ATOM     15  C   UNL     1      16.585   7.982  21.442  0.00  0.00    +0.300 C 
ATOM     21  H   UNL     1      15.264   7.096  22.786  0.00  0.00    +0.150 HD
ATOM     22  H   UNL     1      17.246   6.409  22.628  0.00  0.00    +0.150 HD
BRANCH   6  16
ATOM     16  C   UNL     1      18.847   6.945  21.335  0.00  0.00    +0.068 C 
ATOM     17  C   UNL     1      18.908   5.933  20.197  0.00  0.00    +0.027 C 
ATOM     18  C   UNL     1      19.837   6.595  22.439  0.00  0.00    +0.027 C 
ENDBRANCH   6  16
ENDBRANCH  11   5
ENDBRANCH   9  11
TORSDOF 6
ENDMDL
MODEL 3
REMARK VINA RESULT:      -5.5      1.864      2.157
REMARK  Name = 75536721
REMARK  10 active torsions:
REMARK  status: ('A' for Active; 'I' for Inactive)
REMARK    1  A    between atoms: O_2  and  C_8
REMARK    2  A    between atoms: N_4  and  C_7
REMARK    3  A    between atoms: N_4  and  C_12
REMARK    4  A    between atoms: N_5  and  C_11
REMARK    5  A    between atoms: N_6  and  C_16
REMARK    6  A    between atoms: C_9  and  C_11
REMARK    7  A    between atoms: C_12  and  C_13
REMARK    8  A    between atoms: C_12  and  C_14
REMARK    9  A    between atoms: C_16  and  C_17
REMARK   10  A    between atoms: C_16  and  C_18
REMARK                            x       y       z     vdW  Elec       q    Type
REMARK                         _______ _______ _______ _____ _____    ______ ____
ROOT
ATOM      1  O   UNL     1      11.055   8.764  20.202  0.00  0.00    -0.371 OA
ATOM      7  C   UNL     1      12.542   6.986  19.684  0.00  0.00    +0.111 C 
ATOM      8  C   UNL     1      12.161   6.900  21.150  0.00  0.00    +0.164 C 
ATOM      9  C   UNL     1      10.874   7.714  21.167  0.00  0.00    +0.165 C 
ATOM     10  C   UNL     1      12.169   8.424  19.360  0.00  0.00    +0.181 C 
ENDROOT
BRANCH   8   2
ATOM      2  O   UNL     1      11.951   5.570  21.583  0.00  0.00    -0.388 OA
ATOM     20  H   UNL     1      12.818   5.160  21.745  0.00  0.00    +0.210 HD
ENDBRANCH   8   2
BRANCH   7   4
ATOM      4  N   UNL     1      13.943   6.692  19.426  0.00  0.00    -0.307 NA
ATOM     19  H   UNL     1      14.189   6.965  18.475  0.00  0.00    +0.123 HD
BRANCH   4  12
ATOM     12  C   UNL     1      14.807   7.377  20.379  0.00  0.00    +0.048 C 
ATOM     13  C   UNL     1      15.520   8.542  19.704  0.00  0.00    +0.023 C 
ATOM     14  C   UNL     1      15.804   6.402  20.994  0.00  0.00    +0.023 C 
ENDBRANCH   4  12
ENDBRANCH   7   4
BRANCH   9  11
ATOM     11  C   UNL     1      10.560   8.313  22.526  0.00  0.00    +0.140 C 
BRANCH  11   5
ATOM      3  O   UNL     1      12.076  10.555  23.527  0.00  0.00    -0.253 OA
ATOM      5  N   UNL     1      10.221   9.703  22.418  0.00  0.00    -0.297 N 
ATOM      6  N   UNL     1      10.451  11.983  22.688  0.00  0.00    -0.297 N 
ATOM     15  C   UNL     1      11.014  10.733  22.933  0.00  0.00    +0.300 C 
ATOM     21  H   UNL     1       9.351   9.949  21.954  0.00  0.00    +0.150 HD
ATOM     22  H   UNL     1       9.608  12.031  22.122  0.00  0.00    +0.150 HD
BRANCH   6  16
ATOM     16  C   UNL     1      11.068  13.217  23.115  0.00  0.00    +0.068 C 
ATOM     17  C   UNL     1      10.357  13.766  24.346  0.00  0.00    +0.027 C 
ATOM     18  C   UNL     1      11.072  14.233  21.980  0.00  0.00    +0.027 C 
ENDBRANCH   6  16
ENDBRANCH  11   5
ENDBRANCH   9  11
TORSDOF 6
ENDMDL
MODEL 4
REMARK VINA RESULT:      -5.4      3.214      7.250
REMARK  Name = 75536721
REMARK  10 active torsions:
REMARK  status: ('A' for Active; 'I' for Inactive)
REMARK    1  A    between atoms: O_2  and  C_8
REMARK    2  A    between atoms: N_4  and  C_7
REMARK    3  A    between atoms: N_4  and  C_12
REMARK    4  A    between atoms: N_5  and  C_11
REMARK    5  A    between atoms: N_6  and  C_16
REMARK    6  A    between atoms: C_9  and  C_11
REMARK    7  A    between atoms: C_12  and  C_13
REMARK    8  A    between atoms: C_12  and  C_14
REMARK    9  A    between atoms: C_16  and  C_17
REMARK   10  A    between atoms: C_16  and  C_18
REMARK                            x       y       z     vdW  Elec       q    Type
REMARK                         _______ _______ _______ _____ _____    ______ ____
ROOT
ATOM      1  O   UNL     1      14.759   7.616  18.163  0.00  0.00    -0.371 OA
ATOM      7  C   UNL     1      12.916   7.750  19.654  0.00  0.00    +0.111 C 
ATOM      8  C   UNL     1      13.982   6.859  20.265  0.00  0.00    +0.164 C 
ATOM      9  C   UNL     1      15.215   7.305  19.490  0.00  0.00    +0.165 C 
ATOM     10  C   UNL     1      13.328   7.754  18.191  0.00  0.00    +0.181 C 
ENDROOT
BRANCH   8   2
ATOM      2  O   UNL     1      14.132   7.062  21.657  0.00  0.00    -0.388 OA
ATOM     20  H   UNL     1      14.605   6.298  22.028  0.00  0.00    +0.210 HD
ENDBRANCH   8   2
BRANCH   7   4
ATOM      4  N   UNL     1      11.561   7.263  19.860  0.00  0.00    -0.307 NA
ATOM     19  H   UNL     1      11.582   6.334  20.279  0.00  0.00    +0.123 HD
BRANCH   4  12
ATOM     12  C   UNL     1      10.800   8.173  20.707  0.00  0.00    +0.048 C 
ATOM     13  C   UNL     1      11.477   9.536  20.765  0.00  0.00    +0.023 C 
ATOM     14  C   UNL     1      10.624   7.584  22.102  0.00  0.00    +0.023 C 
ENDBRANCH   4  12
ENDBRANCH   7   4
BRANCH   9  11
ATOM     11  C   UNL     1      16.300   6.244  19.425  0.00  0.00    +0.140 C 
BRANCH  11   5
ATOM      3  O   UNL     1      18.830   4.864  19.562  0.00  0.00    -0.253 OA
ATOM      5  N   UNL     1      17.460   6.638  20.171  0.00  0.00    -0.297 N 
ATOM      6  N   UNL     1      19.614   6.515  20.990  0.00  0.00    -0.297 N 
ATOM     15  C   UNL     1      18.653   5.909  20.185  0.00  0.00    +0.300 C 
ATOM     21  H   UNL     1      17.405   7.484  20.731  0.00  0.00    +0.150 HD
ATOM     22  H   UNL     1      19.397   7.419  21.403  0.00  0.00    +0.150 HD
BRANCH   6  16
ATOM     16  C   UNL     1      20.936   5.968  21.178  0.00  0.00    +0.068 C 
ATOM     17  C   UNL     1      21.281   5.912  22.660  0.00  0.00    +0.027 C 
ATOM     18  C   UNL     1      21.966   6.779  20.402  0.00  0.00    +0.027 C 
ENDBRANCH   6  16
ENDBRANCH  11   5
ENDBRANCH   9  11
TORSDOF 6
ENDMDL
MODEL 5
REMARK VINA RESULT:      -5.4      2.547      6.593
REMARK  Name = 75536721
REMARK  10 active torsions:
REMARK  status: ('A' for Active; 'I' for Inactive)
REMARK    1  A    between atoms: O_2  and  C_8
REMARK    2  A    between atoms: N_4  and  C_7
REMARK    3  A    between atoms: N_4  and  C_12
REMARK    4  A    between atoms: N_5  and  C_11
REMARK    5  A    between atoms: N_6  and  C_16
REMARK    6  A    between atoms: C_9  and  C_11
REMARK    7  A    between atoms: C_12  and  C_13
REMARK    8  A    between atoms: C_12  and  C_14
REMARK    9  A    between atoms: C_16  and  C_17
REMARK   10  A    between atoms: C_16  and  C_18
REMARK                            x       y       z     vdW  Elec       q    Type
REMARK                         _______ _______ _______ _____ _____    ______ ____
ROOT
ATOM      1  O   UNL     1      13.277   8.045  21.571  0.00  0.00    -0.371 OA
ATOM      7  C   UNL     1      11.322   8.960  22.560  0.00  0.00    +0.111 C 
ATOM      8  C   UNL     1      10.914   7.951  21.503  0.00  0.00    +0.164 C 
ATOM      9  C   UNL     1      12.188   7.126  21.379  0.00  0.00    +0.165 C 
ATOM     10  C   UNL     1      12.760   9.249  22.163  0.00  0.00    +0.181 C 
ENDROOT
BRANCH   8   2
ATOM      2  O   UNL     1       9.809   7.161  21.899  0.00  0.00    -0.388 OA
ATOM     20  H   UNL     1      10.146   6.378  22.367  0.00  0.00    +0.210 HD
ENDBRANCH   8   2
BRANCH   7   4
ATOM      4  N   UNL     1      10.490  10.152  22.582  0.00  0.00    -0.307 NA
ATOM     19  H   UNL     1       9.698  10.017  23.210  0.00  0.00    +0.123 HD
BRANCH   4  12
ATOM     12  C   UNL     1      11.257  11.321  22.995  0.00  0.00    +0.048 C 
ATOM     13  C   UNL     1      10.951  11.670  24.445  0.00  0.00    +0.023 C 
ATOM     14  C   UNL     1      10.973  12.500  22.072  0.00  0.00    +0.023 C 
ENDBRANCH   4  12
ENDBRANCH   7   4
BRANCH   9  11
ATOM     11  C   UNL     1      12.328   6.437  20.033  0.00  0.00    +0.140 C 
BRANCH  11   5
ATOM      3  O   UNL     1      11.641   7.519  17.448  0.00  0.00    -0.253 OA
ATOM      5  N   UNL     1      13.182   7.181  19.153  0.00  0.00    -0.297 N 
ATOM      6  N   UNL     1      13.796   8.357  17.264  0.00  0.00    -0.297 N 
ATOM     15  C   UNL     1      12.770   7.673  17.910  0.00  0.00    +0.300 C 
ATOM     21  H   UNL     1      14.141   7.347  19.443  0.00  0.00    +0.150 HD
ATOM     22  H   UNL     1      14.672   8.496  17.762  0.00  0.00    +0.150 HD
BRANCH   6  16
ATOM     16  C   UNL     1      13.635   8.964  15.964  0.00  0.00    +0.068 C 
ATOM     17  C   UNL     1      14.873   8.722  15.110  0.00  0.00    +0.027 C 
ATOM     18  C   UNL     1      13.342  10.453  16.102  0.00  0.00    +0.027 C 
ENDBRANCH   6  16
ENDBRANCH  11   5
ENDBRANCH   9  11
TORSDOF 6
ENDMDL
MODEL 6
REMARK VINA RESULT:      -5.1     26.395     28.207
REMARK  Name = 75536721
REMARK  10 active torsions:
REMARK  status: ('A' for Active; 'I' for Inactive)
REMARK    1  A    between atoms: O_2  and  C_8
REMARK    2  A    between atoms: N_4  and  C_7
REMARK    3  A    between atoms: N_4  and  C_12
REMARK    4  A    between atoms: N_5  and  C_11
REMARK    5  A    between atoms: N_6  and  C_16
REMARK    6  A    between atoms: C_9  and  C_11
REMARK    7  A    between atoms: C_12  and  C_13
REMARK    8  A    between atoms: C_12  and  C_14
REMARK    9  A    between atoms: C_16  and  C_17
REMARK   10  A    between atoms: C_16  and  C_18
REMARK                            x       y       z     vdW  Elec       q    Type
REMARK                         _______ _______ _______ _____ _____    ______ ____
ROOT
ATOM      1  O   UNL     1      -5.991 -10.344  17.438  0.00  0.00    -0.371 OA
ATOM      7  C   UNL     1      -3.995 -11.523  16.926  0.00  0.00    +0.111 C 
ATOM      8  C   UNL     1      -4.482 -11.948  18.298  0.00  0.00    +0.164 C 
ATOM      9  C   UNL     1      -5.948 -11.544  18.227  0.00  0.00    +0.165 C 
ATOM     10  C   UNL     1      -4.746 -10.216  16.731  0.00  0.00    +0.181 C 
ENDROOT
BRANCH   8   2
ATOM      2  O   UNL     1      -4.328 -13.336  18.527  0.00  0.00    -0.388 OA
ATOM     20  H   UNL     1      -4.184 -13.475  19.479  0.00  0.00    +0.210 HD
ENDBRANCH   8   2
BRANCH   7   4
ATOM      4  N   UNL     1      -2.552 -11.366  16.841  0.00  0.00    -0.307 NA
ATOM     19  H   UNL     1      -2.090 -12.253  17.039  0.00  0.00    +0.123 HD
BRANCH   4  12
ATOM     12  C   UNL     1      -2.153 -10.882  15.525  0.00  0.00    +0.048 C 
ATOM     13  C   UNL     1      -1.904 -12.053  14.584  0.00  0.00    +0.023 C 
ATOM     14  C   UNL     1      -0.921  -9.990  15.634  0.00  0.00    +0.023 C 
ENDBRANCH   4  12
ENDBRANCH   7   4
BRANCH   9  11
ATOM     11  C   UNL     1      -6.566 -11.284  19.590  0.00  0.00    +0.140 C 
BRANCH  11   5
ATOM      3  O   UNL     1      -9.300 -12.142  19.244  0.00  0.00    -0.253 OA
ATOM      5  N   UNL     1      -7.728 -10.449  19.485  0.00  0.00    -0.297 N 
ATOM      6  N   UNL     1      -9.961  -9.919  19.246  0.00  0.00    -0.297 N 
ATOM     15  C   UNL     1      -9.024 -10.946  19.318  0.00  0.00    +0.300 C 
ATOM     21  H   UNL     1      -7.599  -9.442  19.521  0.00  0.00    +0.150 HD
ATOM     22  H   UNL     1      -9.644  -8.965  19.395  0.00  0.00    +0.150 HD
BRANCH   6  16
ATOM     16  C   UNL     1     -11.374 -10.159  19.074  0.00  0.00    +0.068 C 
ATOM     17  C   UNL     1     -11.939  -9.246  17.993  0.00  0.00    +0.027 C 
ATOM     18  C   UNL     1     -12.112  -9.974  20.394  0.00  0.00    +0.027 C 
ENDBRANCH   6  16
ENDBRANCH  11   5
ENDBRANCH   9  11
TORSDOF 6
ENDMDL
MODEL 7
REMARK VINA RESULT:      -5.1     14.956     18.309
REMARK  Name = 75536721
REMARK  10 active torsions:
REMARK  status: ('A' for Active; 'I' for Inactive)
REMARK    1  A    between atoms: O_2  and  C_8
REMARK    2  A    between atoms: N_4  and  C_7
REMARK    3  A    between atoms: N_4  and  C_12
REMARK    4  A    between atoms: N_5  and  C_11
REMARK    5  A    between atoms: N_6  and  C_16
REMARK    6  A    between atoms: C_9  and  C_11
REMARK    7  A    between atoms: C_12  and  C_13
REMARK    8  A    between atoms: C_12  and  C_14
REMARK    9  A    between atoms: C_16  and  C_17
REMARK   10  A    between atoms: C_16  and  C_18
REMARK                            x       y       z     vdW  Elec       q    Type
REMARK                         _______ _______ _______ _____ _____    ______ ____
ROOT
ATOM      1  O   UNL     1      12.409   8.649   5.040  0.00  0.00    -0.371 OA
ATOM      7  C   UNL     1      11.731   6.989   6.595  0.00  0.00    +0.111 C 
ATOM      8  C   UNL     1      13.173   6.735   6.199  0.00  0.00    +0.164 C 
ATOM      9  C   UNL     1      13.578   8.106   5.674  0.00  0.00    +0.165 C 
ATOM     10  C   UNL     1      11.263   7.894   5.467  0.00  0.00    +0.181 C 
ENDROOT
BRANCH   8   2
ATOM      2  O   UNL     1      13.976   6.329   7.291  0.00  0.00    -0.388 OA
ATOM     20  H   UNL     1      14.055   7.077   7.907  0.00  0.00    +0.210 HD
ENDBRANCH   8   2
BRANCH   7   4
ATOM      4  N   UNL     1      10.936   5.777   6.716  0.00  0.00    -0.307 NA
ATOM     19  H   UNL     1      11.519   4.957   6.550  0.00  0.00    +0.123 HD
BRANCH   4  12
ATOM     12  C   UNL     1      10.315   5.684   8.031  0.00  0.00    +0.048 C 
ATOM     13  C   UNL     1       9.825   4.265   8.287  0.00  0.00    +0.023 C 
ATOM     14  C   UNL     1       9.178   6.692   8.157  0.00  0.00    +0.023 C 
ENDBRANCH   4  12
ENDBRANCH   7   4
BRANCH   9  11
ATOM     11  C   UNL     1      14.725   8.053   4.680  0.00  0.00    +0.140 C 
BRANCH  11   5
ATOM      3  O   UNL     1      13.959   7.190   2.035  0.00  0.00    -0.253 OA
ATOM      5  N   UNL     1      14.871   6.739   4.123  0.00  0.00    -0.297 N 
ATOM      6  N   UNL     1      14.730   5.063   2.543  0.00  0.00    -0.297 N 
ATOM     15  C   UNL     1      14.472   6.401   2.826  0.00  0.00    +0.300 C 
ATOM     21  H   UNL     1      15.274   6.013   4.708  0.00  0.00    +0.150 HD
ATOM     22  H   UNL     1      15.227   4.510   3.236  0.00  0.00    +0.150 HD
BRANCH   6  16
ATOM     16  C   UNL     1      14.414   4.456   1.272  0.00  0.00    +0.068 C 
ATOM     17  C   UNL     1      13.416   3.320   1.460  0.00  0.00    +0.027 C 
ATOM     18  C   UNL     1      15.682   3.969   0.582  0.00  0.00    +0.027 C 
ENDBRANCH   6  16
ENDBRANCH  11   5
ENDBRANCH   9  11
TORSDOF 6
ENDMDL
MODEL 8
REMARK VINA RESULT:      -5.1      2.113      3.548
REMARK  Name = 75536721
REMARK  10 active torsions:
REMARK  status: ('A' for Active; 'I' for Inactive)
REMARK    1  A    between atoms: O_2  and  C_8
REMARK    2  A    between atoms: N_4  and  C_7
REMARK    3  A    between atoms: N_4  and  C_12
REMARK    4  A    between atoms: N_5  and  C_11
REMARK    5  A    between atoms: N_6  and  C_16
REMARK    6  A    between atoms: C_9  and  C_11
REMARK    7  A    between atoms: C_12  and  C_13
REMARK    8  A    between atoms: C_12  and  C_14
REMARK    9  A    between atoms: C_16  and  C_17
REMARK   10  A    between atoms: C_16  and  C_18
REMARK                            x       y       z     vdW  Elec       q    Type
REMARK                         _______ _______ _______ _____ _____    ______ ____
ROOT
ATOM      1  O   UNL     1      16.210   6.314  19.015  0.00  0.00    -0.371 OA
ATOM      7  C   UNL     1      17.140   6.414  21.197  0.00  0.00    +0.111 C 
ATOM      8  C   UNL     1      15.832   7.182  21.182  0.00  0.00    +0.164 C 
ATOM      9  C   UNL     1      15.157   6.586  19.954  0.00  0.00    +0.165 C 
ATOM     10  C   UNL     1      17.466   6.344  19.714  0.00  0.00    +0.181 C 
ENDROOT
BRANCH   8   2
ATOM      2  O   UNL     1      15.067   6.981  22.355  0.00  0.00    -0.388 OA
ATOM     20  H   UNL     1      15.673   6.955  23.115  0.00  0.00    +0.210 HD
ENDBRANCH   8   2
BRANCH   7   4
ATOM      4  N   UNL     1      18.186   7.056  21.977  0.00  0.00    -0.307 NA
ATOM     19  H   UNL     1      18.804   6.353  22.381  0.00  0.00    +0.123 HD
BRANCH   4  12
ATOM     12  C   UNL     1      18.957   7.983  21.159  0.00  0.00    +0.048 C 
ATOM     13  C   UNL     1      20.444   7.666  21.257  0.00  0.00    +0.023 C 
ATOM     14  C   UNL     1      18.672   9.423  21.568  0.00  0.00    +0.023 C 
ENDBRANCH   4  12
ENDBRANCH   7   4
BRANCH   9  11
ATOM     11  C   UNL     1      14.133   7.514  19.323  0.00  0.00    +0.140 C 
BRANCH  11   5
ATOM      3  O   UNL     1      11.515   8.540  19.971  0.00  0.00    -0.253 OA
ATOM      5  N   UNL     1      13.826   8.617  20.188  0.00  0.00    -0.297 N 
ATOM      6  N   UNL     1      12.514  10.140  21.321  0.00  0.00    -0.297 N 
ATOM     15  C   UNL     1      12.524   9.054  20.450  0.00  0.00    +0.300 C 
ATOM     21  H   UNL     1      14.598   9.116  20.620  0.00  0.00    +0.150 HD
ATOM     22  H   UNL     1      13.397  10.444  21.723  0.00  0.00    +0.150 HD
BRANCH   6  16
ATOM     16  C   UNL     1      11.297  10.783  21.755  0.00  0.00    +0.068 C 
ATOM     17  C   UNL     1      11.408  12.294  21.590  0.00  0.00    +0.027 C 
ATOM     18  C   UNL     1      10.979  10.408  23.197  0.00  0.00    +0.027 C 
ENDBRANCH   6  16
ENDBRANCH  11   5
ENDBRANCH   9  11
TORSDOF 6
ENDMDL
MODEL 9
REMARK VINA RESULT:      -5.0      3.666      7.595
REMARK  Name = 75536721
REMARK  10 active torsions:
REMARK  status: ('A' for Active; 'I' for Inactive)
REMARK    1  A    between atoms: O_2  and  C_8
REMARK    2  A    between atoms: N_4  and  C_7
REMARK    3  A    between atoms: N_4  and  C_12
REMARK    4  A    between atoms: N_5  and  C_11
REMARK    5  A    between atoms: N_6  and  C_16
REMARK    6  A    between atoms: C_9  and  C_11
REMARK    7  A    between atoms: C_12  and  C_13
REMARK    8  A    between atoms: C_12  and  C_14
REMARK    9  A    between atoms: C_16  and  C_17
REMARK   10  A    between atoms: C_16  and  C_18
REMARK                            x       y       z     vdW  Elec       q    Type
REMARK                         _______ _______ _______ _____ _____    ______ ____
ROOT
ATOM      1  O   UNL     1      16.338   7.520  19.722  0.00  0.00    -0.371 OA
ATOM      7  C   UNL     1      14.193   7.240  20.701  0.00  0.00    +0.111 C 
ATOM      8  C   UNL     1      15.154   7.755  21.756  0.00  0.00    +0.164 C 
ATOM      9  C   UNL     1      16.248   8.359  20.885  0.00  0.00    +0.165 C 
ATOM     10  C   UNL     1      15.154   6.707  19.651  0.00  0.00    +0.181 C 
ENDROOT
BRANCH   8   2
ATOM      2  O   UNL     1      14.565   8.719  22.608  0.00  0.00    -0.388 OA
ATOM     20  H   UNL     1      15.272   9.149  23.118  0.00  0.00    +0.210 HD
ENDBRANCH   8   2
BRANCH   7   4
ATOM      4  N   UNL     1      13.273   6.227  21.193  0.00  0.00    -0.307 NA
ATOM     19  H   UNL     1      13.646   5.796  22.039  0.00  0.00    +0.123 HD
BRANCH   4  12
ATOM     12  C   UNL     1      11.960   6.798  21.466  0.00  0.00    +0.048 C 
ATOM     13  C   UNL     1      10.921   5.693  21.607  0.00  0.00    +0.023 C 
ATOM     14  C   UNL     1      11.570   7.788  20.375  0.00  0.00    +0.023 C 
ENDBRANCH   4  12
ENDBRANCH   7   4
BRANCH   9  11
ATOM     11  C   UNL     1      17.598   8.424  21.578  0.00  0.00    +0.140 C 
BRANCH  11   5
ATOM      3  O   UNL     1      19.621   6.789  22.828  0.00  0.00    -0.253 OA
ATOM      5  N   UNL     1      18.561   7.587  20.921  0.00  0.00    -0.297 N 
ATOM      6  N   UNL     1      20.320   6.107  20.724  0.00  0.00    -0.297 N 
ATOM     15  C   UNL     1      19.513   6.823  21.603  0.00  0.00    +0.300 C 
ATOM     21  H   UNL     1      18.560   7.561  19.906  0.00  0.00    +0.150 HD
ATOM     22  H   UNL     1      20.103   6.142  19.732  0.00  0.00    +0.150 HD
BRANCH   6  16
ATOM     16  C   UNL     1      21.384   5.238  21.169  0.00  0.00    +0.068 C 
ATOM     17  C   UNL     1      22.696   5.618  20.495  0.00  0.00    +0.027 C 
ATOM     18  C   UNL     1      21.029   3.780  20.905  0.00  0.00    +0.027 C 
ENDBRANCH   6  16
ENDBRANCH  11   5
ENDBRANCH   9  11
TORSDOF 6
ENDMDL
MODEL 10
REMARK VINA RESULT:      -5.0     26.184     28.575
REMARK  Name = 75536721
REMARK  10 active torsions:
REMARK  status: ('A' for Active; 'I' for Inactive)
REMARK    1  A    between atoms: O_2  and  C_8
REMARK    2  A    between atoms: N_4  and  C_7
REMARK    3  A    between atoms: N_4  and  C_12
REMARK    4  A    between atoms: N_5  and  C_11
REMARK    5  A    between atoms: N_6  and  C_16
REMARK    6  A    between atoms: C_9  and  C_11
REMARK    7  A    between atoms: C_12  and  C_13
REMARK    8  A    between atoms: C_12  and  C_14
REMARK    9  A    between atoms: C_16  and  C_17
REMARK   10  A    between atoms: C_16  and  C_18
REMARK                            x       y       z     vdW  Elec       q    Type
REMARK                         _______ _______ _______ _____ _____    ______ ____
ROOT
ATOM      1  O   UNL     1      -7.389 -12.621  19.260  0.00  0.00    -0.371 OA
ATOM      7  C   UNL     1      -8.731 -10.824  18.479  0.00  0.00    +0.111 C 
ATOM      8  C   UNL     1      -7.274 -10.402  18.449  0.00  0.00    +0.164 C 
ATOM      9  C   UNL     1      -6.577 -11.756  18.449  0.00  0.00    +0.165 C 
ATOM     10  C   UNL     1      -8.681 -12.013  19.425  0.00  0.00    +0.181 C 
ENDROOT
BRANCH   8   2
ATOM      2  O   UNL     1      -6.949  -9.641  17.301  0.00  0.00    -0.388 OA
ATOM     20  H   UNL     1      -6.362 -10.173  16.737  0.00  0.00    +0.210 HD
ENDBRANCH   8   2
BRANCH   7   4
ATOM      4  N   UNL     1      -9.633  -9.777  18.930  0.00  0.00    -0.307 NA
ATOM     19  H   UNL     1      -9.102  -9.005  19.332  0.00  0.00    +0.123 HD
BRANCH   4  12
ATOM     12  C   UNL     1     -10.464  -9.291  17.836  0.00  0.00    +0.048 C 
ATOM     13  C   UNL     1     -10.500 -10.311  16.705  0.00  0.00    +0.023 C 
ATOM     14  C   UNL     1      -9.962  -7.939  17.344  0.00  0.00    +0.023 C 
ENDBRANCH   4  12
ENDBRANCH   7   4
BRANCH   9  11
ATOM     11  C   UNL     1      -5.166 -11.704  19.008  0.00  0.00    +0.140 C 
BRANCH  11   5
ATOM      3  O   UNL     1      -4.149 -10.018  16.898  0.00  0.00    -0.253 OA
ATOM      5  N   UNL     1      -4.196 -12.056  18.010  0.00  0.00    -0.297 N 
ATOM      6  N   UNL     1      -2.815 -11.776  16.183  0.00  0.00    -0.297 N 
ATOM     15  C   UNL     1      -3.755 -11.177  17.017  0.00  0.00    +0.300 C 
ATOM     21  H   UNL     1      -3.822 -13.001  18.019  0.00  0.00    +0.150 HD
ATOM     22  H   UNL     1      -2.497 -12.714  16.410  0.00  0.00    +0.150 HD
BRANCH   6  16
ATOM     16  C   UNL     1      -2.199 -11.085  15.075  0.00  0.00    +0.068 C 
ATOM     17  C   UNL     1      -1.751 -12.081  14.013  0.00  0.00    +0.027 C 
ATOM     18  C   UNL     1      -1.033 -10.232  15.559  0.00  0.00    +0.027 C 
ENDBRANCH   6  16
ENDBRANCH  11   5
ENDBRANCH   9  11
TORSDOF 6
ENDMDL
