REMARK  Name = 75537118
REMARK  4 active torsions:
REMARK  status: ('A' for Active; 'I' for Inactive)
REMARK    1  A    between atoms: N_3  and  C_12
REMARK    2  A    between atoms: N_4  and  C_13
REMARK    3  A    between atoms: C_12  and  C_14
REMARK    4  A    between atoms: C_16  and  C_19
REMARK                            x       y       z     vdW  Elec       q    Type
REMARK                         _______ _______ _______ _____ _____    ______ ____
ROOT
ATOM      1  O   UNL     1       4.928   0.764   0.042  0.00  0.00    -0.252 OA
ATOM      2  N   UNL     1       2.598   0.605  -0.209  0.00  0.00    -0.278 N 
ATOM      3  N   UNL     1      -0.132   1.105   0.249  0.00  0.00    -0.293 NA
ATOM      4  N   UNL     1       3.800  -1.293  -0.205  0.00  0.00    -0.287 N 
ATOM      6  C   UNL     1       1.635  -0.436  -0.501  0.00  0.00    +0.109 C 
ATOM      7  C   UNL     1       0.391  -0.271   0.372  0.00  0.00    +0.109 C 
ATOM      8  C   UNL     1       2.415  -1.728  -0.268  0.00  0.00    +0.132 C 
ATOM      9  C   UNL     1       2.158   1.983  -0.158  0.00  0.00    +0.125 C 
ATOM     10  C   UNL     1       0.879   2.093   0.676  0.00  0.00    +0.104 C 
ATOM     11  C   UNL     1       3.905   0.110  -0.110  0.00  0.00    +0.305 C 
ATOM     13  C   UNL     1       4.895  -2.232  -0.101  0.00  0.00    +0.133 C 
ENDROOT
BRANCH   3  12
ATOM     12  C   UNL     1      -1.357   1.257   1.034  0.00  0.00    +0.140 C 
BRANCH  12  14
ATOM      5  N   UNL     1      -2.970  -0.552   0.825  0.00  0.00    -0.255 NA
ATOM     14  C   UNL     1      -2.544   0.638   0.345  0.00  0.00    +0.056 A 
ATOM     15  C   UNL     1      -3.132   1.299  -0.721  0.00  0.00    +0.024 A 
ATOM     16  C   UNL     1      -4.037  -1.103   0.203  0.00  0.00    +0.039 A 
ATOM     17  C   UNL     1      -4.227   0.701  -1.334  0.00  0.00    +0.004 A 
ATOM     18  C   UNL     1      -4.694  -0.523  -0.869  0.00  0.00    +0.023 A 
ATOM     19  C   UNL     1      -4.511  -2.417   0.729  0.00  0.00    +0.065 C 
ENDBRANCH  12  14
ENDBRANCH   3  12
TORSDOF 2
