MODEL 1
REMARK VINA RESULT:      -8.3      0.000      0.000
REMARK  Name = 11882571
REMARK  13 active torsions:
REMARK  status: ('A' for Active; 'I' for Inactive)
REMARK    1  A    between atoms: S_1  and  N_13
REMARK    2  A    between atoms: S_1  and  C_24
REMARK    3  A    between atoms: O_5  and  C_16
REMARK    4  A    between atoms: O_6  and  C_19
REMARK    5  A    between atoms: O_7  and  C_21
REMARK    6  A    between atoms: O_12  and  C_38
REMARK    7  A    between atoms: N_13  and  C_17
REMARK    8  A    between atoms: N_14  and  C_23
REMARK    9  A    between atoms: C_16  and  C_22
REMARK   10  A    between atoms: C_23  and  C_25
REMARK   11  A    between atoms: C_23  and  C_26
REMARK   12  A    between atoms: C_25  and  C_29
REMARK   13  A    between atoms: C_30  and  C_35
REMARK                            x       y       z     vdW  Elec       q    Type
REMARK                         _______ _______ _______ _____ _____    ______ ____
ROOT
ATOM     16  C   UNL     1      16.009   7.180  21.406  0.00  0.00    +0.145 C 
ATOM     17  C   UNL     1      18.513   6.839  21.192  0.00  0.00    +0.111 C 
ATOM     18  C   UNL     1      17.394   7.798  21.607  0.00  0.00    +0.067 C 
ATOM     19  C   UNL     1      18.332   6.318  19.763  0.00  0.00    +0.162 C 
ATOM     20  C   UNL     1      15.828   6.685  19.973  0.00  0.00    +0.078 C 
ATOM     21  C   UNL     1      16.936   5.720  19.549  0.00  0.00    +0.148 C 
ENDROOT
BRANCH  16  22
ATOM      8  O   UNL     1      15.181   9.215  22.344  0.00  0.00    -0.273 OA
ATOM     14  N   UNL     1      13.680   7.740  21.351  0.00  0.00    -0.301 N 
ATOM     22  C   UNL     1      14.933   8.167  21.752  0.00  0.00    +0.245 C 
ATOM     43  H   UNL     1      13.568   6.835  20.905  0.00  0.00    +0.150 HD
BRANCH  14  23
ATOM     23  C   UNL     1      12.472   8.498  21.587  0.00  0.00    +0.163 C 
BRANCH  23  26
ATOM     11  O   UNL     1      11.402   6.439  20.865  0.00  0.00    -0.274 OA
ATOM     15  N   UNL     1      10.116   8.049  21.883  0.00  0.00    -0.328 N 
ATOM     26  C   UNL     1      11.300   7.551  21.381  0.00  0.00    +0.231 C 
ATOM     44  H   UNL     1       9.259   7.509  21.825  0.00  0.00    +0.145 HD
ATOM     45  H   UNL     1      10.047   8.966  22.311  0.00  0.00    +0.145 HD
ENDBRANCH  23  26
BRANCH  23  25
ATOM     25  C   UNL     1      12.354   9.705  20.649  0.00  0.00    +0.067 C 
BRANCH  25  29
ATOM     29  C   UNL     1      12.712   9.373  19.221  0.00  0.00    -0.045 A 
ATOM     33  C   UNL     1      11.790   8.717  18.405  0.00  0.00    +0.007 A 
ATOM     34  C   UNL     1      13.966   9.720  18.719  0.00  0.00    +0.007 A 
ATOM     36  C   UNL     1      12.121   8.411  17.086  0.00  0.00    +0.045 A 
ATOM     37  C   UNL     1      14.298   9.413  17.398  0.00  0.00    +0.045 A 
ATOM     38  C   UNL     1      13.375   8.758  16.582  0.00  0.00    +0.117 A 
BRANCH  38  12
ATOM     12  O   UNL     1      13.698   8.459  15.295  0.00  0.00    -0.507 OA
ATOM     46  H   UNL     1      12.914   8.094  14.850  0.00  0.00    +0.292 HD
ENDBRANCH  38  12
ENDBRANCH  25  29
ENDBRANCH  23  25
ENDBRANCH  14  23
ENDBRANCH  16  22
BRANCH  16   5
ATOM      5  O   UNL     1      15.814   6.092  22.303  0.00  0.00    -0.379 OA
ATOM     40  H   UNL     1      15.644   5.292  21.778  0.00  0.00    +0.211 HD
ENDBRANCH  16   5
BRANCH  19   6
ATOM      6  O   UNL     1      19.306   5.295  19.539  0.00  0.00    -0.388 OA
ATOM     41  H   UNL     1      19.038   4.788  18.755  0.00  0.00    +0.210 HD
ENDBRANCH  19   6
BRANCH  21   7
ATOM      7  O   UNL     1      16.747   5.426  18.165  0.00  0.00    -0.389 OA
ATOM     42  H   UNL     1      16.666   6.272  17.694  0.00  0.00    +0.210 HD
ENDBRANCH  21   7
BRANCH  17  13
ATOM     13  N   UNL     1      19.812   7.559  21.286  0.00  0.00    -0.184 NA
ATOM     39  H   UNL     1      19.874   8.459  20.793  0.00  0.00    +0.148 HD
BRANCH  13   1
ATOM      1  S   UNL     1      20.852   7.248  22.587  0.00  0.00    +0.059 S 
ATOM      9  O   UNL     1      20.200   6.354  23.526  0.00  0.00    -0.153 OA
ATOM     10  O   UNL     1      21.410   8.506  23.044  0.00  0.00    -0.153 OA
BRANCH   1  24
ATOM     24  C   UNL     1      22.163   6.356  21.805  0.00  0.00    +0.106 A 
ATOM     27  C   UNL     1      22.118   4.963  21.743  0.00  0.00    +0.041 A 
ATOM     28  C   UNL     1      23.240   7.045  21.248  0.00  0.00    +0.028 A 
ATOM     30  C   UNL     1      23.153   4.260  21.125  0.00  0.00    +0.057 A 
ATOM     31  C   UNL     1      24.273   6.342  20.631  0.00  0.00    +0.002 A 
ATOM     32  C   UNL     1      24.230   4.949  20.569  0.00  0.00    +0.012 A 
BRANCH  30  35
ATOM      2  F   UNL     1      24.018   2.232  20.196  0.00  0.00    -0.166 F 
ATOM      3  F   UNL     1      23.346   2.161  22.257  0.00  0.00    -0.166 F 
ATOM      4  F   UNL     1      21.892   2.302  20.647  0.00  0.00    -0.166 F 
ATOM     35  C   UNL     1      23.106   2.770  21.058  0.00  0.00    +0.417 C 
ENDBRANCH  30  35
ENDBRANCH   1  24
ENDBRANCH  13   1
ENDBRANCH  17  13
TORSDOF 13
ENDMDL
MODEL 2
REMARK VINA RESULT:      -8.0      3.365      5.713
REMARK  Name = 11882571
REMARK  13 active torsions:
REMARK  status: ('A' for Active; 'I' for Inactive)
REMARK    1  A    between atoms: S_1  and  N_13
REMARK    2  A    between atoms: S_1  and  C_24
REMARK    3  A    between atoms: O_5  and  C_16
REMARK    4  A    between atoms: O_6  and  C_19
REMARK    5  A    between atoms: O_7  and  C_21
REMARK    6  A    between atoms: O_12  and  C_38
REMARK    7  A    between atoms: N_13  and  C_17
REMARK    8  A    between atoms: N_14  and  C_23
REMARK    9  A    between atoms: C_16  and  C_22
REMARK   10  A    between atoms: C_23  and  C_25
REMARK   11  A    between atoms: C_23  and  C_26
REMARK   12  A    between atoms: C_25  and  C_29
REMARK   13  A    between atoms: C_30  and  C_35
REMARK                            x       y       z     vdW  Elec       q    Type
REMARK                         _______ _______ _______ _____ _____    ______ ____
ROOT
ATOM     16  C   UNL     1      12.372   9.309  22.004  0.00  0.00    +0.145 C 
ATOM     17  C   UNL     1      13.278   7.132  21.069  0.00  0.00    +0.111 C 
ATOM     18  C   UNL     1      13.621   8.466  21.737  0.00  0.00    +0.067 C 
ATOM     19  C   UNL     1      12.443   7.317  19.797  0.00  0.00    +0.162 C 
ATOM     20  C   UNL     1      11.559   9.508  20.727  0.00  0.00    +0.078 C 
ATOM     21  C   UNL     1      11.204   8.182  20.053  0.00  0.00    +0.148 C 
ENDROOT
BRANCH  16  22
ATOM      8  O   UNL     1      12.165  11.674  22.275  0.00  0.00    -0.273 OA
ATOM     14  N   UNL     1      13.802  10.539  23.481  0.00  0.00    -0.301 N 
ATOM     22  C   UNL     1      12.746  10.638  22.592  0.00  0.00    +0.245 C 
ATOM     43  H   UNL     1      14.247   9.642  23.647  0.00  0.00    +0.150 HD
BRANCH  14  23
ATOM     23  C   UNL     1      14.368  11.680  24.167  0.00  0.00    +0.163 C 
BRANCH  23  26
ATOM     11  O   UNL     1      13.391  13.206  25.786  0.00  0.00    -0.274 OA
ATOM     15  N   UNL     1      12.372  11.177  25.434  0.00  0.00    -0.328 N 
ATOM     26  C   UNL     1      13.359  12.116  25.219  0.00  0.00    +0.231 C 
ATOM     44  H   UNL     1      11.627  11.349  26.099  0.00  0.00    +0.145 HD
ATOM     45  H   UNL     1      12.355  10.282  24.955  0.00  0.00    +0.145 HD
ENDBRANCH  23  26
BRANCH  23  25
ATOM     25  C   UNL     1      14.674  12.837  23.209  0.00  0.00    +0.067 C 
BRANCH  25  29
ATOM     29  C   UNL     1      15.859  12.558  22.316  0.00  0.00    -0.045 A 
ATOM     33  C   UNL     1      17.146  12.524  22.854  0.00  0.00    +0.007 A 
ATOM     34  C   UNL     1      15.666  12.334  20.954  0.00  0.00    +0.007 A 
ATOM     36  C   UNL     1      18.240  12.266  22.029  0.00  0.00    +0.045 A 
ATOM     37  C   UNL     1      16.761  12.076  20.127  0.00  0.00    +0.045 A 
ATOM     38  C   UNL     1      18.048  12.043  20.665  0.00  0.00    +0.117 A 
BRANCH  38  12
ATOM     12  O   UNL     1      19.115  11.790  19.860  0.00  0.00    -0.507 OA
ATOM     46  H   UNL     1      19.052  12.349  19.067  0.00  0.00    +0.292 HD
ENDBRANCH  38  12
ENDBRANCH  25  29
ENDBRANCH  23  25
ENDBRANCH  14  23
ENDBRANCH  16  22
BRANCH  16   5
ATOM      5  O   UNL     1      11.553   8.687  22.986  0.00  0.00    -0.379 OA
ATOM     40  H   UNL     1      12.048   8.658  23.822  0.00  0.00    +0.211 HD
ENDBRANCH  16   5
BRANCH  19   6
ATOM      6  O   UNL     1      12.017   6.025  19.358  0.00  0.00    -0.388 OA
ATOM     41  H   UNL     1      11.292   6.146  18.721  0.00  0.00    +0.210 HD
ENDBRANCH  19   6
BRANCH  21   7
ATOM      7  O   UNL     1      10.566   8.485  18.813  0.00  0.00    -0.389 OA
ATOM     42  H   UNL     1      10.453   7.650  18.328  0.00  0.00    +0.210 HD
ENDBRANCH  21   7
BRANCH  17  13
ATOM     13  N   UNL     1      14.548   6.438  20.719  0.00  0.00    -0.184 NA
ATOM     39  H   UNL     1      14.599   5.437  20.943  0.00  0.00    +0.148 HD
BRANCH  13   1
ATOM      1  S   UNL     1      15.544   7.074  19.506  0.00  0.00    +0.059 S 
ATOM      9  O   UNL     1      15.054   8.382  19.110  0.00  0.00    -0.153 OA
ATOM     10  O   UNL     1      15.770   6.047  18.506  0.00  0.00    -0.153 OA
BRANCH   1  24
ATOM     24  C   UNL     1      17.072   7.302  20.365  0.00  0.00    +0.106 A 
ATOM     27  C   UNL     1      18.100   6.370  20.219  0.00  0.00    +0.041 A 
ATOM     28  C   UNL     1      17.250   8.415  21.188  0.00  0.00    +0.028 A 
ATOM     30  C   UNL     1      19.306   6.551  20.897  0.00  0.00    +0.057 A 
ATOM     31  C   UNL     1      18.456   8.595  21.865  0.00  0.00    +0.002 A 
ATOM     32  C   UNL     1      19.484   7.663  21.719  0.00  0.00    +0.012 A 
BRANCH  30  35
ATOM      2  F   UNL     1      21.507   6.051  20.105  0.00  0.00    -0.166 F 
ATOM      3  F   UNL     1      20.871   5.064  21.928  0.00  0.00    -0.166 F 
ATOM      4  F   UNL     1      20.025   4.463  20.017  0.00  0.00    -0.166 F 
ATOM     35  C   UNL     1      20.405   5.555  20.741  0.00  0.00    +0.417 C 
ENDBRANCH  30  35
ENDBRANCH   1  24
ENDBRANCH  13   1
ENDBRANCH  17  13
TORSDOF 13
ENDMDL
MODEL 3
REMARK VINA RESULT:      -7.9      4.228      6.942
REMARK  Name = 11882571
REMARK  13 active torsions:
REMARK  status: ('A' for Active; 'I' for Inactive)
REMARK    1  A    between atoms: S_1  and  N_13
REMARK    2  A    between atoms: S_1  and  C_24
REMARK    3  A    between atoms: O_5  and  C_16
REMARK    4  A    between atoms: O_6  and  C_19
REMARK    5  A    between atoms: O_7  and  C_21
REMARK    6  A    between atoms: O_12  and  C_38
REMARK    7  A    between atoms: N_13  and  C_17
REMARK    8  A    between atoms: N_14  and  C_23
REMARK    9  A    between atoms: C_16  and  C_22
REMARK   10  A    between atoms: C_23  and  C_25
REMARK   11  A    between atoms: C_23  and  C_26
REMARK   12  A    between atoms: C_25  and  C_29
REMARK   13  A    between atoms: C_30  and  C_35
REMARK                            x       y       z     vdW  Elec       q    Type
REMARK                         _______ _______ _______ _____ _____    ______ ____
ROOT
ATOM     16  C   UNL     1      12.191   9.290  22.074  0.00  0.00    +0.145 C 
ATOM     17  C   UNL     1      13.209   7.158  21.150  0.00  0.00    +0.111 C 
ATOM     18  C   UNL     1      13.478   8.496  21.845  0.00  0.00    +0.067 C 
ATOM     19  C   UNL     1      12.415   7.329  19.850  0.00  0.00    +0.162 C 
ATOM     20  C   UNL     1      11.418   9.476  20.770  0.00  0.00    +0.078 C 
ATOM     21  C   UNL     1      11.137   8.146  20.069  0.00  0.00    +0.148 C 
ENDROOT
BRANCH  16  22
ATOM      8  O   UNL     1      13.147  11.480  22.095  0.00  0.00    -0.273 OA
ATOM     14  N   UNL     1      11.982  10.739  23.970  0.00  0.00    -0.301 N 
ATOM     22  C   UNL     1      12.495  10.624  22.690  0.00  0.00    +0.245 C 
ATOM     43  H   UNL     1      11.491   9.959  24.395  0.00  0.00    +0.150 HD
BRANCH  14  23
ATOM     23  C   UNL     1      12.156  11.918  24.789  0.00  0.00    +0.163 C 
BRANCH  23  26
ATOM     11  O   UNL     1      11.626  14.110  23.881  0.00  0.00    -0.274 OA
ATOM     15  N   UNL     1       9.935  12.570  24.095  0.00  0.00    -0.328 N 
ATOM     26  C   UNL     1      11.240  12.994  24.226  0.00  0.00    +0.231 C 
ATOM     44  H   UNL     1       9.223  13.185  23.716  0.00  0.00    +0.145 HD
ATOM     45  H   UNL     1       9.630  11.644  24.379  0.00  0.00    +0.145 HD
ENDBRANCH  23  26
BRANCH  23  25
ATOM     25  C   UNL     1      13.610  12.406  24.799  0.00  0.00    +0.067 C 
BRANCH  25  29
ATOM     29  C   UNL     1      14.219  12.398  26.179  0.00  0.00    -0.045 A 
ATOM     33  C   UNL     1      13.898  13.404  27.090  0.00  0.00    +0.007 A 
ATOM     34  C   UNL     1      15.105  11.384  26.543  0.00  0.00    +0.007 A 
ATOM     36  C   UNL     1      14.461  13.395  28.366  0.00  0.00    +0.045 A 
ATOM     37  C   UNL     1      15.669  11.375  27.820  0.00  0.00    +0.045 A 
ATOM     38  C   UNL     1      15.347  12.381  28.730  0.00  0.00    +0.117 A 
BRANCH  38  12
ATOM     12  O   UNL     1      15.896  12.372  29.976  0.00  0.00    -0.507 OA
ATOM     46  H   UNL     1      16.503  13.128  30.058  0.00  0.00    +0.292 HD
ENDBRANCH  38  12
ENDBRANCH  25  29
ENDBRANCH  23  25
ENDBRANCH  14  23
ENDBRANCH  16  22
BRANCH  16   5
ATOM      5  O   UNL     1      11.358   8.628  23.018  0.00  0.00    -0.379 OA
ATOM     40  H   UNL     1      10.436   8.873  22.835  0.00  0.00    +0.211 HD
ENDBRANCH  16   5
BRANCH  19   6
ATOM      6  O   UNL     1      12.051   6.028  19.381  0.00  0.00    -0.388 OA
ATOM     41  H   UNL     1      11.448   6.136  18.627  0.00  0.00    +0.210 HD
ENDBRANCH  19   6
BRANCH  21   7
ATOM      7  O   UNL     1      10.534   8.441  18.809  0.00  0.00    -0.389 OA
ATOM     42  H   UNL     1      11.164   8.981  18.302  0.00  0.00    +0.210 HD
ENDBRANCH  21   7
BRANCH  17  13
ATOM     13  N   UNL     1      14.514   6.514  20.841  0.00  0.00    -0.184 NA
ATOM     39  H   UNL     1      14.613   5.527  21.109  0.00  0.00    +0.148 HD
BRANCH  13   1
ATOM      1  S   UNL     1      15.489   7.145  19.608  0.00  0.00    +0.059 S 
ATOM      9  O   UNL     1      15.001   8.458  19.226  0.00  0.00    -0.153 OA
ATOM     10  O   UNL     1      15.685   6.119  18.601  0.00  0.00    -0.153 OA
BRANCH   1  24
ATOM     24  C   UNL     1      17.037   7.358  20.434  0.00  0.00    +0.106 A 
ATOM     27  C   UNL     1      18.052   6.416  20.267  0.00  0.00    +0.041 A 
ATOM     28  C   UNL     1      17.244   8.470  21.251  0.00  0.00    +0.028 A 
ATOM     30  C   UNL     1      19.274   6.586  20.919  0.00  0.00    +0.057 A 
ATOM     31  C   UNL     1      18.466   8.639  21.902  0.00  0.00    +0.002 A 
ATOM     32  C   UNL     1      19.481   7.697  21.736  0.00  0.00    +0.012 A 
BRANCH  30  35
ATOM      2  F   UNL     1      21.470   6.075  20.122  0.00  0.00    -0.166 F 
ATOM      3  F   UNL     1      20.814   5.051  21.916  0.00  0.00    -0.166 F 
ATOM      4  F   UNL     1      19.967   4.511  19.988  0.00  0.00    -0.166 F 
ATOM     35  C   UNL     1      20.360   5.579  20.741  0.00  0.00    +0.417 C 
ENDBRANCH  30  35
ENDBRANCH   1  24
ENDBRANCH  13   1
ENDBRANCH  17  13
TORSDOF 13
ENDMDL
MODEL 4
REMARK VINA RESULT:      -7.8      1.937      3.204
REMARK  Name = 11882571
REMARK  13 active torsions:
REMARK  status: ('A' for Active; 'I' for Inactive)
REMARK    1  A    between atoms: S_1  and  N_13
REMARK    2  A    between atoms: S_1  and  C_24
REMARK    3  A    between atoms: O_5  and  C_16
REMARK    4  A    between atoms: O_6  and  C_19
REMARK    5  A    between atoms: O_7  and  C_21
REMARK    6  A    between atoms: O_12  and  C_38
REMARK    7  A    between atoms: N_13  and  C_17
REMARK    8  A    between atoms: N_14  and  C_23
REMARK    9  A    between atoms: C_16  and  C_22
REMARK   10  A    between atoms: C_23  and  C_25
REMARK   11  A    between atoms: C_23  and  C_26
REMARK   12  A    between atoms: C_25  and  C_29
REMARK   13  A    between atoms: C_30  and  C_35
REMARK                            x       y       z     vdW  Elec       q    Type
REMARK                         _______ _______ _______ _____ _____    ______ ____
ROOT
ATOM     16  C   UNL     1      16.171   7.061  21.251  0.00  0.00    +0.145 C 
ATOM     17  C   UNL     1      18.680   6.696  21.180  0.00  0.00    +0.111 C 
ATOM     18  C   UNL     1      17.549   7.672  21.513  0.00  0.00    +0.067 C 
ATOM     19  C   UNL     1      18.571   6.145  19.754  0.00  0.00    +0.162 C 
ATOM     20  C   UNL     1      16.063   6.536  19.822  0.00  0.00    +0.078 C 
ATOM     21  C   UNL     1      17.184   5.553  19.479  0.00  0.00    +0.148 C 
ENDROOT
BRANCH  16  22
ATOM      8  O   UNL     1      15.289   9.073  22.190  0.00  0.00    -0.273 OA
ATOM     14  N   UNL     1      13.881   7.696  20.949  0.00  0.00    -0.301 N 
ATOM     22  C   UNL     1      15.087   8.064  21.518  0.00  0.00    +0.245 C 
ATOM     43  H   UNL     1      13.801   6.818  20.446  0.00  0.00    +0.150 HD
BRANCH  14  23
ATOM     23  C   UNL     1      12.673   8.480  21.079  0.00  0.00    +0.163 C 
BRANCH  23  26
ATOM     11  O   UNL     1      10.616   8.327  19.793  0.00  0.00    -0.274 OA
ATOM     15  N   UNL     1      11.828   6.410  20.162  0.00  0.00    -0.328 N 
ATOM     26  C   UNL     1      11.586   7.761  20.295  0.00  0.00    +0.231 C 
ATOM     44  H   UNL     1      11.188   5.815  19.647  0.00  0.00    +0.145 HD
ATOM     45  H   UNL     1      12.635   5.956  20.578  0.00  0.00    +0.145 HD
ENDBRANCH  23  26
BRANCH  23  25
ATOM     25  C   UNL     1      12.852   9.910  20.555  0.00  0.00    +0.067 C 
BRANCH  25  29
ATOM     29  C   UNL     1      12.149  10.937  21.408  0.00  0.00    -0.045 A 
ATOM     33  C   UNL     1      12.004  12.245  20.947  0.00  0.00    +0.007 A 
ATOM     34  C   UNL     1      11.645  10.577  22.657  0.00  0.00    +0.007 A 
ATOM     36  C   UNL     1      11.354  13.194  21.736  0.00  0.00    +0.045 A 
ATOM     37  C   UNL     1      10.994  11.526  23.447  0.00  0.00    +0.045 A 
ATOM     38  C   UNL     1      10.849  12.834  22.986  0.00  0.00    +0.117 A 
BRANCH  38  12
ATOM     12  O   UNL     1      10.214  13.760  23.755  0.00  0.00    -0.507 OA
ATOM     46  H   UNL     1       9.660  13.300  24.409  0.00  0.00    +0.292 HD
ENDBRANCH  38  12
ENDBRANCH  25  29
ENDBRANCH  23  25
ENDBRANCH  14  23
ENDBRANCH  16  22
BRANCH  16   5
ATOM      5  O   UNL     1      15.920   5.995  22.160  0.00  0.00    -0.379 OA
ATOM     40  H   UNL     1      15.599   5.231  21.651  0.00  0.00    +0.211 HD
ENDBRANCH  16   5
BRANCH  19   6
ATOM      6  O   UNL     1      19.547   5.111  19.605  0.00  0.00    -0.388 OA
ATOM     41  H   UNL     1      19.166   4.413  19.046  0.00  0.00    +0.210 HD
ENDBRANCH  19   6
BRANCH  21   7
ATOM      7  O   UNL     1      17.066   5.230  18.094  0.00  0.00    -0.389 OA
ATOM     42  H   UNL     1      17.951   5.308  17.698  0.00  0.00    +0.210 HD
ENDBRANCH  21   7
BRANCH  17  13
ATOM     13  N   UNL     1      19.979   7.409  21.327  0.00  0.00    -0.184 NA
ATOM     39  H   UNL     1      20.072   8.301  20.826  0.00  0.00    +0.148 HD
BRANCH  13   1
ATOM      1  S   UNL     1      20.951   7.108  22.682  0.00  0.00    +0.059 S 
ATOM      9  O   UNL     1      20.136   6.568  23.754  0.00  0.00    -0.153 OA
ATOM     10  O   UNL     1      21.790   8.268  22.916  0.00  0.00    -0.153 OA
BRANCH   1  24
ATOM     24  C   UNL     1      22.008   5.817  22.097  0.00  0.00    +0.106 A 
ATOM     27  C   UNL     1      22.216   4.679  22.876  0.00  0.00    +0.041 A 
ATOM     28  C   UNL     1      22.632   5.936  20.854  0.00  0.00    +0.028 A 
ATOM     30  C   UNL     1      23.050   3.661  22.414  0.00  0.00    +0.057 A 
ATOM     31  C   UNL     1      23.464   4.917  20.392  0.00  0.00    +0.002 A 
ATOM     32  C   UNL     1      23.673   3.780  21.172  0.00  0.00    +0.012 A 
BRANCH  30  35
ATOM      2  F   UNL     1      22.173   2.058  23.957  0.00  0.00    -0.166 F 
ATOM      3  F   UNL     1      23.633   1.344  22.522  0.00  0.00    -0.166 F 
ATOM      4  F   UNL     1      24.263   2.614  24.170  0.00  0.00    -0.166 F 
ATOM     35  C   UNL     1      23.273   2.444  23.247  0.00  0.00    +0.417 C 
ENDBRANCH  30  35
ENDBRANCH   1  24
ENDBRANCH  13   1
ENDBRANCH  17  13
TORSDOF 13
ENDMDL
MODEL 5
REMARK VINA RESULT:      -7.8      2.998      3.739
REMARK  Name = 11882571
REMARK  13 active torsions:
REMARK  status: ('A' for Active; 'I' for Inactive)
REMARK    1  A    between atoms: S_1  and  N_13
REMARK    2  A    between atoms: S_1  and  C_24
REMARK    3  A    between atoms: O_5  and  C_16
REMARK    4  A    between atoms: O_6  and  C_19
REMARK    5  A    between atoms: O_7  and  C_21
REMARK    6  A    between atoms: O_12  and  C_38
REMARK    7  A    between atoms: N_13  and  C_17
REMARK    8  A    between atoms: N_14  and  C_23
REMARK    9  A    between atoms: C_16  and  C_22
REMARK   10  A    between atoms: C_23  and  C_25
REMARK   11  A    between atoms: C_23  and  C_26
REMARK   12  A    between atoms: C_25  and  C_29
REMARK   13  A    between atoms: C_30  and  C_35
REMARK                            x       y       z     vdW  Elec       q    Type
REMARK                         _______ _______ _______ _____ _____    ______ ____
ROOT
ATOM     16  C   UNL     1      15.985   7.188  21.424  0.00  0.00    +0.145 C 
ATOM     17  C   UNL     1      18.493   6.868  21.213  0.00  0.00    +0.111 C 
ATOM     18  C   UNL     1      17.365   7.817  21.630  0.00  0.00    +0.067 C 
ATOM     19  C   UNL     1      18.319   6.352  19.781  0.00  0.00    +0.162 C 
ATOM     20  C   UNL     1      15.811   6.698  19.988  0.00  0.00    +0.078 C 
ATOM     21  C   UNL     1      16.928   5.744  19.562  0.00  0.00    +0.148 C 
ENDROOT
BRANCH  16  22
ATOM      8  O   UNL     1      15.137   9.204  22.385  0.00  0.00    -0.273 OA
ATOM     14  N   UNL     1      13.655   7.739  21.348  0.00  0.00    -0.301 N 
ATOM     22  C   UNL     1      14.901   8.165  21.772  0.00  0.00    +0.245 C 
ATOM     43  H   UNL     1      13.553   6.841  20.886  0.00  0.00    +0.150 HD
BRANCH  14  23
ATOM     23  C   UNL     1      12.441   8.488  21.581  0.00  0.00    +0.163 C 
BRANCH  23  26
ATOM     11  O   UNL     1      11.383   6.433  20.830  0.00  0.00    -0.274 OA
ATOM     15  N   UNL     1      10.095   8.005  21.903  0.00  0.00    -0.328 N 
ATOM     26  C   UNL     1      11.277   7.532  21.373  0.00  0.00    +0.231 C 
ATOM     44  H   UNL     1       9.243   7.457  21.846  0.00  0.00    +0.145 HD
ATOM     45  H   UNL     1      10.022   8.912  22.352  0.00  0.00    +0.145 HD
ENDBRANCH  23  26
BRANCH  23  25
ATOM     25  C   UNL     1      12.316   9.694  20.643  0.00  0.00    +0.067 C 
BRANCH  25  29
ATOM     29  C   UNL     1      12.689   9.366  19.217  0.00  0.00    -0.045 A 
ATOM     33  C   UNL     1      13.946   9.720  18.727  0.00  0.00    +0.007 A 
ATOM     34  C   UNL     1      11.776   8.711  18.392  0.00  0.00    +0.007 A 
ATOM     36  C   UNL     1      14.290   9.416  17.410  0.00  0.00    +0.045 A 
ATOM     37  C   UNL     1      12.120   8.407  17.074  0.00  0.00    +0.045 A 
ATOM     38  C   UNL     1      13.377   8.761  16.583  0.00  0.00    +0.117 A 
BRANCH  38  12
ATOM     12  O   UNL     1      13.714   8.464  15.299  0.00  0.00    -0.507 OA
ATOM     46  H   UNL     1      13.088   8.905  14.699  0.00  0.00    +0.292 HD
ENDBRANCH  38  12
ENDBRANCH  25  29
ENDBRANCH  23  25
ENDBRANCH  14  23
ENDBRANCH  16  22
BRANCH  16   5
ATOM      5  O   UNL     1      15.798   6.095  22.315  0.00  0.00    -0.379 OA
ATOM     40  H   UNL     1      15.284   6.409  23.078  0.00  0.00    +0.211 HD
ENDBRANCH  16   5
BRANCH  19   6
ATOM      6  O   UNL     1      19.302   5.339  19.554  0.00  0.00    -0.388 OA
ATOM     41  H   UNL     1      20.131   5.775  19.295  0.00  0.00    +0.210 HD
ENDBRANCH  19   6
BRANCH  21   7
ATOM      7  O   UNL     1      16.744   5.455  18.176  0.00  0.00    -0.389 OA
ATOM     42  H   UNL     1      16.057   6.055  17.840  0.00  0.00    +0.210 HD
ENDBRANCH  21   7
BRANCH  17  13
ATOM     13  N   UNL     1      19.786   7.599  21.312  0.00  0.00    -0.184 NA
ATOM     39  H   UNL     1      19.757   8.610  21.129  0.00  0.00    +0.148 HD
BRANCH  13   1
ATOM      1  S   UNL     1      21.041   6.958  22.253  0.00  0.00    +0.059 S 
ATOM      9  O   UNL     1      22.319   7.359  21.695  0.00  0.00    -0.153 OA
ATOM     10  O   UNL     1      20.761   5.557  22.504  0.00  0.00    -0.153 OA
BRANCH   1  24
ATOM     24  C   UNL     1      20.824   7.810  23.787  0.00  0.00    +0.106 A 
ATOM     27  C   UNL     1      20.795   7.094  24.984  0.00  0.00    +0.041 A 
ATOM     28  C   UNL     1      20.684   9.198  23.799  0.00  0.00    +0.028 A 
ATOM     30  C   UNL     1      20.624   7.767  26.194  0.00  0.00    +0.057 A 
ATOM     31  C   UNL     1      20.515   9.870  25.009  0.00  0.00    +0.002 A 
ATOM     32  C   UNL     1      20.485   9.155  26.206  0.00  0.00    +0.012 A 
BRANCH  30  35
ATOM      2  F   UNL     1      21.799   6.953  28.112  0.00  0.00    -0.166 F 
ATOM      3  F   UNL     1      19.724   7.514  28.395  0.00  0.00    -0.166 F 
ATOM      4  F   UNL     1      20.218   5.702  27.299  0.00  0.00    -0.166 F 
ATOM     35  C   UNL     1      20.593   7.003  27.474  0.00  0.00    +0.417 C 
ENDBRANCH  30  35
ENDBRANCH   1  24
ENDBRANCH  13   1
ENDBRANCH  17  13
TORSDOF 13
ENDMDL
MODEL 6
REMARK VINA RESULT:      -7.5     28.585     30.774
REMARK  Name = 11882571
REMARK  13 active torsions:
REMARK  status: ('A' for Active; 'I' for Inactive)
REMARK    1  A    between atoms: S_1  and  N_13
REMARK    2  A    between atoms: S_1  and  C_24
REMARK    3  A    between atoms: O_5  and  C_16
REMARK    4  A    between atoms: O_6  and  C_19
REMARK    5  A    between atoms: O_7  and  C_21
REMARK    6  A    between atoms: O_12  and  C_38
REMARK    7  A    between atoms: N_13  and  C_17
REMARK    8  A    between atoms: N_14  and  C_23
REMARK    9  A    between atoms: C_16  and  C_22
REMARK   10  A    between atoms: C_23  and  C_25
REMARK   11  A    between atoms: C_23  and  C_26
REMARK   12  A    between atoms: C_25  and  C_29
REMARK   13  A    between atoms: C_30  and  C_35
REMARK                            x       y       z     vdW  Elec       q    Type
REMARK                         _______ _______ _______ _____ _____    ______ ____
ROOT
ATOM     16  C   UNL     1      -6.866 -10.944  18.894  0.00  0.00    +0.145 C 
ATOM     17  C   UNL     1      -5.077 -10.282  17.223  0.00  0.00    +0.111 C 
ATOM     18  C   UNL     1      -6.579 -10.408  17.490  0.00  0.00    +0.067 C 
ATOM     19  C   UNL     1      -4.328 -11.592  17.487  0.00  0.00    +0.162 C 
ATOM     20  C   UNL     1      -6.136 -12.262  19.141  0.00  0.00    +0.078 C 
ATOM     21  C   UNL     1      -4.632 -12.147  18.884  0.00  0.00    +0.148 C 
ENDROOT
BRANCH  16  22
ATOM      8  O   UNL     1      -8.898 -10.778  20.141  0.00  0.00    -0.273 OA
ATOM     14  N   UNL     1      -8.953 -11.727  18.016  0.00  0.00    -0.301 N 
ATOM     22  C   UNL     1      -8.342 -11.124  19.101  0.00  0.00    +0.245 C 
ATOM     43  H   UNL     1      -8.401 -12.018  17.216  0.00  0.00    +0.150 HD
BRANCH  14  23
ATOM     23  C   UNL     1     -10.366 -12.033  17.974  0.00  0.00    +0.163 C 
BRANCH  23  26
ATOM     11  O   UNL     1     -11.528 -14.116  18.442  0.00  0.00    -0.274 OA
ATOM     15  N   UNL     1      -9.361 -14.212  17.686  0.00  0.00    -0.328 N 
ATOM     26  C   UNL     1     -10.500 -13.545  18.083  0.00  0.00    +0.231 C 
ATOM     44  H   UNL     1      -9.322 -15.226  17.694  0.00  0.00    +0.145 HD
ATOM     45  H   UNL     1      -8.520 -13.728  17.387  0.00  0.00    +0.145 HD
ENDBRANCH  23  26
BRANCH  23  25
ATOM     25  C   UNL     1     -11.029 -11.529  16.687  0.00  0.00    +0.067 C 
BRANCH  25  29
ATOM     29  C   UNL     1     -10.722 -10.079  16.401  0.00  0.00    -0.045 A 
ATOM     33  C   UNL     1     -11.133  -9.090  17.294  0.00  0.00    +0.007 A 
ATOM     34  C   UNL     1     -10.029  -9.730  15.243  0.00  0.00    +0.007 A 
ATOM     36  C   UNL     1     -10.849  -7.751  17.030  0.00  0.00    +0.045 A 
ATOM     37  C   UNL     1      -9.745  -8.390  14.977  0.00  0.00    +0.045 A 
ATOM     38  C   UNL     1     -10.156  -7.400  15.871  0.00  0.00    +0.117 A 
BRANCH  38  12
ATOM     12  O   UNL     1      -9.878  -6.093  15.613  0.00  0.00    -0.507 OA
ATOM     46  H   UNL     1     -10.693  -5.572  15.715  0.00  0.00    +0.292 HD
ENDBRANCH  38  12
ENDBRANCH  25  29
ENDBRANCH  23  25
ENDBRANCH  14  23
ENDBRANCH  16  22
BRANCH  16   5
ATOM      5  O   UNL     1      -6.468  -9.999  19.880  0.00  0.00    -0.379 OA
ATOM     40  H   UNL     1      -5.505 -10.064  19.993  0.00  0.00    +0.211 HD
ENDBRANCH  16   5
BRANCH  19   6
ATOM      6  O   UNL     1      -2.926 -11.325  17.397  0.00  0.00    -0.388 OA
ATOM     41  H   UNL     1      -2.448 -12.130  17.656  0.00  0.00    +0.210 HD
ENDBRANCH  19   6
BRANCH  21   7
ATOM      7  O   UNL     1      -4.071 -13.454  19.013  0.00  0.00    -0.389 OA
ATOM     42  H   UNL     1      -3.923 -13.617  19.960  0.00  0.00    +0.210 HD
ENDBRANCH  21   7
BRANCH  17  13
ATOM     13  N   UNL     1      -4.881  -9.889  15.800  0.00  0.00    -0.184 NA
ATOM     39  H   UNL     1      -4.496  -8.951  15.633  0.00  0.00    +0.148 HD
BRANCH  13   1
ATOM      1  S   UNL     1      -4.703 -11.088  14.617  0.00  0.00    +0.059 S 
ATOM      9  O   UNL     1      -5.660 -12.152  14.856  0.00  0.00    -0.153 OA
ATOM     10  O   UNL     1      -3.292 -11.394  14.477  0.00  0.00    -0.153 OA
BRANCH   1  24
ATOM     24  C   UNL     1      -5.193 -10.233  13.149  0.00  0.00    +0.106 A 
ATOM     27  C   UNL     1      -4.311 -10.131  12.074  0.00  0.00    +0.041 A 
ATOM     28  C   UNL     1      -6.464  -9.662  13.067  0.00  0.00    +0.028 A 
ATOM     30  C   UNL     1      -4.700  -9.457  10.916  0.00  0.00    +0.057 A 
ATOM     31  C   UNL     1      -6.851  -8.988  11.909  0.00  0.00    +0.002 A 
ATOM     32  C   UNL     1      -5.969  -8.886  10.833  0.00  0.00    +0.012 A 
BRANCH  30  35
ATOM      2  F   UNL     1      -4.072  -8.347   8.892  0.00  0.00    -0.166 F 
ATOM      3  F   UNL     1      -2.466  -9.103  10.137  0.00  0.00    -0.166 F 
ATOM      4  F   UNL     1      -3.712 -10.487   9.014  0.00  0.00    -0.166 F 
ATOM     35  C   UNL     1      -3.757  -9.348   9.765  0.00  0.00    +0.417 C 
ENDBRANCH  30  35
ENDBRANCH   1  24
ENDBRANCH  13   1
ENDBRANCH  17  13
TORSDOF 13
ENDMDL
MODEL 7
REMARK VINA RESULT:      -7.5      2.135      3.474
REMARK  Name = 11882571
REMARK  13 active torsions:
REMARK  status: ('A' for Active; 'I' for Inactive)
REMARK    1  A    between atoms: S_1  and  N_13
REMARK    2  A    between atoms: S_1  and  C_24
REMARK    3  A    between atoms: O_5  and  C_16
REMARK    4  A    between atoms: O_6  and  C_19
REMARK    5  A    between atoms: O_7  and  C_21
REMARK    6  A    between atoms: O_12  and  C_38
REMARK    7  A    between atoms: N_13  and  C_17
REMARK    8  A    between atoms: N_14  and  C_23
REMARK    9  A    between atoms: C_16  and  C_22
REMARK   10  A    between atoms: C_23  and  C_25
REMARK   11  A    between atoms: C_23  and  C_26
REMARK   12  A    between atoms: C_25  and  C_29
REMARK   13  A    between atoms: C_30  and  C_35
REMARK                            x       y       z     vdW  Elec       q    Type
REMARK                         _______ _______ _______ _____ _____    ______ ____
ROOT
ATOM     16  C   UNL     1      16.079   7.068  21.312  0.00  0.00    +0.145 C 
ATOM     17  C   UNL     1      18.581   6.681  21.178  0.00  0.00    +0.111 C 
ATOM     18  C   UNL     1      17.468   7.661  21.556  0.00  0.00    +0.067 C 
ATOM     19  C   UNL     1      18.436   6.161  19.744  0.00  0.00    +0.162 C 
ATOM     20  C   UNL     1      15.934   6.575  19.874  0.00  0.00    +0.078 C 
ATOM     21  C   UNL     1      17.037   5.590  19.487  0.00  0.00    +0.148 C 
ENDROOT
BRANCH  16  22
ATOM      8  O   UNL     1      15.282   9.201  22.038  0.00  0.00    -0.273 OA
ATOM     14  N   UNL     1      13.739   7.575  21.411  0.00  0.00    -0.301 N 
ATOM     22  C   UNL     1      15.011   8.076  21.624  0.00  0.00    +0.245 C 
ATOM     43  H   UNL     1      13.613   6.615  21.107  0.00  0.00    +0.150 HD
BRANCH  14  23
ATOM     23  C   UNL     1      12.537   8.339  21.658  0.00  0.00    +0.163 C 
BRANCH  23  26
ATOM     11  O   UNL     1      11.000   6.456  21.643  0.00  0.00    -0.274 OA
ATOM     15  N   UNL     1      10.730   8.109  20.070  0.00  0.00    -0.328 N 
ATOM     26  C   UNL     1      11.368   7.516  21.139  0.00  0.00    +0.231 C 
ATOM     44  H   UNL     1       9.923   7.672  19.638  0.00  0.00    +0.145 HD
ATOM     45  H   UNL     1      11.041   8.987  19.666  0.00  0.00    +0.145 HD
ENDBRANCH  23  26
BRANCH  23  25
ATOM     25  C   UNL     1      12.570   9.710  20.973  0.00  0.00    +0.067 C 
BRANCH  25  29
ATOM     29  C   UNL     1      11.928  10.795  21.804  0.00  0.00    -0.045 A 
ATOM     33  C   UNL     1      11.740  12.067  21.265  0.00  0.00    +0.007 A 
ATOM     34  C   UNL     1      11.524  10.523  23.111  0.00  0.00    +0.007 A 
ATOM     36  C   UNL     1      11.147  13.068  22.033  0.00  0.00    +0.045 A 
ATOM     37  C   UNL     1      10.931  11.525  23.880  0.00  0.00    +0.045 A 
ATOM     38  C   UNL     1      10.742  12.798  23.340  0.00  0.00    +0.117 A 
BRANCH  38  12
ATOM     12  O   UNL     1      10.162  13.775  24.089  0.00  0.00    -0.507 OA
ATOM     46  H   UNL     1      10.760  14.009  24.819  0.00  0.00    +0.292 HD
ENDBRANCH  38  12
ENDBRANCH  25  29
ENDBRANCH  23  25
ENDBRANCH  14  23
ENDBRANCH  16  22
BRANCH  16   5
ATOM      5  O   UNL     1      15.835   5.986  22.203  0.00  0.00    -0.379 OA
ATOM     40  H   UNL     1      15.302   6.317  22.945  0.00  0.00    +0.211 HD
ENDBRANCH  16   5
BRANCH  19   6
ATOM      6  O   UNL     1      19.398   5.121  19.552  0.00  0.00    -0.388 OA
ATOM     41  H   UNL     1      20.076   5.446  18.935  0.00  0.00    +0.210 HD
ENDBRANCH  19   6
BRANCH  21   7
ATOM      7  O   UNL     1      16.886   5.298  18.097  0.00  0.00    -0.389 OA
ATOM     42  H   UNL     1      17.687   5.610  17.643  0.00  0.00    +0.210 HD
ENDBRANCH  21   7
BRANCH  17  13
ATOM     13  N   UNL     1      19.890   7.377  21.313  0.00  0.00    -0.184 NA
ATOM     39  H   UNL     1      19.974   8.289  20.847  0.00  0.00    +0.148 HD
BRANCH  13   1
ATOM      1  S   UNL     1      20.904   7.011  22.620  0.00  0.00    +0.059 S 
ATOM      9  O   UNL     1      20.121   6.424  23.692  0.00  0.00    -0.153 OA
ATOM     10  O   UNL     1      21.754   8.157  22.881  0.00  0.00    -0.153 OA
BRANCH   1  24
ATOM     24  C   UNL     1      21.936   5.746  21.943  0.00  0.00    +0.106 A 
ATOM     27  C   UNL     1      23.134   6.086  21.313  0.00  0.00    +0.041 A 
ATOM     28  C   UNL     1      21.555   4.408  22.042  0.00  0.00    +0.028 A 
ATOM     30  C   UNL     1      23.948   5.087  20.780  0.00  0.00    +0.057 A 
ATOM     31  C   UNL     1      22.370   3.410  21.509  0.00  0.00    +0.002 A 
ATOM     32  C   UNL     1      23.567   3.749  20.878  0.00  0.00    +0.012 A 
BRANCH  30  35
ATOM      2  F   UNL     1      25.251   6.728  19.626  0.00  0.00    -0.166 F 
ATOM      3  F   UNL     1      26.321   5.356  20.920  0.00  0.00    -0.166 F 
ATOM      4  F   UNL     1      25.502   4.651  19.034  0.00  0.00    -0.166 F 
ATOM     35  C   UNL     1      25.229   5.450  20.106  0.00  0.00    +0.417 C 
ENDBRANCH  30  35
ENDBRANCH   1  24
ENDBRANCH  13   1
ENDBRANCH  17  13
TORSDOF 13
ENDMDL
MODEL 8
REMARK VINA RESULT:      -7.4      5.855      7.699
REMARK  Name = 11882571
REMARK  13 active torsions:
REMARK  status: ('A' for Active; 'I' for Inactive)
REMARK    1  A    between atoms: S_1  and  N_13
REMARK    2  A    between atoms: S_1  and  C_24
REMARK    3  A    between atoms: O_5  and  C_16
REMARK    4  A    between atoms: O_6  and  C_19
REMARK    5  A    between atoms: O_7  and  C_21
REMARK    6  A    between atoms: O_12  and  C_38
REMARK    7  A    between atoms: N_13  and  C_17
REMARK    8  A    between atoms: N_14  and  C_23
REMARK    9  A    between atoms: C_16  and  C_22
REMARK   10  A    between atoms: C_23  and  C_25
REMARK   11  A    between atoms: C_23  and  C_26
REMARK   12  A    between atoms: C_25  and  C_29
REMARK   13  A    between atoms: C_30  and  C_35
REMARK                            x       y       z     vdW  Elec       q    Type
REMARK                         _______ _______ _______ _____ _____    ______ ____
ROOT
ATOM     16  C   UNL     1      13.481   8.200  17.722  0.00  0.00    +0.145 C 
ATOM     17  C   UNL     1      14.110  10.097  16.161  0.00  0.00    +0.111 C 
ATOM     18  C   UNL     1      14.309   9.474  17.545  0.00  0.00    +0.067 C 
ATOM     19  C   UNL     1      12.631  10.339  15.840  0.00  0.00    +0.162 C 
ATOM     20  C   UNL     1      12.006   8.455  17.424  0.00  0.00    +0.078 C 
ATOM     21  C   UNL     1      11.793   9.071  16.040  0.00  0.00    +0.148 C 
ENDROOT
BRANCH  16  22
ATOM      8  O   UNL     1      14.626   6.995  19.439  0.00  0.00    -0.273 OA
ATOM     14  N   UNL     1      12.564   7.960  19.922  0.00  0.00    -0.301 N 
ATOM     22  C   UNL     1      13.641   7.653  19.111  0.00  0.00    +0.245 C 
ATOM     43  H   UNL     1      11.773   8.474  19.548  0.00  0.00    +0.150 HD
BRANCH  14  23
ATOM     23  C   UNL     1      12.463   7.529  21.299  0.00  0.00    +0.163 C 
BRANCH  23  26
ATOM     11  O   UNL     1      10.157   7.162  21.974  0.00  0.00    -0.274 OA
ATOM     15  N   UNL     1      11.241   5.501  20.817  0.00  0.00    -0.328 N 
ATOM     26  C   UNL     1      11.171   6.735  21.426  0.00  0.00    +0.231 C 
ATOM     44  H   UNL     1      10.442   4.876  20.814  0.00  0.00    +0.145 HD
ATOM     45  H   UNL     1      12.084   5.161  20.364  0.00  0.00    +0.145 HD
ENDBRANCH  23  26
BRANCH  23  25
ATOM     25  C   UNL     1      12.462   8.710  22.276  0.00  0.00    +0.067 C 
BRANCH  25  29
ATOM     29  C   UNL     1      13.589   9.681  22.021  0.00  0.00    -0.045 A 
ATOM     33  C   UNL     1      13.312  10.963  21.547  0.00  0.00    +0.007 A 
ATOM     34  C   UNL     1      14.908   9.294  22.258  0.00  0.00    +0.007 A 
ATOM     36  C   UNL     1      14.354  11.860  21.312  0.00  0.00    +0.045 A 
ATOM     37  C   UNL     1      15.951  10.191  22.023  0.00  0.00    +0.045 A 
ATOM     38  C   UNL     1      15.674  11.473  21.549  0.00  0.00    +0.117 A 
BRANCH  38  12
ATOM     12  O   UNL     1      16.690  12.348  21.320  0.00  0.00    -0.507 OA
ATOM     46  H   UNL     1      16.912  12.333  20.374  0.00  0.00    +0.292 HD
ENDBRANCH  38  12
ENDBRANCH  25  29
ENDBRANCH  23  25
ENDBRANCH  14  23
ENDBRANCH  16  22
BRANCH  16   5
ATOM      5  O   UNL     1      13.960   7.172  16.863  0.00  0.00    -0.379 OA
ATOM     40  H   UNL     1      13.848   6.319  17.317  0.00  0.00    +0.211 HD
ENDBRANCH  16   5
BRANCH  19   6
ATOM      6  O   UNL     1      12.537  10.738  14.470  0.00  0.00    -0.388 OA
ATOM     41  H   UNL     1      12.889  10.017  13.920  0.00  0.00    +0.210 HD
ENDBRANCH  19   6
BRANCH  21   7
ATOM      7  O   UNL     1      10.407   9.388  15.917  0.00  0.00    -0.389 OA
ATOM     42  H   UNL     1       9.906   8.560  16.008  0.00  0.00    +0.210 HD
ENDBRANCH  21   7
BRANCH  17  13
ATOM     13  N   UNL     1      14.835  11.396  16.118  0.00  0.00    -0.184 NA
ATOM     39  H   UNL     1      15.155  11.773  17.019  0.00  0.00    +0.148 HD
BRANCH  13   1
ATOM      1  S   UNL     1      15.611  11.877  14.691  0.00  0.00    +0.059 S 
ATOM      9  O   UNL     1      15.096  13.166  14.268  0.00  0.00    -0.153 OA
ATOM     10  O   UNL     1      15.618  10.757  13.769  0.00  0.00    -0.153 OA
BRANCH   1  24
ATOM     24  C   UNL     1      17.277  12.106  15.236  0.00  0.00    +0.106 A 
ATOM     27  C   UNL     1      18.329  11.527  14.526  0.00  0.00    +0.041 A 
ATOM     28  C   UNL     1      17.539  12.869  16.374  0.00  0.00    +0.028 A 
ATOM     30  C   UNL     1      19.643  11.710  14.957  0.00  0.00    +0.057 A 
ATOM     31  C   UNL     1      18.853  13.052  16.804  0.00  0.00    +0.002 A 
ATOM     32  C   UNL     1      19.905  12.472  16.095  0.00  0.00    +0.012 A 
BRANCH  30  35
ATOM      2  F   UNL     1      20.418   9.953  13.530  0.00  0.00    -0.166 F 
ATOM      3  F   UNL     1      21.305  11.911  13.249  0.00  0.00    -0.166 F 
ATOM      4  F   UNL     1      21.810  10.734  15.005  0.00  0.00    -0.166 F 
ATOM     35  C   UNL     1      20.769  11.090  14.199  0.00  0.00    +0.417 C 
ENDBRANCH  30  35
ENDBRANCH   1  24
ENDBRANCH  13   1
ENDBRANCH  17  13
TORSDOF 13
ENDMDL
MODEL 9
REMARK VINA RESULT:      -7.3     27.776     29.944
REMARK  Name = 11882571
REMARK  13 active torsions:
REMARK  status: ('A' for Active; 'I' for Inactive)
REMARK    1  A    between atoms: S_1  and  N_13
REMARK    2  A    between atoms: S_1  and  C_24
REMARK    3  A    between atoms: O_5  and  C_16
REMARK    4  A    between atoms: O_6  and  C_19
REMARK    5  A    between atoms: O_7  and  C_21
REMARK    6  A    between atoms: O_12  and  C_38
REMARK    7  A    between atoms: N_13  and  C_17
REMARK    8  A    between atoms: N_14  and  C_23
REMARK    9  A    between atoms: C_16  and  C_22
REMARK   10  A    between atoms: C_23  and  C_25
REMARK   11  A    between atoms: C_23  and  C_26
REMARK   12  A    between atoms: C_25  and  C_29
REMARK   13  A    between atoms: C_30  and  C_35
REMARK                            x       y       z     vdW  Elec       q    Type
REMARK                         _______ _______ _______ _____ _____    ______ ____
ROOT
ATOM     16  C   UNL     1      -6.198 -10.179  15.885  0.00  0.00    +0.145 C 
ATOM     17  C   UNL     1      -3.912 -11.164  16.374  0.00  0.00    +0.111 C 
ATOM     18  C   UNL     1      -5.004 -10.953  15.321  0.00  0.00    +0.067 C 
ATOM     19  C   UNL     1      -4.454 -11.817  17.650  0.00  0.00    +0.162 C 
ATOM     20  C   UNL     1      -6.746 -10.849  17.142  0.00  0.00    +0.078 C 
ATOM     21  C   UNL     1      -5.666 -11.059  18.204  0.00  0.00    +0.148 C 
ENDROOT
BRANCH  16  22
ATOM      8  O   UNL     1      -8.350  -9.499  15.101  0.00  0.00    -0.273 OA
ATOM     14  N   UNL     1      -6.928 -10.634  13.649  0.00  0.00    -0.301 N 
ATOM     22  C   UNL     1      -7.280 -10.050  14.853  0.00  0.00    +0.245 C 
ATOM     43  H   UNL     1      -6.035 -11.106  13.552  0.00  0.00    +0.150 HD
BRANCH  14  23
ATOM     23  C   UNL     1      -7.805 -10.666  12.499  0.00  0.00    +0.163 C 
BRANCH  23  26
ATOM     11  O   UNL     1      -8.875 -12.755  13.132  0.00  0.00    -0.274 OA
ATOM     15  N   UNL     1     -10.179 -10.879  12.896  0.00  0.00    -0.328 N 
ATOM     26  C   UNL     1      -8.982 -11.561  12.859  0.00  0.00    +0.231 C 
ATOM     44  H   UNL     1     -11.041 -11.354  13.139  0.00  0.00    +0.145 HD
ATOM     45  H   UNL     1     -10.253  -9.891  12.672  0.00  0.00    +0.145 HD
ENDBRANCH  23  26
BRANCH  23  25
ATOM     25  C   UNL     1      -7.097 -11.194  11.246  0.00  0.00    +0.067 C 
BRANCH  25  29
ATOM     29  C   UNL     1      -7.192 -10.243  10.077  0.00  0.00    -0.045 A 
ATOM     33  C   UNL     1      -6.895 -10.689   8.789  0.00  0.00    +0.007 A 
ATOM     34  C   UNL     1      -7.578  -8.919  10.286  0.00  0.00    +0.007 A 
ATOM     36  C   UNL     1      -6.984  -9.810   7.710  0.00  0.00    +0.045 A 
ATOM     37  C   UNL     1      -7.667  -8.040   9.207  0.00  0.00    +0.045 A 
ATOM     38  C   UNL     1      -7.369  -8.485   7.919  0.00  0.00    +0.117 A 
BRANCH  38  12
ATOM     12  O   UNL     1      -7.457  -7.629   6.865  0.00  0.00    -0.507 OA
ATOM     46  H   UNL     1      -7.231  -6.732   7.168  0.00  0.00    +0.292 HD
ENDBRANCH  38  12
ENDBRANCH  25  29
ENDBRANCH  23  25
ENDBRANCH  14  23
ENDBRANCH  16  22
BRANCH  16   5
ATOM      5  O   UNL     1      -5.823  -8.842  16.195  0.00  0.00    -0.379 OA
ATOM     40  H   UNL     1      -4.907  -8.850  16.521  0.00  0.00    +0.211 HD
ENDBRANCH  16   5
BRANCH  19   6
ATOM      6  O   UNL     1      -3.414 -11.797  18.631  0.00  0.00    -0.388 OA
ATOM     41  H   UNL     1      -3.741 -11.312  19.408  0.00  0.00    +0.210 HD
ENDBRANCH  19   6
BRANCH  21   7
ATOM      7  O   UNL     1      -6.250 -11.805  19.272  0.00  0.00    -0.389 OA
ATOM     42  H   UNL     1      -6.070 -11.325  20.098  0.00  0.00    +0.210 HD
ENDBRANCH  21   7
BRANCH  17  13
ATOM     13  N   UNL     1      -2.857 -12.037  15.792  0.00  0.00    -0.184 NA
ATOM     39  H   UNL     1      -3.082 -13.036  15.710  0.00  0.00    +0.148 HD
BRANCH  13   1
ATOM      1  S   UNL     1      -1.674 -11.363  14.783  0.00  0.00    +0.059 S 
ATOM      9  O   UNL     1      -0.470 -12.171  14.839  0.00  0.00    -0.153 OA
ATOM     10  O   UNL     1      -1.607  -9.936  15.038  0.00  0.00    -0.153 OA
BRANCH   1  24
ATOM     24  C   UNL     1      -2.395 -11.568  13.182  0.00  0.00    +0.106 A 
ATOM     27  C   UNL     1      -2.591 -10.459  12.358  0.00  0.00    +0.041 A 
ATOM     28  C   UNL     1      -2.765 -12.839  12.742  0.00  0.00    +0.028 A 
ATOM     30  C   UNL     1      -3.159 -10.622  11.095  0.00  0.00    +0.057 A 
ATOM     31  C   UNL     1      -3.332 -13.001  11.478  0.00  0.00    +0.002 A 
ATOM     32  C   UNL     1      -3.529 -11.892  10.654  0.00  0.00    +0.012 A 
BRANCH  30  35
ATOM      2  F   UNL     1      -4.270  -8.539  10.710  0.00  0.00    -0.166 F 
ATOM      3  F   UNL     1      -2.232  -8.714   9.989  0.00  0.00    -0.166 F 
ATOM      4  F   UNL     1      -3.835  -9.778   8.978  0.00  0.00    -0.166 F 
ATOM     35  C   UNL     1      -3.369  -9.437  10.213  0.00  0.00    +0.417 C 
ENDBRANCH  30  35
ENDBRANCH   1  24
ENDBRANCH  13   1
ENDBRANCH  17  13
TORSDOF 13
ENDMDL
MODEL 10
REMARK VINA RESULT:      -7.3     28.365     30.693
REMARK  Name = 11882571
REMARK  13 active torsions:
REMARK  status: ('A' for Active; 'I' for Inactive)
REMARK    1  A    between atoms: S_1  and  N_13
REMARK    2  A    between atoms: S_1  and  C_24
REMARK    3  A    between atoms: O_5  and  C_16
REMARK    4  A    between atoms: O_6  and  C_19
REMARK    5  A    between atoms: O_7  and  C_21
REMARK    6  A    between atoms: O_12  and  C_38
REMARK    7  A    between atoms: N_13  and  C_17
REMARK    8  A    between atoms: N_14  and  C_23
REMARK    9  A    between atoms: C_16  and  C_22
REMARK   10  A    between atoms: C_23  and  C_25
REMARK   11  A    between atoms: C_23  and  C_26
REMARK   12  A    between atoms: C_25  and  C_29
REMARK   13  A    between atoms: C_30  and  C_35
REMARK                            x       y       z     vdW  Elec       q    Type
REMARK                         _______ _______ _______ _____ _____    ______ ____
ROOT
ATOM     16  C   UNL     1      -6.945 -10.931  18.791  0.00  0.00    +0.145 C 
ATOM     17  C   UNL     1      -5.167 -10.234  17.123  0.00  0.00    +0.111 C 
ATOM     18  C   UNL     1      -6.667 -10.337  17.409  0.00  0.00    +0.067 C 
ATOM     19  C   UNL     1      -4.446 -11.573  17.315  0.00  0.00    +0.162 C 
ATOM     20  C   UNL     1      -6.243 -12.275  18.966  0.00  0.00    +0.078 C 
ATOM     21  C   UNL     1      -4.741 -12.184  18.689  0.00  0.00    +0.148 C 
ENDROOT
BRANCH  16  22
ATOM      8  O   UNL     1      -8.883 -11.387  20.112  0.00  0.00    -0.273 OA
ATOM     14  N   UNL     1      -9.151 -10.875  17.857  0.00  0.00    -0.301 N 
ATOM     22  C   UNL     1      -8.422 -11.086  19.014  0.00  0.00    +0.245 C 
ATOM     43  H   UNL     1      -8.675 -10.672  16.984  0.00  0.00    +0.150 HD
BRANCH  14  23
ATOM     23  C   UNL     1     -10.591 -10.987  17.799  0.00  0.00    +0.163 C 
BRANCH  23  26
ATOM     11  O   UNL     1     -12.110 -11.429  15.954  0.00  0.00    -0.274 OA
ATOM     15  N   UNL     1      -9.893 -11.047  15.486  0.00  0.00    -0.328 N 
ATOM     26  C   UNL     1     -10.966 -11.196  16.340  0.00  0.00    +0.231 C 
ATOM     44  H   UNL     1     -10.009 -11.145  14.483  0.00  0.00    +0.145 HD
ATOM     45  H   UNL     1      -8.954 -10.851  15.818  0.00  0.00    +0.145 HD
ENDBRANCH  23  26
BRANCH  23  25
ATOM     25  C   UNL     1     -11.292  -9.743  18.357  0.00  0.00    +0.067 C 
BRANCH  25  29
ATOM     29  C   UNL     1     -11.324  -8.599  17.372  0.00  0.00    -0.045 A 
ATOM     33  C   UNL     1     -12.531  -8.215  16.789  0.00  0.00    +0.007 A 
ATOM     34  C   UNL     1     -10.146  -7.929  17.046  0.00  0.00    +0.007 A 
ATOM     36  C   UNL     1     -12.561  -7.158  15.880  0.00  0.00    +0.045 A 
ATOM     37  C   UNL     1     -10.175  -6.871  16.136  0.00  0.00    +0.045 A 
ATOM     38  C   UNL     1     -11.382  -6.487  15.553  0.00  0.00    +0.117 A 
BRANCH  38  12
ATOM     12  O   UNL     1     -11.412  -5.455  14.666  0.00  0.00    -0.507 OA
ATOM     46  H   UNL     1     -10.548  -5.008  14.674  0.00  0.00    +0.292 HD
ENDBRANCH  38  12
ENDBRANCH  25  29
ENDBRANCH  23  25
ENDBRANCH  14  23
ENDBRANCH  16  22
BRANCH  16   5
ATOM      5  O   UNL     1      -6.509 -10.041  19.812  0.00  0.00    -0.379 OA
ATOM     40  H   UNL     1      -6.855  -9.155  19.611  0.00  0.00    +0.211 HD
ENDBRANCH  16   5
BRANCH  19   6
ATOM      6  O   UNL     1      -3.039 -11.334  17.213  0.00  0.00    -0.388 OA
ATOM     41  H   UNL     1      -2.807 -10.625  17.835  0.00  0.00    +0.210 HD
ENDBRANCH  19   6
BRANCH  21   7
ATOM      7  O   UNL     1      -4.210 -13.508  18.749  0.00  0.00    -0.389 OA
ATOM     42  H   UNL     1      -4.750 -14.013  19.381  0.00  0.00    +0.210 HD
ENDBRANCH  21   7
BRANCH  17  13
ATOM     13  N   UNL     1      -4.984  -9.781  15.717  0.00  0.00    -0.184 NA
ATOM     39  H   UNL     1      -4.119  -9.266  15.510  0.00  0.00    +0.148 HD
BRANCH  13   1
ATOM      1  S   UNL     1      -5.795 -10.584  14.465  0.00  0.00    +0.059 S 
ATOM      9  O   UNL     1      -7.056  -9.917  14.196  0.00  0.00    -0.153 OA
ATOM     10  O   UNL     1      -5.768 -12.009  14.735  0.00  0.00    -0.153 OA
BRANCH   1  24
ATOM     24  C   UNL     1      -4.723 -10.299  13.088  0.00  0.00    +0.106 A 
ATOM     27  C   UNL     1      -5.223  -9.719  11.923  0.00  0.00    +0.041 A 
ATOM     28  C   UNL     1      -3.376 -10.653  13.170  0.00  0.00    +0.028 A 
ATOM     30  C   UNL     1      -4.376  -9.494  10.838  0.00  0.00    +0.057 A 
ATOM     31  C   UNL     1      -2.529 -10.427  12.085  0.00  0.00    +0.002 A 
ATOM     32  C   UNL     1      -3.030  -9.847  10.919  0.00  0.00    +0.012 A 
BRANCH  30  35
ATOM      2  F   UNL     1      -4.040  -8.919   8.540  0.00  0.00    -0.166 F 
ATOM      3  F   UNL     1      -6.053  -9.464   9.132  0.00  0.00    -0.166 F 
ATOM      4  F   UNL     1      -5.220  -7.554   9.753  0.00  0.00    -0.166 F 
ATOM     35  C   UNL     1      -4.910  -8.873   9.591  0.00  0.00    +0.417 C 
ENDBRANCH  30  35
ENDBRANCH   1  24
ENDBRANCH  13   1
ENDBRANCH  17  13
TORSDOF 13
ENDMDL
