REMARK  Name = 7165085
REMARK  8 active torsions:
REMARK  status: ('A' for Active; 'I' for Inactive)
REMARK    1  A    between atoms: O_3  and  C_23
REMARK    2  A    between atoms: O_6  and  C_30
REMARK    3  A    between atoms: O_6  and  C_31
REMARK    4  A    between atoms: N_9  and  C_25
REMARK    5  A    between atoms: C_10  and  C_13
REMARK    6  A    between atoms: C_10  and  C_17
REMARK    7  A    between atoms: C_13  and  C_20
REMARK    8  A    between atoms: C_17  and  C_23
REMARK                            x       y       z     vdW  Elec       q    Type
REMARK                         _______ _______ _______ _____ _____    ______ ____
ROOT
ATOM      1  O   UNL     1      -2.621  -0.914  -1.193  0.00  0.00    -0.276 OA
ATOM      2  O   UNL     1       0.111  -0.134   0.051  0.00  0.00    -0.273 OA
ATOM      5  O   UNL     1       1.594   4.296  -0.489  0.00  0.00    -0.252 OA
ATOM      7  N   UNL     1      -2.421   0.775   0.376  0.00  0.00    -0.288 N 
ATOM      8  N   UNL     1      -0.572   3.855  -0.025  0.00  0.00    -0.293 N 
ATOM      9  N   UNL     1       0.951   2.045  -0.228  0.00  0.00    -0.193 N 
ATOM     16  C   UNL     1      -1.484   1.605  -0.384  0.00  0.00    +0.183 C 
ATOM     18  C   UNL     1      -1.675   2.976   0.230  0.00  0.00    +0.105 C 
ATOM     19  C   UNL     1      -1.915   2.667   1.707  0.00  0.00    +0.043 C 
ATOM     20  C   UNL     1      -2.955  -0.402  -0.124  0.00  0.00    +0.217 C 
ATOM     21  C   UNL     1      -2.787   1.419   1.638  0.00  0.00    +0.110 C 
ATOM     22  C   UNL     1      -0.074   1.067  -0.158  0.00  0.00    +0.250 C 
ATOM     24  C   UNL     1       0.729   3.448  -0.246  0.00  0.00    +0.313 C 
ATOM     37  H   UNL     1      -0.755   4.853  -0.026  0.00  0.00    +0.151 HD
ENDROOT
BRANCH   9  25
ATOM     25  C   UNL     1       2.323   1.579  -0.264  0.00  0.00    +0.046 A 
ATOM     26  C   UNL     1       2.626   0.346  -0.841  0.00  0.00    +0.027 A 
ATOM     27  C   UNL     1       3.341   2.365   0.276  0.00  0.00    +0.027 A 
ATOM     28  C   UNL     1       3.946  -0.101  -0.878  0.00  0.00    +0.048 A 
ATOM     29  C   UNL     1       4.662   1.918   0.240  0.00  0.00    +0.048 A 
ATOM     30  C   UNL     1       4.964   0.685  -0.337  0.00  0.00    +0.129 A 
BRANCH  30   6
ATOM      6  O   UNL     1       6.253   0.249  -0.374  0.00  0.00    -0.456 OA
BRANCH   6  31
ATOM     31  C   UNL     1       6.498  -1.069  -0.026  0.00  0.00    +0.128 A 
ATOM     32  C   UNL     1       5.889  -1.616   1.104  0.00  0.00    +0.046 A 
ATOM     33  C   UNL     1       7.353  -1.849  -0.804  0.00  0.00    +0.046 A 
ATOM     34  C   UNL     1       6.136  -2.943   1.455  0.00  0.00    +0.004 A 
ATOM     35  C   UNL     1       7.600  -3.176  -0.453  0.00  0.00    +0.004 A 
ATOM     36  C   UNL     1       6.992  -3.723   0.677  0.00  0.00    +0.000 A 
ENDBRANCH   6  31
ENDBRANCH  30   6
ENDBRANCH   9  25
BRANCH  20  13
ATOM     13  C   UNL     1      -4.001  -1.058   0.742  0.00  0.00    +0.103 C 
BRANCH  13  10
ATOM     10  C   UNL     1      -5.020  -1.796  -0.137  0.00  0.00    -0.011 C 
ATOM     11  C   UNL     1      -4.315  -2.887  -0.978  0.00  0.00    +0.008 C 
ATOM     12  C   UNL     1      -6.044  -2.558   0.736  0.00  0.00    +0.008 C 
ATOM     14  C   UNL     1      -5.111  -4.165  -0.746  0.00  0.00    +0.001 C 
ATOM     15  C   UNL     1      -5.611  -4.016   0.678  0.00  0.00    +0.001 C 
BRANCH  10  17
ATOM     17  C   UNL     1      -5.733  -0.781  -1.038  0.00  0.00    +0.127 C 
BRANCH  17  23
ATOM      4  O   UNL     1      -7.304   0.114   0.597  0.00  0.00    -0.251 OA
ATOM     23  C   UNL     1      -6.420   0.280  -0.230  0.00  0.00    +0.305 C 
BRANCH  23   3
ATOM      3  O   UNL     1      -5.907   1.495  -0.553  0.00  0.00    -0.481 OA
ATOM     38  H   UNL     1      -6.328   2.217  -0.040  0.00  0.00    +0.295 HD
ENDBRANCH  23   3
ENDBRANCH  17  23
ENDBRANCH  10  17
ENDBRANCH  13  10
ENDBRANCH  20  13
TORSDOF 8
