REMARK  Name = 45783925
REMARK  10 active torsions:
REMARK  status: ('A' for Active; 'I' for Inactive)
REMARK    1  A    between atoms: N_3  and  C_13
REMARK    2  A    between atoms: C_8  and  C_12
REMARK    3  A    between atoms: C_9  and  C_13
REMARK    4  A    between atoms: C_11  and  C_18
REMARK    5  A    between atoms: C_12  and  C_22
REMARK    6  A    between atoms: C_12  and  C_23
REMARK    7  A    between atoms: C_15  and  C_24
REMARK    8  A    between atoms: C_18  and  C_25
REMARK    9  A    between atoms: C_19  and  C_26
REMARK   10  A    between atoms: C_27  and  C_28
REMARK                            x       y       z     vdW  Elec       q    Type
REMARK                         _______ _______ _______ _____ _____    ______ ____
ROOT
ATOM      8  C   UNL     1       1.022  -0.540   0.891  0.00  0.00    +0.000 C 
ATOM      9  C   UNL     1       2.032  -1.621   0.441  0.00  0.00    +0.029 C 
ATOM     10  C   UNL     1      -0.123  -0.418  -0.123  0.00  0.00    +0.012 C 
ATOM     11  C   UNL     1      -0.869  -1.747  -0.367  0.00  0.00    +0.024 C 
ATOM     14  C   UNL     1       1.356  -2.871  -0.062  0.00  0.00    -0.023 C 
ATOM     15  C   UNL     1       0.060  -2.951  -0.416  0.00  0.00    -0.073 C 
ATOM     24  C   UNL     1      -0.535  -4.271  -0.824  0.00  0.00    +0.039 C 
ENDROOT
BRANCH   8  12
ATOM     12  C   UNL     1       0.486  -0.827   2.301  0.00  0.00    -0.013 C 
ATOM     22  C   UNL     1      -0.793  -0.036   2.555  0.00  0.00    +0.007 C 
ATOM     23  C   UNL     1       1.544  -0.496   3.349  0.00  0.00    +0.007 C 
ENDBRANCH   8  12
BRANCH   9  13
ATOM     13  C   UNL     1       2.983  -1.094  -0.638  0.00  0.00    +0.092 C 
BRANCH  13   3
ATOM      3  N   UNL     1       3.676   0.108  -0.173  0.00  0.00    -0.302 NA
ATOM     16  C   UNL     1       4.744  -0.248   0.770  0.00  0.00    +0.085 C 
ATOM     17  C   UNL     1       4.213   0.863  -1.312  0.00  0.00    +0.085 C 
ATOM     19  C   UNL     1       5.943   1.932   0.229  0.00  0.00    +0.077 C 
ATOM     20  C   UNL     1       5.428   1.003   1.327  0.00  0.00    +0.028 C 
ATOM     21  C   UNL     1       4.888   2.159  -0.853  0.00  0.00    +0.028 C 
BRANCH  19  26
ATOM      2  O   UNL     1       7.216   0.659  -1.348  0.00  0.00    -0.276 OA
ATOM      5  N   UNL     1       8.346   1.765   0.324  0.00  0.00    -0.329 N 
ATOM     26  C   UNL     1       7.213   1.388  -0.358  0.00  0.00    +0.214 C 
ATOM     33  H   UNL     1       9.263   1.454   0.022  0.00  0.00    +0.145 HD
ATOM     34  H   UNL     1       8.315   2.357   1.148  0.00  0.00    +0.145 HD
ENDBRANCH  19  26
ENDBRANCH  13   3
ENDBRANCH   9  13
BRANCH  11  18
ATOM     18  C   UNL     1      -1.726  -1.603  -1.631  0.00  0.00    +0.105 C 
BRANCH  18  25
ATOM      1  O   UNL     1      -3.737  -0.529  -0.760  0.00  0.00    -0.420 OA
ATOM      4  N   UNL     1      -2.526   0.765  -2.125  0.00  0.00    -0.112 NA
ATOM      6  N   UNL     1      -3.625   1.493  -1.710  0.00  0.00    -0.107 NA
ATOM     25  C   UNL     1      -2.632  -0.408  -1.546  0.00  0.00    +0.218 A 
ATOM     27  C   UNL     1      -4.303   0.699  -0.915  0.00  0.00    +0.248 A 
BRANCH  27  28
ATOM      7  N   UNL     1      -7.909   1.355   1.195  0.00  0.00    -0.263 NA
ATOM     28  C   UNL     1      -5.526   0.922  -0.199  0.00  0.00    +0.041 A 
ATOM     29  C   UNL     1      -6.178   2.146  -0.295  0.00  0.00    +0.033 A 
ATOM     30  C   UNL     1      -6.064  -0.086   0.594  0.00  0.00    +0.033 A 
ATOM     31  C   UNL     1      -7.356   2.311   0.415  0.00  0.00    +0.111 A 
ATOM     32  C   UNL     1      -7.247   0.178   1.264  0.00  0.00    +0.111 A 
ENDBRANCH  27  28
ENDBRANCH  18  25
ENDBRANCH  11  18
TORSDOF 7
