REMARK  Name = 75536904
REMARK  5 active torsions:
REMARK  status: ('A' for Active; 'I' for Inactive)
REMARK    1  A    between atoms: O_2  and  C_8
REMARK    2  A    between atoms: O_2  and  C_15
REMARK    3  A    between atoms: O_4  and  C_14
REMARK    4  A    between atoms: O_4  and  C_17
REMARK    5  A    between atoms: C_13  and  C_14
REMARK                            x       y       z     vdW  Elec       q    Type
REMARK                         _______ _______ _______ _____ _____    ______ ____
ROOT
ATOM      1  O   UNL     1      -0.461  -3.257   0.362  0.00  0.00    -0.375 OA
ATOM      3  O   UNL     1      -3.960  -0.070  -0.943  0.00  0.00    -0.273 OA
ATOM      5  N   UNL     1      -1.720  -0.480  -0.442  0.00  0.00    -0.294 N 
ATOM      8  C   UNL     1       0.620  -1.067   0.408  0.00  0.00    +0.218 C 
ATOM      9  C   UNL     1      -0.472  -0.020   0.175  0.00  0.00    +0.154 C 
ATOM     10  C   UNL     1      -1.730  -1.781  -1.117  0.00  0.00    +0.136 C 
ATOM     11  C   UNL     1       0.132  -2.274   1.204  0.00  0.00    +0.206 C 
ATOM     12  C   UNL     1      -1.761  -2.925  -0.113  0.00  0.00    +0.179 C 
ATOM     13  C   UNL     1      -2.897   0.280  -0.424  0.00  0.00    +0.241 C 
ENDROOT
BRANCH   8   2
ATOM      2  O   UNL     1       1.667  -0.446   1.157  0.00  0.00    -0.468 OA
BRANCH   2  15
ATOM      6  N   UNL     1       2.547   0.158  -0.908  0.00  0.00    -0.219 NA
ATOM      7  N   UNL     1       4.676   1.427   0.404  0.00  0.00    -0.256 NA
ATOM     15  C   UNL     1       2.646   0.178   0.436  0.00  0.00    +0.234 A 
ATOM     16  C   UNL     1       3.692   0.802   1.081  0.00  0.00    +0.177 A 
ATOM     18  C   UNL     1       3.530   0.783  -1.584  0.00  0.00    +0.134 A 
ATOM     19  C   UNL     1       4.576   1.407  -0.940  0.00  0.00    +0.130 A 
ENDBRANCH   2  15
ENDBRANCH   8   2
BRANCH  13  14
ATOM     14  C   UNL     1      -2.829   1.607   0.294  0.00  0.00    +0.255 C 
BRANCH  14   4
ATOM      4  O   UNL     1      -4.095   2.203   0.154  0.00  0.00    -0.374 OA
ATOM     17  C   UNL     1      -4.162   3.476   0.796  0.00  0.00    +0.194 C 
ENDBRANCH  14   4
ENDBRANCH  13  14
TORSDOF 4
