MODEL 1
REMARK VINA RESULT:      -6.4      0.000      0.000
REMARK  Name = 7675143
REMARK  4 active torsions:
REMARK  status: ('A' for Active; 'I' for Inactive)
REMARK    1  A    between atoms: S_1  and  N_9
REMARK    2  A    between atoms: S_1  and  C_19
REMARK    3  A    between atoms: N_10  and  C_18
REMARK    4  A    between atoms: C_18  and  C_20
REMARK                            x       y       z     vdW  Elec       q    Type
REMARK                         _______ _______ _______ _____ _____    ______ ____
ROOT
ATOM      3  O   UNL     1      11.027  11.082  25.638  0.00  0.00    -0.273 OA
ATOM      4  O   UNL     1      13.750  13.767  23.063  0.00  0.00    -0.252 OA
ATOM      8  N   UNL     1      12.044  12.251  22.538  0.00  0.00    -0.271 N 
ATOM      9  N   UNL     1      11.231   9.887  21.290  0.00  0.00    -0.172 NA
ATOM     10  N   UNL     1      12.536  12.588  24.679  0.00  0.00    -0.215 N 
ATOM     12  C   UNL     1      11.120  11.387  23.234  0.00  0.00    +0.180 C 
ATOM     13  C   UNL     1      11.305   9.945  22.788  0.00  0.00    +0.141 C 
ATOM     14  C   UNL     1      12.097  12.199  21.090  0.00  0.00    +0.127 C 
ATOM     15  C   UNL     1      12.273  10.750  20.640  0.00  0.00    +0.128 C 
ATOM     16  C   UNL     1      11.533  11.641  24.674  0.00  0.00    +0.245 C 
ATOM     17  C   UNL     1      12.878  12.972  23.392  0.00  0.00    +0.312 C 
ENDROOT
BRANCH   9   1
ATOM      1  S   UNL     1      11.069   8.315  20.628  0.00  0.00    +0.067 S 
ATOM      5  O   UNL     1      10.518   8.433  19.295  0.00  0.00    -0.152 OA
ATOM      6  O   UNL     1      10.489   7.440  21.625  0.00  0.00    -0.152 OA
BRANCH   1  19
ATOM      2  S   UNL     1      13.168   7.517  18.756  0.00  0.00    -0.077 S 
ATOM     19  C   UNL     1      12.718   7.662  20.388  0.00  0.00    +0.143 A 
ATOM     21  C   UNL     1      13.675   7.262  21.261  0.00  0.00    +0.036 A 
ATOM     22  C   UNL     1      14.839   6.811  20.574  0.00  0.00    +0.010 A 
ATOM     23  C   UNL     1      14.698   6.896  19.206  0.00  0.00    +0.047 A 
ENDBRANCH   1  19
ENDBRANCH   9   1
BRANCH  10  18
ATOM     18  C   UNL     1      13.172  13.097  25.879  0.00  0.00    +0.213 C 
BRANCH  18  20
ATOM      7  O   UNL     1      15.582  12.897  25.999  0.00  0.00    -0.274 OA
ATOM     11  N   UNL     1      14.291  11.039  26.407  0.00  0.00    -0.328 N 
ATOM     20  C   UNL     1      14.478  12.372  26.110  0.00  0.00    +0.228 C 
ATOM     24  H   UNL     1      15.083  10.427  26.573  0.00  0.00    +0.145 HD
ATOM     25  H   UNL     1      13.370  10.618  26.473  0.00  0.00    +0.145 HD
ENDBRANCH  18  20
ENDBRANCH  10  18
TORSDOF 4
ENDMDL
MODEL 2
REMARK VINA RESULT:      -5.9     27.103     28.636
REMARK  Name = 7675143
REMARK  4 active torsions:
REMARK  status: ('A' for Active; 'I' for Inactive)
REMARK    1  A    between atoms: S_1  and  N_9
REMARK    2  A    between atoms: S_1  and  C_19
REMARK    3  A    between atoms: N_10  and  C_18
REMARK    4  A    between atoms: C_18  and  C_20
REMARK                            x       y       z     vdW  Elec       q    Type
REMARK                         _______ _______ _______ _____ _____    ______ ____
ROOT
ATOM      3  O   UNL     1      -6.968 -10.734  15.813  0.00  0.00    -0.273 OA
ATOM      4  O   UNL     1      -3.474 -11.822  18.616  0.00  0.00    -0.252 OA
ATOM      8  N   UNL     1      -3.579 -10.747  16.539  0.00  0.00    -0.271 N 
ATOM      9  N   UNL     1      -2.916 -10.693  13.825  0.00  0.00    -0.172 NA
ATOM     10  N   UNL     1      -5.479 -11.403  17.488  0.00  0.00    -0.215 N 
ATOM     12  C   UNL     1      -4.586 -10.332  15.591  0.00  0.00    +0.180 C 
ATOM     13  C   UNL     1      -4.333 -10.971  14.235  0.00  0.00    +0.141 C 
ATOM     14  C   UNL     1      -2.181 -10.590  16.189  0.00  0.00    +0.127 C 
ATOM     15  C   UNL     1      -1.926 -11.223  14.822  0.00  0.00    +0.128 C 
ATOM     16  C   UNL     1      -5.842 -10.838  16.282  0.00  0.00    +0.245 C 
ATOM     17  C   UNL     1      -4.105 -11.373  17.668  0.00  0.00    +0.312 C 
ENDROOT
BRANCH   9   1
ATOM      1  S   UNL     1      -2.551 -11.028  12.185  0.00  0.00    +0.067 S 
ATOM      5  O   UNL     1      -2.582 -12.462  11.993  0.00  0.00    -0.152 OA
ATOM      6  O   UNL     1      -1.421 -10.222  11.778  0.00  0.00    -0.152 OA
BRANCH   1  19
ATOM      2  S   UNL     1      -4.634 -11.578  10.207  0.00  0.00    -0.077 S 
ATOM     19  C   UNL     1      -3.906 -10.403  11.197  0.00  0.00    +0.143 A 
ATOM     21  C   UNL     1      -4.461  -9.171  11.087  0.00  0.00    +0.036 A 
ATOM     22  C   UNL     1      -5.535  -9.173  10.151  0.00  0.00    +0.010 A 
ATOM     23  C   UNL     1      -5.736 -10.419   9.598  0.00  0.00    +0.047 A 
ENDBRANCH   1  19
ENDBRANCH   9   1
BRANCH  10  18
ATOM     18  C   UNL     1      -6.415 -11.981  18.433  0.00  0.00    +0.213 C 
BRANCH  18  20
ATOM      7  O   UNL     1      -6.332 -10.666  20.464  0.00  0.00    -0.274 OA
ATOM     11  N   UNL     1      -8.040 -10.297  18.970  0.00  0.00    -0.328 N 
ATOM     20  C   UNL     1      -6.886 -10.917  19.398  0.00  0.00    +0.228 C 
ATOM     24  H   UNL     1      -8.477  -9.570  19.526  0.00  0.00    +0.145 HD
ATOM     25  H   UNL     1      -8.496 -10.534  18.094  0.00  0.00    +0.145 HD
ENDBRANCH  18  20
ENDBRANCH  10  18
TORSDOF 4
ENDMDL
MODEL 3
REMARK VINA RESULT:      -5.5     16.524     19.669
REMARK  Name = 7675143
REMARK  4 active torsions:
REMARK  status: ('A' for Active; 'I' for Inactive)
REMARK    1  A    between atoms: S_1  and  N_9
REMARK    2  A    between atoms: S_1  and  C_19
REMARK    3  A    between atoms: N_10  and  C_18
REMARK    4  A    between atoms: C_18  and  C_20
REMARK                            x       y       z     vdW  Elec       q    Type
REMARK                         _______ _______ _______ _____ _____    ______ ____
ROOT
ATOM      3  O   UNL     1       9.804   3.980   5.846  0.00  0.00    -0.273 OA
ATOM      4  O   UNL     1      11.640   8.195   6.189  0.00  0.00    -0.252 OA
ATOM      8  N   UNL     1      10.618   7.036   4.429  0.00  0.00    -0.271 N 
ATOM      9  N   UNL     1      10.787   5.901   1.881  0.00  0.00    -0.172 NA
ATOM     10  N   UNL     1      10.775   6.032   6.406  0.00  0.00    -0.215 N 
ATOM     12  C   UNL     1       9.994   5.754   4.203  0.00  0.00    +0.180 C 
ATOM     13  C   UNL     1      10.706   5.008   3.085  0.00  0.00    +0.141 C 
ATOM     14  C   UNL     1      10.812   7.929   3.303  0.00  0.00    +0.127 C 
ATOM     15  C   UNL     1      11.518   7.180   2.175  0.00  0.00    +0.128 C 
ATOM     16  C   UNL     1      10.166   5.117   5.571  0.00  0.00    +0.245 C 
ATOM     17  C   UNL     1      11.073   7.209   5.736  0.00  0.00    +0.312 C 
ENDROOT
BRANCH   9   1
ATOM      1  S   UNL     1      11.238   5.122   0.424  0.00  0.00    +0.067 S 
ATOM      5  O   UNL     1      11.331   6.119  -0.620  0.00  0.00    -0.152 OA
ATOM      6  O   UNL     1      10.452   3.917   0.269  0.00  0.00    -0.152 OA
BRANCH   1  19
ATOM      2  S   UNL     1      13.965   4.968  -0.622  0.00  0.00    -0.077 S 
ATOM     19  C   UNL     1      12.911   4.521   0.634  0.00  0.00    +0.143 A 
ATOM     21  C   UNL     1      13.496   3.776   1.604  0.00  0.00    +0.036 A 
ATOM     22  C   UNL     1      14.874   3.552   1.318  0.00  0.00    +0.010 A 
ATOM     23  C   UNL     1      15.260   4.146   0.137  0.00  0.00    +0.047 A 
ENDBRANCH   1  19
ENDBRANCH   9   1
BRANCH  10  18
ATOM     18  C   UNL     1      11.088   5.784   7.800  0.00  0.00    +0.213 C 
BRANCH  18  20
ATOM      7  O   UNL     1       8.922   6.145   8.820  0.00  0.00    -0.274 OA
ATOM     11  N   UNL     1       9.855   4.046   8.906  0.00  0.00    -0.328 N 
ATOM     20  C   UNL     1       9.835   5.374   8.538  0.00  0.00    +0.228 C 
ATOM     24  H   UNL     1       9.082   3.637   9.421  0.00  0.00    +0.145 HD
ATOM     25  H   UNL     1      10.629   3.429   8.682  0.00  0.00    +0.145 HD
ENDBRANCH  18  20
ENDBRANCH  10  18
TORSDOF 4
ENDMDL
MODEL 4
REMARK VINA RESULT:      -5.4     27.918     28.975
REMARK  Name = 7675143
REMARK  4 active torsions:
REMARK  status: ('A' for Active; 'I' for Inactive)
REMARK    1  A    between atoms: S_1  and  N_9
REMARK    2  A    between atoms: S_1  and  C_19
REMARK    3  A    between atoms: N_10  and  C_18
REMARK    4  A    between atoms: C_18  and  C_20
REMARK                            x       y       z     vdW  Elec       q    Type
REMARK                         _______ _______ _______ _____ _____    ______ ____
ROOT
ATOM      3  O   UNL     1      -7.450  -9.261  17.311  0.00  0.00    -0.273 OA
ATOM      4  O   UNL     1      -3.859 -11.771  18.747  0.00  0.00    -0.252 OA
ATOM      8  N   UNL     1      -4.384 -10.758  16.702  0.00  0.00    -0.271 N 
ATOM      9  N   UNL     1      -4.954 -11.001  13.977  0.00  0.00    -0.172 NA
ATOM     10  N   UNL     1      -5.802 -10.515  18.396  0.00  0.00    -0.215 N 
ATOM     12  C   UNL     1      -5.437  -9.944  16.142  0.00  0.00    +0.180 C 
ATOM     13  C   UNL     1      -6.051 -10.629  14.932  0.00  0.00    +0.141 C 
ATOM     14  C   UNL     1      -3.326 -11.230  15.830  0.00  0.00    +0.127 C 
ATOM     15  C   UNL     1      -3.940 -11.911  14.608  0.00  0.00    +0.128 C 
ATOM     16  C   UNL     1      -6.376  -9.848  17.333  0.00  0.00    +0.245 C 
ATOM     17  C   UNL     1      -4.592 -11.090  18.040  0.00  0.00    +0.312 C 
ENDROOT
BRANCH   9   1
ATOM      1  S   UNL     1      -5.474 -11.463  12.412  0.00  0.00    +0.067 S 
ATOM      5  O   UNL     1      -6.892 -11.195  12.301  0.00  0.00    -0.152 OA
ATOM      6  O   UNL     1      -4.908 -12.755  12.087  0.00  0.00    -0.152 OA
BRANCH   1  19
ATOM      2  S   UNL     1      -3.011 -10.274  11.375  0.00  0.00    -0.077 S 
ATOM     19  C   UNL     1      -4.704 -10.349  11.241  0.00  0.00    +0.143 A 
ATOM     21  C   UNL     1      -5.215  -9.554  10.268  0.00  0.00    +0.036 A 
ATOM     22  C   UNL     1      -4.182  -8.843   9.592  0.00  0.00    +0.010 A 
ATOM     23  C   UNL     1      -2.934  -9.141  10.094  0.00  0.00    +0.047 A 
ENDBRANCH   1  19
ENDBRANCH   9   1
BRANCH  10  18
ATOM     18  C   UNL     1      -6.402 -10.624  19.712  0.00  0.00    +0.213 C 
BRANCH  18  20
ATOM      7  O   UNL     1      -8.753 -11.196  19.818  0.00  0.00    -0.274 OA
ATOM     11  N   UNL     1      -7.219 -12.866  19.447  0.00  0.00    -0.328 N 
ATOM     20  C   UNL     1      -7.591 -11.556  19.654  0.00  0.00    +0.228 C 
ATOM     24  H   UNL     1      -7.914 -13.604  19.399  0.00  0.00    +0.145 HD
ATOM     25  H   UNL     1      -6.249 -13.148  19.334  0.00  0.00    +0.145 HD
ENDBRANCH  18  20
ENDBRANCH  10  18
TORSDOF 4
ENDMDL
MODEL 5
REMARK VINA RESULT:      -5.4     15.473     18.736
REMARK  Name = 7675143
REMARK  4 active torsions:
REMARK  status: ('A' for Active; 'I' for Inactive)
REMARK    1  A    between atoms: S_1  and  N_9
REMARK    2  A    between atoms: S_1  and  C_19
REMARK    3  A    between atoms: N_10  and  C_18
REMARK    4  A    between atoms: C_18  and  C_20
REMARK                            x       y       z     vdW  Elec       q    Type
REMARK                         _______ _______ _______ _____ _____    ______ ____
ROOT
ATOM      3  O   UNL     1       8.775   5.260   5.405  0.00  0.00    -0.273 OA
ATOM      4  O   UNL     1      12.373   6.027   8.183  0.00  0.00    -0.252 OA
ATOM      8  N   UNL     1      11.723   6.934   6.125  0.00  0.00    -0.271 N 
ATOM      9  N   UNL     1      12.243   7.351   3.411  0.00  0.00    -0.172 NA
ATOM     10  N   UNL     1      10.415   5.402   7.065  0.00  0.00    -0.215 N 
ATOM     12  C   UNL     1      10.634   6.803   5.186  0.00  0.00    +0.180 C 
ATOM     13  C   UNL     1      11.159   6.395   3.819  0.00  0.00    +0.141 C 
ATOM     14  C   UNL     1      12.851   7.774   5.775  0.00  0.00    +0.127 C 
ATOM     15  C   UNL     1      13.375   7.374   4.397  0.00  0.00    +0.128 C 
ATOM     16  C   UNL     1       9.807   5.727   5.869  0.00  0.00    +0.245 C 
ATOM     17  C   UNL     1      11.592   6.113   7.244  0.00  0.00    +0.312 C 
ENDROOT
BRANCH   9   1
ATOM      1  S   UNL     1      12.710   7.265   1.765  0.00  0.00    +0.067 S 
ATOM      5  O   UNL     1      13.899   8.070   1.583  0.00  0.00    -0.152 OA
ATOM      6  O   UNL     1      11.538   7.427   0.932  0.00  0.00    -0.152 OA
BRANCH   1  19
ATOM      2  S   UNL     1      12.113   4.667   0.564  0.00  0.00    -0.077 S 
ATOM     19  C   UNL     1      13.239   5.586   1.445  0.00  0.00    +0.143 A 
ATOM     21  C   UNL     1      14.367   4.908   1.773  0.00  0.00    +0.036 A 
ATOM     22  C   UNL     1      14.320   3.570   1.285  0.00  0.00    +0.010 A 
ATOM     23  C   UNL     1      13.150   3.306   0.609  0.00  0.00    +0.047 A 
ENDBRANCH   1  19
ENDBRANCH   9   1
BRANCH  10  18
ATOM     18  C   UNL     1       9.904   4.420   8.002  0.00  0.00    +0.213 C 
BRANCH  18  20
ATOM      7  O   UNL     1       8.693   6.012   9.366  0.00  0.00    -0.274 OA
ATOM     11  N   UNL     1      10.223   4.624  10.372  0.00  0.00    -0.328 N 
ATOM     20  C   UNL     1       9.514   5.103   9.293  0.00  0.00    +0.228 C 
ATOM     24  H   UNL     1      10.074   5.002  11.302  0.00  0.00    +0.145 HD
ATOM     25  H   UNL     1      10.915   3.885  10.288  0.00  0.00    +0.145 HD
ENDBRANCH  18  20
ENDBRANCH  10  18
TORSDOF 4
ENDMDL
MODEL 6
REMARK VINA RESULT:      -5.4     27.528     29.583
REMARK  Name = 7675143
REMARK  4 active torsions:
REMARK  status: ('A' for Active; 'I' for Inactive)
REMARK    1  A    between atoms: S_1  and  N_9
REMARK    2  A    between atoms: S_1  and  C_19
REMARK    3  A    between atoms: N_10  and  C_18
REMARK    4  A    between atoms: C_18  and  C_20
REMARK                            x       y       z     vdW  Elec       q    Type
REMARK                         _______ _______ _______ _____ _____    ______ ____
ROOT
ATOM      3  O   UNL     1      -6.032 -10.421  13.807  0.00  0.00    -0.273 OA
ATOM      4  O   UNL     1      -1.865 -10.821  11.874  0.00  0.00    -0.252 OA
ATOM      8  N   UNL     1      -3.806  -9.664  11.260  0.00  0.00    -0.271 N 
ATOM      9  N   UNL     1      -5.894  -9.267   9.445  0.00  0.00    -0.172 NA
ATOM     10  N   UNL     1      -3.822 -10.823  13.156  0.00  0.00    -0.215 N 
ATOM     12  C   UNL     1      -5.136  -9.442  11.776  0.00  0.00    +0.180 C 
ATOM     13  C   UNL     1      -6.179  -9.906  10.773  0.00  0.00    +0.141 C 
ATOM     14  C   UNL     1      -3.470  -9.151   9.946  0.00  0.00    +0.127 C 
ATOM     15  C   UNL     1      -4.522  -9.608   8.937  0.00  0.00    +0.128 C 
ATOM     16  C   UNL     1      -5.086 -10.282  13.041  0.00  0.00    +0.245 C 
ATOM     17  C   UNL     1      -3.021 -10.474  12.080  0.00  0.00    +0.312 C 
ENDROOT
BRANCH   9   1
ATOM      1  S   UNL     1      -7.151  -9.392   8.289  0.00  0.00    +0.067 S 
ATOM      5  O   UNL     1      -8.042 -10.459   8.694  0.00  0.00    -0.152 OA
ATOM      6  O   UNL     1      -6.581  -9.330   6.960  0.00  0.00    -0.152 OA
BRANCH   1  19
ATOM      2  S   UNL     1      -9.683  -8.151   9.064  0.00  0.00    -0.077 S 
ATOM     19  C   UNL     1      -8.136  -7.903   8.405  0.00  0.00    +0.143 A 
ATOM     21  C   UNL     1      -7.883  -6.614   8.067  0.00  0.00    +0.036 A 
ATOM     22  C   UNL     1      -9.000  -5.779   8.356  0.00  0.00    +0.010 A 
ATOM     23  C   UNL     1     -10.048  -6.487   8.901  0.00  0.00    +0.047 A 
ENDBRANCH   1  19
ENDBRANCH   9   1
BRANCH  10  18
ATOM     18  C   UNL     1      -3.394 -11.673  14.251  0.00  0.00    +0.213 C 
BRANCH  18  20
ATOM      7  O   UNL     1      -1.516 -10.794  15.501  0.00  0.00    -0.274 OA
ATOM     11  N   UNL     1      -3.643 -10.157  16.096  0.00  0.00    -0.328 N 
ATOM     20  C   UNL     1      -2.729 -10.833  15.318  0.00  0.00    +0.228 C 
ATOM     24  H   UNL     1      -3.338  -9.564  16.860  0.00  0.00    +0.145 HD
ATOM     25  H   UNL     1      -4.645 -10.219  15.941  0.00  0.00    +0.145 HD
ENDBRANCH  18  20
ENDBRANCH  10  18
TORSDOF 4
ENDMDL
MODEL 7
REMARK VINA RESULT:      -5.3     27.709     29.484
REMARK  Name = 7675143
REMARK  4 active torsions:
REMARK  status: ('A' for Active; 'I' for Inactive)
REMARK    1  A    between atoms: S_1  and  N_9
REMARK    2  A    between atoms: S_1  and  C_19
REMARK    3  A    between atoms: N_10  and  C_18
REMARK    4  A    between atoms: C_18  and  C_20
REMARK                            x       y       z     vdW  Elec       q    Type
REMARK                         _______ _______ _______ _____ _____    ______ ____
ROOT
ATOM      3  O   UNL     1      -8.864  -9.679  16.001  0.00  0.00    -0.273 OA
ATOM      4  O   UNL     1      -7.486 -11.736  19.889  0.00  0.00    -0.252 OA
ATOM      8  N   UNL     1      -6.348 -10.561  18.214  0.00  0.00    -0.271 N 
ATOM      9  N   UNL     1      -4.435 -10.530  16.177  0.00  0.00    -0.172 NA
ATOM     10  N   UNL     1      -8.553 -10.779  18.040  0.00  0.00    -0.215 N 
ATOM     12  C   UNL     1      -6.656  -9.863  16.989  0.00  0.00    +0.180 C 
ATOM     13  C   UNL     1      -5.893 -10.473  15.824  0.00  0.00    +0.141 C 
ATOM     14  C   UNL     1      -4.958 -10.734  18.590  0.00  0.00    +0.127 C 
ATOM     15  C   UNL     1      -4.186 -11.338  17.418  0.00  0.00    +0.128 C 
ATOM     16  C   UNL     1      -8.159 -10.080  16.917  0.00  0.00    +0.245 C 
ATOM     17  C   UNL     1      -7.470 -11.097  18.845  0.00  0.00    +0.312 C 
ENDROOT
BRANCH   9   1
ATOM      1  S   UNL     1      -3.380 -10.860  14.869  0.00  0.00    +0.067 S 
ATOM      5  O   UNL     1      -2.035 -10.494  15.260  0.00  0.00    -0.152 OA
ATOM      6  O   UNL     1      -3.981 -10.378  13.643  0.00  0.00    -0.152 OA
BRANCH   1  19
ATOM      2  S   UNL     1      -1.902 -13.200  13.925  0.00  0.00    -0.077 S 
ATOM     19  C   UNL     1      -3.329 -12.636  14.656  0.00  0.00    +0.143 A 
ATOM     21  C   UNL     1      -4.213 -13.616  14.966  0.00  0.00    +0.036 A 
ATOM     22  C   UNL     1      -3.711 -14.896  14.593  0.00  0.00    +0.010 A 
ATOM     23  C   UNL     1      -2.463 -14.814  14.015  0.00  0.00    +0.047 A 
ENDBRANCH   1  19
ENDBRANCH   9   1
BRANCH  10  18
ATOM     18  C   UNL     1      -9.923 -11.158  18.327  0.00  0.00    +0.213 C 
BRANCH  18  20
ATOM      7  O   UNL     1     -11.286  -9.165  18.509  0.00  0.00    -0.274 OA
ATOM     11  N   UNL     1     -10.375 -10.066  20.417  0.00  0.00    -0.328 N 
ATOM     20  C   UNL     1     -10.619 -10.034  19.061  0.00  0.00    +0.228 C 
ATOM     24  H   UNL     1     -10.769  -9.363  21.033  0.00  0.00    +0.145 HD
ATOM     25  H   UNL     1      -9.802 -10.782  20.853  0.00  0.00    +0.145 HD
ENDBRANCH  18  20
ENDBRANCH  10  18
TORSDOF 4
ENDMDL
MODEL 8
REMARK VINA RESULT:      -5.2     16.480     19.585
REMARK  Name = 7675143
REMARK  4 active torsions:
REMARK  status: ('A' for Active; 'I' for Inactive)
REMARK    1  A    between atoms: S_1  and  N_9
REMARK    2  A    between atoms: S_1  and  C_19
REMARK    3  A    between atoms: N_10  and  C_18
REMARK    4  A    between atoms: C_18  and  C_20
REMARK                            x       y       z     vdW  Elec       q    Type
REMARK                         _______ _______ _______ _____ _____    ______ ____
ROOT
ATOM      3  O   UNL     1       8.462   5.081   5.492  0.00  0.00    -0.273 OA
ATOM      4  O   UNL     1      11.657   7.912   7.234  0.00  0.00    -0.252 OA
ATOM      8  N   UNL     1      11.164   7.207   5.056  0.00  0.00    -0.271 N 
ATOM      9  N   UNL     1      11.943   5.869   2.729  0.00  0.00    -0.172 NA
ATOM     10  N   UNL     1       9.893   6.464   6.721  0.00  0.00    -0.215 N 
ATOM     12  C   UNL     1      10.200   6.364   4.389  0.00  0.00    +0.180 C 
ATOM     13  C   UNL     1      10.904   5.256   3.622  0.00  0.00    +0.141 C 
ATOM     14  C   UNL     1      12.251   7.775   4.282  0.00  0.00    +0.127 C 
ATOM     15  C   UNL     1      12.954   6.665   3.503  0.00  0.00    +0.128 C 
ATOM     16  C   UNL     1       9.394   5.869   5.579  0.00  0.00    +0.245 C 
ATOM     17  C   UNL     1      10.980   7.276   6.436  0.00  0.00    +0.312 C 
ENDROOT
BRANCH   9   1
ATOM      1  S   UNL     1      12.594   4.822   1.541  0.00  0.00    +0.067 S 
ATOM      5  O   UNL     1      12.471   3.459   2.013  0.00  0.00    -0.152 OA
ATOM      6  O   UNL     1      13.852   5.362   1.071  0.00  0.00    -0.152 OA
BRANCH   1  19
ATOM      2  S   UNL     1      10.556   6.303   0.057  0.00  0.00    -0.077 S 
ATOM     19  C   UNL     1      11.526   4.909   0.107  0.00  0.00    +0.143 A 
ATOM     21  C   UNL     1      11.343   4.073  -0.945  0.00  0.00    +0.036 A 
ATOM     22  C   UNL     1      10.365   4.586  -1.844  0.00  0.00    +0.010 A 
ATOM     23  C   UNL     1       9.855   5.794  -1.420  0.00  0.00    +0.047 A 
ENDBRANCH   1  19
ENDBRANCH   9   1
BRANCH  10  18
ATOM     18  C   UNL     1       9.364   6.243   8.053  0.00  0.00    +0.213 C 
BRANCH  18  20
ATOM      7  O   UNL     1      10.611   5.194   9.844  0.00  0.00    -0.274 OA
ATOM     11  N   UNL     1      10.244   4.014   7.906  0.00  0.00    -0.328 N 
ATOM     20  C   UNL     1      10.121   5.118   8.721  0.00  0.00    +0.228 C 
ATOM     24  H   UNL     1      10.740   3.187   8.221  0.00  0.00    +0.145 HD
ATOM     25  H   UNL     1       9.849   3.978   6.972  0.00  0.00    +0.145 HD
ENDBRANCH  18  20
ENDBRANCH  10  18
TORSDOF 4
ENDMDL
MODEL 9
REMARK VINA RESULT:      -5.1     27.668     29.281
REMARK  Name = 7675143
REMARK  4 active torsions:
REMARK  status: ('A' for Active; 'I' for Inactive)
REMARK    1  A    between atoms: S_1  and  N_9
REMARK    2  A    between atoms: S_1  and  C_19
REMARK    3  A    between atoms: N_10  and  C_18
REMARK    4  A    between atoms: C_18  and  C_20
REMARK                            x       y       z     vdW  Elec       q    Type
REMARK                         _______ _______ _______ _____ _____    ______ ____
ROOT
ATOM      3  O   UNL     1      -7.780  -9.284  16.844  0.00  0.00    -0.273 OA
ATOM      4  O   UNL     1      -4.348 -11.558  18.917  0.00  0.00    -0.252 OA
ATOM      8  N   UNL     1      -4.498 -10.397  16.889  0.00  0.00    -0.271 N 
ATOM      9  N   UNL     1      -4.380 -10.412  14.097  0.00  0.00    -0.172 NA
ATOM     10  N   UNL     1      -6.292 -10.473  18.200  0.00  0.00    -0.215 N 
ATOM     12  C   UNL     1      -5.482  -9.639  16.153  0.00  0.00    +0.180 C 
ATOM     13  C   UNL     1      -5.707 -10.253  14.781  0.00  0.00    +0.141 C 
ATOM     14  C   UNL     1      -3.216 -10.669  16.269  0.00  0.00    +0.127 C 
ATOM     15  C   UNL     1      -3.440 -11.277  14.885  0.00  0.00    +0.128 C 
ATOM     16  C   UNL     1      -6.678  -9.760  17.083  0.00  0.00    +0.245 C 
ATOM     17  C   UNL     1      -4.972 -10.885  18.107  0.00  0.00    +0.312 C 
ENDROOT
BRANCH   9   1
ATOM      1  S   UNL     1      -4.460 -10.760  12.422  0.00  0.00    +0.067 S 
ATOM      5  O   UNL     1      -3.424 -10.007  11.747  0.00  0.00    -0.152 OA
ATOM      6  O   UNL     1      -5.842 -10.717  11.995  0.00  0.00    -0.152 OA
BRANCH   1  19
ATOM      2  S   UNL     1      -5.280 -13.566  12.418  0.00  0.00    -0.077 S 
ATOM     19  C   UNL     1      -3.995 -12.474  12.208  0.00  0.00    +0.143 A 
ATOM     21  C   UNL     1      -2.812 -13.067  11.910  0.00  0.00    +0.036 A 
ATOM     22  C   UNL     1      -2.951 -14.484  11.848  0.00  0.00    +0.010 A 
ATOM     23  C   UNL     1      -4.242 -14.890  12.105  0.00  0.00    +0.047 A 
ENDBRANCH   1  19
ENDBRANCH   9   1
BRANCH  10  18
ATOM     18  C   UNL     1      -7.165 -10.776  19.317  0.00  0.00    +0.213 C 
BRANCH  18  20
ATOM      7  O   UNL     1      -9.178 -11.990  18.733  0.00  0.00    -0.274 OA
ATOM     11  N   UNL     1      -7.241 -13.167  19.111  0.00  0.00    -0.328 N 
ATOM     20  C   UNL     1      -7.981 -12.010  19.005  0.00  0.00    +0.228 C 
ATOM     24  H   UNL     1      -7.664 -14.074  18.942  0.00  0.00    +0.145 HD
ATOM     25  H   UNL     1      -6.256 -13.165  19.358  0.00  0.00    +0.145 HD
ENDBRANCH  18  20
ENDBRANCH  10  18
TORSDOF 4
ENDMDL
MODEL 10
REMARK VINA RESULT:      -5.1     28.219     29.675
REMARK  Name = 7675143
REMARK  4 active torsions:
REMARK  status: ('A' for Active; 'I' for Inactive)
REMARK    1  A    between atoms: S_1  and  N_9
REMARK    2  A    between atoms: S_1  and  C_19
REMARK    3  A    between atoms: N_10  and  C_18
REMARK    4  A    between atoms: C_18  and  C_20
REMARK                            x       y       z     vdW  Elec       q    Type
REMARK                         _______ _______ _______ _____ _____    ______ ____
ROOT
ATOM      3  O   UNL     1      -6.114  -9.301  11.568  0.00  0.00    -0.273 OA
ATOM      4  O   UNL     1      -1.835 -10.908  12.167  0.00  0.00    -0.252 OA
ATOM      8  N   UNL     1      -3.838 -11.224  13.338  0.00  0.00    -0.271 N 
ATOM      9  N   UNL     1      -5.313 -10.945  15.695  0.00  0.00    -0.172 NA
ATOM     10  N   UNL     1      -3.864  -9.935  11.528  0.00  0.00    -0.215 N 
ATOM     12  C   UNL     1      -5.218 -10.809  13.243  0.00  0.00    +0.180 C 
ATOM     13  C   UNL     1      -5.642 -10.084  14.510  0.00  0.00    +0.141 C 
ATOM     14  C   UNL     1      -3.415 -11.990  14.494  0.00  0.00    +0.127 C 
ATOM     15  C   UNL     1      -3.848 -11.269  15.769  0.00  0.00    +0.128 C 
ATOM     16  C   UNL     1      -5.154  -9.914  12.017  0.00  0.00    +0.245 C 
ATOM     17  C   UNL     1      -3.035 -10.716  12.318  0.00  0.00    +0.312 C 
ENDROOT
BRANCH   9   1
ATOM      1  S   UNL     1      -6.027 -10.456  17.173  0.00  0.00    +0.067 S 
ATOM      5  O   UNL     1      -6.856  -9.297  16.921  0.00  0.00    -0.152 OA
ATOM      6  O   UNL     1      -5.019 -10.469  18.212  0.00  0.00    -0.152 OA
BRANCH   1  19
ATOM      2  S   UNL     1      -8.470 -11.954  16.591  0.00  0.00    -0.077 S 
ATOM     19  C   UNL     1      -7.171 -11.741  17.666  0.00  0.00    +0.143 A 
ATOM     21  C   UNL     1      -7.199 -12.575  18.735  0.00  0.00    +0.036 A 
ATOM     22  C   UNL     1      -8.332 -13.436  18.684  0.00  0.00    +0.010 A 
ATOM     23  C   UNL     1      -9.108 -13.205  17.569  0.00  0.00    +0.047 A 
ENDBRANCH   1  19
ENDBRANCH   9   1
BRANCH  10  18
ATOM     18  C   UNL     1      -3.425  -9.209  10.351  0.00  0.00    +0.213 C 
BRANCH  18  20
ATOM      7  O   UNL     1      -4.208 -10.799   8.702  0.00  0.00    -0.274 OA
ATOM     11  N   UNL     1      -4.936  -8.622   8.580  0.00  0.00    -0.328 N 
ATOM     20  C   UNL     1      -4.225  -9.656   9.149  0.00  0.00    +0.228 C 
ATOM     24  H   UNL     1      -5.508  -8.775   7.756  0.00  0.00    +0.145 HD
ATOM     25  H   UNL     1      -4.920  -7.678   8.953  0.00  0.00    +0.145 HD
ENDBRANCH  18  20
ENDBRANCH  10  18
TORSDOF 4
ENDMDL
