MODEL 1
REMARK VINA RESULT:      -6.8      0.000      0.000
REMARK  Name = 7142399
REMARK  6 active torsions:
REMARK  status: ('A' for Active; 'I' for Inactive)
REMARK    1  A    between atoms: O_4  and  C_20
REMARK    2  A    between atoms: O_4  and  C_26
REMARK    3  A    between atoms: O_5  and  C_29
REMARK    4  A    between atoms: O_5  and  C_30
REMARK    5  A    between atoms: C_17  and  C_20
REMARK    6  A    between atoms: C_21  and  C_23
REMARK                            x       y       z     vdW  Elec       q    Type
REMARK                         _______ _______ _______ _____ _____    ______ ____
ROOT
ATOM      1  O   UNL     1      22.507   4.760  20.445  0.00  0.00    -0.273 OA
ATOM      2  O   UNL     1      19.495   8.692  22.293  0.00  0.00    -0.270 OA
ATOM      3  O   UNL     1      24.656   3.669  23.570  0.00  0.00    -0.273 OA
ATOM      6  N   UNL     1      20.887   6.847  22.415  0.00  0.00    -0.283 N 
ATOM      7  N   UNL     1      23.376   5.571  23.192  0.00  0.00    -0.296 N 
ATOM      8  N   UNL     1      20.392   5.389  19.889  0.00  0.00    -0.283 N 
ATOM      9  C   UNL     1      21.057   5.409  22.263  0.00  0.00    +0.180 C 
ATOM     10  C   UNL     1      22.109   4.834  23.219  0.00  0.00    +0.139 C 
ATOM     11  C   UNL     1      21.894   7.563  23.200  0.00  0.00    +0.128 C 
ATOM     12  C   UNL     1      23.294   7.016  22.963  0.00  0.00    +0.127 C 
ATOM     13  C   UNL     1      21.406   5.185  20.801  0.00  0.00    +0.239 C 
ATOM     14  C   UNL     1      19.738   7.518  22.005  0.00  0.00    +0.249 C 
ATOM     15  C   UNL     1      18.755   6.806  21.146  0.00  0.00    +0.059 A 
ATOM     16  C   UNL     1      19.102   5.912  20.120  0.00  0.00    +0.046 A 
ATOM     17  C   UNL     1      24.576   4.884  23.378  0.00  0.00    +0.241 C 
ATOM     18  C   UNL     1      17.415   7.212  21.280  0.00  0.00    +0.023 A 
ATOM     19  C   UNL     1      18.112   5.501  19.210  0.00  0.00    +0.024 A 
ATOM     21  C   UNL     1      16.436   6.757  20.399  0.00  0.00    -0.017 A 
ATOM     22  C   UNL     1      16.787   5.912  19.355  0.00  0.00    +0.010 A 
ATOM     31  H   UNL     1      20.566   5.027  18.954  0.00  0.00    +0.155 HD
ENDROOT
BRANCH  21  23
ATOM     23  C   UNL     1      15.062   7.183  20.557  0.00  0.00    -0.018 A 
ATOM     24  C   UNL     1      14.645   7.755  21.759  0.00  0.00    +0.012 A 
ATOM     25  C   UNL     1      14.157   7.021  19.510  0.00  0.00    +0.012 A 
ATOM     27  C   UNL     1      13.321   8.166  21.912  0.00  0.00    +0.046 A 
ATOM     28  C   UNL     1      12.832   7.432  19.663  0.00  0.00    +0.046 A 
ATOM     29  C   UNL     1      12.414   8.005  20.864  0.00  0.00    +0.120 A 
BRANCH  29   5
ATOM      5  O   UNL     1      11.122   8.406  21.014  0.00  0.00    -0.495 OA
ATOM     30  C   UNL     1      10.619   8.491  22.345  0.00  0.00    +0.277 C 
ENDBRANCH  29   5
ENDBRANCH  21  23
BRANCH  17  20
ATOM     20  C   UNL     1      25.833   5.717  23.337  0.00  0.00    +0.255 C 
BRANCH  20   4
ATOM      4  O   UNL     1      26.371   5.570  22.046  0.00  0.00    -0.374 OA
ATOM     26  C   UNL     1      26.959   6.778  21.568  0.00  0.00    +0.194 C 
ENDBRANCH  20   4
ENDBRANCH  17  20
TORSDOF 4
ENDMDL
MODEL 2
REMARK VINA RESULT:      -6.8     30.448     33.764
REMARK  Name = 7142399
REMARK  6 active torsions:
REMARK  status: ('A' for Active; 'I' for Inactive)
REMARK    1  A    between atoms: O_4  and  C_20
REMARK    2  A    between atoms: O_4  and  C_26
REMARK    3  A    between atoms: O_5  and  C_29
REMARK    4  A    between atoms: O_5  and  C_30
REMARK    5  A    between atoms: C_17  and  C_20
REMARK    6  A    between atoms: C_21  and  C_23
REMARK                            x       y       z     vdW  Elec       q    Type
REMARK                         _______ _______ _______ _____ _____    ______ ____
ROOT
ATOM      1  O   UNL     1     -13.976   4.295  22.174  0.00  0.00    -0.273 OA
ATOM      2  O   UNL     1     -14.526   9.534  22.617  0.00  0.00    -0.270 OA
ATOM      3  O   UNL     1     -17.688   2.968  22.003  0.00  0.00    -0.273 OA
ATOM      6  N   UNL     1     -15.179   7.364  22.151  0.00  0.00    -0.283 N 
ATOM      7  N   UNL     1     -16.838   5.034  22.645  0.00  0.00    -0.296 N 
ATOM      8  N   UNL     1     -12.669   5.990  21.400  0.00  0.00    -0.283 N 
ATOM      9  C   UNL     1     -15.120   6.215  21.260  0.00  0.00    +0.180 C 
ATOM     10  C   UNL     1     -16.405   5.378  21.288  0.00  0.00    +0.139 C 
ATOM     11  C   UNL     1     -16.270   7.402  23.126  0.00  0.00    +0.128 C 
ATOM     12  C   UNL     1     -16.575   6.024  23.693  0.00  0.00    +0.127 C 
ATOM     13  C   UNL     1     -13.893   5.423  21.682  0.00  0.00    +0.239 C 
ATOM     14  C   UNL     1     -14.364   8.482  21.996  0.00  0.00    +0.249 C 
ATOM     15  C   UNL     1     -13.212   8.409  21.058  0.00  0.00    +0.059 A 
ATOM     16  C   UNL     1     -12.400   7.277  20.888  0.00  0.00    +0.046 A 
ATOM     17  C   UNL     1     -17.463   3.808  22.877  0.00  0.00    +0.241 C 
ATOM     18  C   UNL     1     -12.836   9.623  20.453  0.00  0.00    +0.023 A 
ATOM     19  C   UNL     1     -11.194   7.404  20.176  0.00  0.00    +0.024 A 
ATOM     21  C   UNL     1     -11.662   9.720  19.709  0.00  0.00    -0.017 A 
ATOM     22  C   UNL     1     -10.833   8.613  19.582  0.00  0.00    +0.010 A 
ATOM     31  H   UNL     1     -11.869   5.366  21.480  0.00  0.00    +0.155 HD
ENDROOT
BRANCH  21  23
ATOM     23  C   UNL     1     -11.296  10.976  19.091  0.00  0.00    -0.018 A 
ATOM     24  C   UNL     1     -12.014  12.133  19.389  0.00  0.00    +0.012 A 
ATOM     25  C   UNL     1     -10.226  11.028  18.199  0.00  0.00    +0.012 A 
ATOM     27  C   UNL     1     -11.662  13.345  18.793  0.00  0.00    +0.046 A 
ATOM     28  C   UNL     1      -9.873  12.240  17.603  0.00  0.00    +0.046 A 
ATOM     29  C   UNL     1     -10.591  13.398  17.901  0.00  0.00    +0.120 A 
BRANCH  29   5
ATOM      5  O   UNL     1     -10.246  14.580  17.320  0.00  0.00    -0.495 OA
ATOM     30  C   UNL     1      -8.882  14.981  17.424  0.00  0.00    +0.277 C 
ENDBRANCH  29   5
ENDBRANCH  21  23
BRANCH  17  20
ATOM     20  C   UNL     1     -17.879   3.532  24.301  0.00  0.00    +0.255 C 
BRANCH  20   4
ATOM      4  O   UNL     1     -16.951   2.610  24.818  0.00  0.00    -0.374 OA
ATOM     26  C   UNL     1     -16.303   3.101  25.990  0.00  0.00    +0.194 C 
ENDBRANCH  20   4
ENDBRANCH  17  20
TORSDOF 4
ENDMDL
MODEL 3
REMARK VINA RESULT:      -6.6     28.367     32.915
REMARK  Name = 7142399
REMARK  6 active torsions:
REMARK  status: ('A' for Active; 'I' for Inactive)
REMARK    1  A    between atoms: O_4  and  C_20
REMARK    2  A    between atoms: O_4  and  C_26
REMARK    3  A    between atoms: O_5  and  C_29
REMARK    4  A    between atoms: O_5  and  C_30
REMARK    5  A    between atoms: C_17  and  C_20
REMARK    6  A    between atoms: C_21  and  C_23
REMARK                            x       y       z     vdW  Elec       q    Type
REMARK                         _______ _______ _______ _____ _____    ______ ____
ROOT
ATOM      1  O   UNL     1      -5.886  -9.547  15.079  0.00  0.00    -0.273 OA
ATOM      2  O   UNL     1      -7.127 -11.519  19.825  0.00  0.00    -0.270 OA
ATOM      3  O   UNL     1      -3.760 -12.413  13.393  0.00  0.00    -0.273 OA
ATOM      6  N   UNL     1      -6.413 -11.574  17.624  0.00  0.00    -0.283 N 
ATOM      7  N   UNL     1      -4.390 -12.086  15.606  0.00  0.00    -0.296 N 
ATOM      8  N   UNL     1      -7.738  -9.247  16.367  0.00  0.00    -0.283 N 
ATOM      9  C   UNL     1      -6.747 -11.499  16.209  0.00  0.00    +0.180 C 
ATOM     10  C   UNL     1      -5.808 -12.338  15.334  0.00  0.00    +0.139 C 
ATOM     11  C   UNL     1      -5.120 -12.161  17.978  0.00  0.00    +0.128 C 
ATOM     12  C   UNL     1      -4.029 -11.772  16.991  0.00  0.00    +0.127 C 
ATOM     13  C   UNL     1      -6.720 -10.021  15.853  0.00  0.00    +0.239 C 
ATOM     14  C   UNL     1      -7.328 -11.281  18.632  0.00  0.00    +0.249 C 
ATOM     15  C   UNL     1      -8.609 -10.617  18.272  0.00  0.00    +0.059 A 
ATOM     16  C   UNL     1      -8.734  -9.617  17.294  0.00  0.00    +0.046 A 
ATOM     17  C   UNL     1      -3.467 -12.150  14.561  0.00  0.00    +0.241 C 
ATOM     18  C   UNL     1      -9.705 -10.907  19.105  0.00  0.00    +0.023 A 
ATOM     19  C   UNL     1      -9.932  -8.883  17.220  0.00  0.00    +0.024 A 
ATOM     21  C   UNL     1     -10.902 -10.203  18.985  0.00  0.00    -0.017 A 
ATOM     22  C   UNL     1     -11.011  -9.181  18.052  0.00  0.00    +0.010 A 
ATOM     31  H   UNL     1      -7.838  -8.324  15.950  0.00  0.00    +0.155 HD
ENDROOT
BRANCH  21  23
ATOM     23  C   UNL     1     -12.020 -10.520  19.848  0.00  0.00    -0.018 A 
ATOM     24  C   UNL     1     -13.047  -9.593  20.025  0.00  0.00    +0.012 A 
ATOM     25  C   UNL     1     -12.069 -11.750  20.501  0.00  0.00    +0.012 A 
ATOM     27  C   UNL     1     -14.125  -9.898  20.857  0.00  0.00    +0.046 A 
ATOM     28  C   UNL     1     -13.147 -12.055  21.334  0.00  0.00    +0.046 A 
ATOM     29  C   UNL     1     -14.175 -11.129  21.511  0.00  0.00    +0.120 A 
BRANCH  29   5
ATOM      5  O   UNL     1     -15.226 -11.427  22.322  0.00  0.00    -0.495 OA
ATOM     30  C   UNL     1     -14.944 -12.174  23.504  0.00  0.00    +0.277 C 
ENDBRANCH  29   5
ENDBRANCH  21  23
BRANCH  17  20
ATOM     20  C   UNL     1      -2.029 -11.880  14.927  0.00  0.00    +0.255 C 
BRANCH  20   4
ATOM      4  O   UNL     1      -1.772 -10.541  14.580  0.00  0.00    -0.374 OA
ATOM     26  C   UNL     1      -1.028  -9.858  15.588  0.00  0.00    +0.194 C 
ENDBRANCH  20   4
ENDBRANCH  17  20
TORSDOF 4
ENDMDL
MODEL 4
REMARK VINA RESULT:      -6.6      2.111      3.146
REMARK  Name = 7142399
REMARK  6 active torsions:
REMARK  status: ('A' for Active; 'I' for Inactive)
REMARK    1  A    between atoms: O_4  and  C_20
REMARK    2  A    between atoms: O_4  and  C_26
REMARK    3  A    between atoms: O_5  and  C_29
REMARK    4  A    between atoms: O_5  and  C_30
REMARK    5  A    between atoms: C_17  and  C_20
REMARK    6  A    between atoms: C_21  and  C_23
REMARK                            x       y       z     vdW  Elec       q    Type
REMARK                         _______ _______ _______ _____ _____    ______ ____
ROOT
ATOM      1  O   UNL     1      21.948   8.245  22.787  0.00  0.00    -0.273 OA
ATOM      2  O   UNL     1      18.859   4.897  20.105  0.00  0.00    -0.270 OA
ATOM      3  O   UNL     1      25.431   7.996  20.947  0.00  0.00    -0.273 OA
ATOM      6  N   UNL     1      20.702   6.244  20.483  0.00  0.00    -0.283 N 
ATOM      7  N   UNL     1      23.556   6.625  20.851  0.00  0.00    -0.296 N 
ATOM      8  N   UNL     1      19.718   8.324  22.343  0.00  0.00    -0.283 N 
ATOM      9  C   UNL     1      21.262   7.585  20.568  0.00  0.00    +0.180 C 
ATOM     10  C   UNL     1      22.742   7.635  20.168  0.00  0.00    +0.139 C 
ATOM     11  C   UNL     1      21.642   5.133  20.329  0.00  0.00    +0.128 C 
ATOM     12  C   UNL     1      22.910   5.343  21.143  0.00  0.00    +0.127 C 
ATOM     13  C   UNL     1      21.023   8.046  21.997  0.00  0.00    +0.239 C 
ATOM     14  C   UNL     1      19.336   6.003  20.367  0.00  0.00    +0.249 C 
ATOM     15  C   UNL     1      18.384   7.122  20.599  0.00  0.00    +0.059 A 
ATOM     16  C   UNL     1      18.549   8.110  21.583  0.00  0.00    +0.046 A 
ATOM     17  C   UNL     1      24.878   6.921  21.188  0.00  0.00    +0.241 C 
ATOM     18  C   UNL     1      17.171   7.052  19.890  0.00  0.00    +0.023 A 
ATOM     19  C   UNL     1      17.469   8.959  21.883  0.00  0.00    +0.024 A 
ATOM     21  C   UNL     1      16.127   7.934  20.166  0.00  0.00    -0.017 A 
ATOM     22  C   UNL     1      16.271   8.879  21.173  0.00  0.00    +0.010 A 
ATOM     31  H   UNL     1      19.596   8.836  23.214  0.00  0.00    +0.155 HD
ENDROOT
BRANCH  21  23
ATOM     23  C   UNL     1      14.889   7.848  19.422  0.00  0.00    -0.018 A 
ATOM     24  C   UNL     1      13.923   6.910  19.784  0.00  0.00    +0.012 A 
ATOM     25  C   UNL     1      14.663   8.703  18.345  0.00  0.00    +0.012 A 
ATOM     27  C   UNL     1      12.729   6.827  19.068  0.00  0.00    +0.046 A 
ATOM     28  C   UNL     1      13.468   8.620  17.627  0.00  0.00    +0.046 A 
ATOM     29  C   UNL     1      12.502   7.682  17.989  0.00  0.00    +0.120 A 
BRANCH  29   5
ATOM      5  O   UNL     1      11.336   7.601  17.290  0.00  0.00    -0.495 OA
ATOM     30  C   UNL     1      10.957   8.745  16.527  0.00  0.00    +0.277 C 
ENDBRANCH  29   5
ENDBRANCH  21  23
BRANCH  17  20
ATOM     20  C   UNL     1      25.647   5.826  21.886  0.00  0.00    +0.255 C 
BRANCH  20   4
ATOM      4  O   UNL     1      26.795   5.585  21.110  0.00  0.00    -0.374 OA
ATOM     26  C   UNL     1      26.509   4.788  19.962  0.00  0.00    +0.194 C 
ENDBRANCH  20   4
ENDBRANCH  17  20
TORSDOF 4
ENDMDL
MODEL 5
REMARK VINA RESULT:      -6.6     35.417     36.834
REMARK  Name = 7142399
REMARK  6 active torsions:
REMARK  status: ('A' for Active; 'I' for Inactive)
REMARK    1  A    between atoms: O_4  and  C_20
REMARK    2  A    between atoms: O_4  and  C_26
REMARK    3  A    between atoms: O_5  and  C_29
REMARK    4  A    between atoms: O_5  and  C_30
REMARK    5  A    between atoms: C_17  and  C_20
REMARK    6  A    between atoms: C_21  and  C_23
REMARK                            x       y       z     vdW  Elec       q    Type
REMARK                         _______ _______ _______ _____ _____    ______ ____
ROOT
ATOM      1  O   UNL     1     -16.837   2.380  23.715  0.00  0.00    -0.273 OA
ATOM      2  O   UNL     1     -17.856   5.682  27.715  0.00  0.00    -0.270 OA
ATOM      3  O   UNL     1     -15.784   4.773  20.759  0.00  0.00    -0.273 OA
ATOM      6  N   UNL     1     -16.991   5.028  25.671  0.00  0.00    -0.283 N 
ATOM      7  N   UNL     1     -16.845   5.222  22.778  0.00  0.00    -0.296 N 
ATOM      8  N   UNL     1     -16.559   2.115  25.958  0.00  0.00    -0.283 N 
ATOM      9  C   UNL     1     -15.983   4.282  24.931  0.00  0.00    +0.180 C 
ATOM     10  C   UNL     1     -15.653   4.917  23.575  0.00  0.00    +0.139 C 
ATOM     11  C   UNL     1     -17.735   6.055  24.941  0.00  0.00    +0.128 C 
ATOM     12  C   UNL     1     -18.045   5.628  23.514  0.00  0.00    +0.127 C 
ATOM     13  C   UNL     1     -16.524   2.867  24.803  0.00  0.00    +0.239 C 
ATOM     14  C   UNL     1     -17.144   4.926  27.051  0.00  0.00    +0.249 C 
ATOM     15  C   UNL     1     -16.443   3.833  27.775  0.00  0.00    +0.059 A 
ATOM     16  C   UNL     1     -16.283   2.529  27.278  0.00  0.00    +0.046 A 
ATOM     17  C   UNL     1     -16.789   5.114  21.387  0.00  0.00    +0.241 C 
ATOM     18  C   UNL     1     -16.088   4.110  29.108  0.00  0.00    +0.023 A 
ATOM     19  C   UNL     1     -15.838   1.519  28.148  0.00  0.00    +0.024 A 
ATOM     21  C   UNL     1     -15.601   3.106  29.944  0.00  0.00    -0.017 A 
ATOM     22  C   UNL     1     -15.490   1.807  29.468  0.00  0.00    +0.010 A 
ATOM     31  H   UNL     1     -16.708   1.118  25.826  0.00  0.00    +0.155 HD
ENDROOT
BRANCH  21  23
ATOM     23  C   UNL     1     -15.237   3.412  31.310  0.00  0.00    -0.018 A 
ATOM     24  C   UNL     1     -15.188   2.394  32.262  0.00  0.00    +0.012 A 
ATOM     25  C   UNL     1     -14.936   4.723  31.674  0.00  0.00    +0.012 A 
ATOM     27  C   UNL     1     -14.837   2.689  33.579  0.00  0.00    +0.046 A 
ATOM     28  C   UNL     1     -14.585   5.019  32.992  0.00  0.00    +0.046 A 
ATOM     29  C   UNL     1     -14.535   4.001  33.944  0.00  0.00    +0.120 A 
BRANCH  29   5
ATOM      5  O   UNL     1     -14.192   4.289  35.230  0.00  0.00    -0.495 OA
ATOM     30  C   UNL     1     -13.832   5.638  35.519  0.00  0.00    +0.277 C 
ENDBRANCH  29   5
ENDBRANCH  21  23
BRANCH  17  20
ATOM     20  C   UNL     1     -18.058   5.448  20.643  0.00  0.00    +0.255 C 
BRANCH  20   4
ATOM      4  O   UNL     1     -18.180   4.497  19.613  0.00  0.00    -0.374 OA
ATOM     26  C   UNL     1     -19.042   3.420  19.977  0.00  0.00    +0.194 C 
ENDBRANCH  20   4
ENDBRANCH  17  20
TORSDOF 4
ENDMDL
MODEL 6
REMARK VINA RESULT:      -6.5     28.802     33.723
REMARK  Name = 7142399
REMARK  6 active torsions:
REMARK  status: ('A' for Active; 'I' for Inactive)
REMARK    1  A    between atoms: O_4  and  C_20
REMARK    2  A    between atoms: O_4  and  C_26
REMARK    3  A    between atoms: O_5  and  C_29
REMARK    4  A    between atoms: O_5  and  C_30
REMARK    5  A    between atoms: C_17  and  C_20
REMARK    6  A    between atoms: C_21  and  C_23
REMARK                            x       y       z     vdW  Elec       q    Type
REMARK                         _______ _______ _______ _____ _____    ______ ____
ROOT
ATOM      1  O   UNL     1      -9.773 -10.788  20.510  0.00  0.00    -0.273 OA
ATOM      2  O   UNL     1      -8.813  -8.849  15.687  0.00  0.00    -0.270 OA
ATOM      3  O   UNL     1     -13.294 -12.532  20.143  0.00  0.00    -0.273 OA
ATOM      6  N   UNL     1      -9.850 -10.178  17.272  0.00  0.00    -0.283 N 
ATOM      7  N   UNL     1     -12.193 -11.018  18.765  0.00  0.00    -0.296 N 
ATOM      8  N   UNL     1      -7.811 -10.517  19.389  0.00  0.00    -0.283 N 
ATOM      9  C   UNL     1      -9.786 -11.332  18.157  0.00  0.00    +0.180 C 
ATOM     10  C   UNL     1     -11.156 -11.981  18.384  0.00  0.00    +0.139 C 
ATOM     11  C   UNL     1     -11.176  -9.636  16.971  0.00  0.00    +0.128 C 
ATOM     12  C   UNL     1     -12.096  -9.677  18.182  0.00  0.00    +0.127 C 
ATOM     13  C   UNL     1      -9.152 -10.832  19.446  0.00  0.00    +0.239 C 
ATOM     14  C   UNL     1      -8.743  -9.696  16.578  0.00  0.00    +0.249 C 
ATOM     15  C   UNL     1      -7.391 -10.198  16.941  0.00  0.00    +0.059 A 
ATOM     16  C   UNL     1      -6.973 -10.468  18.255  0.00  0.00    +0.046 A 
ATOM     17  C   UNL     1     -13.203 -11.407  19.647  0.00  0.00    +0.241 C 
ATOM     18  C   UNL     1      -6.446 -10.223  15.899  0.00  0.00    +0.023 A 
ATOM     19  C   UNL     1      -5.606 -10.686  18.503  0.00  0.00    +0.024 A 
ATOM     21  C   UNL     1      -5.102 -10.489  16.157  0.00  0.00    -0.017 A 
ATOM     22  C   UNL     1      -4.680 -10.707  17.461  0.00  0.00    +0.010 A 
ATOM     31  H   UNL     1      -7.351 -10.400  20.288  0.00  0.00    +0.155 HD
ENDROOT
BRANCH  21  23
ATOM     23  C   UNL     1      -4.146 -10.515  15.071  0.00  0.00    -0.018 A 
ATOM     24  C   UNL     1      -4.591 -10.453  13.750  0.00  0.00    +0.012 A 
ATOM     25  C   UNL     1      -2.782 -10.602  15.344  0.00  0.00    +0.012 A 
ATOM     27  C   UNL     1      -3.671 -10.478  12.703  0.00  0.00    +0.046 A 
ATOM     28  C   UNL     1      -1.861 -10.627  14.296  0.00  0.00    +0.046 A 
ATOM     29  C   UNL     1      -2.305 -10.564  12.976  0.00  0.00    +0.120 A 
BRANCH  29   5
ATOM      5  O   UNL     1      -1.407 -10.588  11.953  0.00  0.00    -0.495 OA
ATOM     30  C   UNL     1      -1.165  -9.358  11.273  0.00  0.00    +0.277 C 
ENDBRANCH  29   5
ENDBRANCH  21  23
BRANCH  17  20
ATOM     20  C   UNL     1     -14.231 -10.357  19.986  0.00  0.00    +0.255 C 
BRANCH  20   4
ATOM      4  O   UNL     1     -15.407 -11.045  20.336  0.00  0.00    -0.374 OA
ATOM     26  C   UNL     1     -15.892 -10.658  21.620  0.00  0.00    +0.194 C 
ENDBRANCH  20   4
ENDBRANCH  17  20
TORSDOF 4
ENDMDL
MODEL 7
REMARK VINA RESULT:      -6.5     29.575     31.873
REMARK  Name = 7142399
REMARK  6 active torsions:
REMARK  status: ('A' for Active; 'I' for Inactive)
REMARK    1  A    between atoms: O_4  and  C_20
REMARK    2  A    between atoms: O_4  and  C_26
REMARK    3  A    between atoms: O_5  and  C_29
REMARK    4  A    between atoms: O_5  and  C_30
REMARK    5  A    between atoms: C_17  and  C_20
REMARK    6  A    between atoms: C_21  and  C_23
REMARK                            x       y       z     vdW  Elec       q    Type
REMARK                         _______ _______ _______ _____ _____    ______ ____
ROOT
ATOM      1  O   UNL     1      -2.998 -10.650  16.015  0.00  0.00    -0.273 OA
ATOM      2  O   UNL     1      -7.050  -9.239  12.927  0.00  0.00    -0.270 OA
ATOM      3  O   UNL     1      -4.675 -12.857  18.823  0.00  0.00    -0.273 OA
ATOM      6  N   UNL     1      -5.939 -10.475  14.537  0.00  0.00    -0.283 N 
ATOM      7  N   UNL     1      -5.609 -11.405  17.267  0.00  0.00    -0.296 N 
ATOM      8  N   UNL     1      -3.088 -10.278  13.772  0.00  0.00    -0.283 N 
ATOM      9  C   UNL     1      -4.943 -11.488  14.856  0.00  0.00    +0.180 C 
ATOM     10  C   UNL     1      -5.282 -12.271  16.130  0.00  0.00    +0.139 C 
ATOM     11  C   UNL     1      -6.919 -10.148  15.574  0.00  0.00    +0.128 C 
ATOM     12  C   UNL     1      -6.300 -10.149  16.963  0.00  0.00    +0.127 C 
ATOM     13  C   UNL     1      -3.617 -10.750  14.954  0.00  0.00    +0.239 C 
ATOM     14  C   UNL     1      -6.099  -9.950  13.257  0.00  0.00    +0.249 C 
ATOM     15  C   UNL     1      -5.060 -10.226  12.230  0.00  0.00    +0.059 A 
ATOM     16  C   UNL     1      -3.680 -10.269  12.492  0.00  0.00    +0.046 A 
ATOM     17  C   UNL     1      -5.256 -11.803  18.557  0.00  0.00    +0.241 C 
ATOM     18  C   UNL     1      -5.509 -10.264  10.898  0.00  0.00    +0.023 A 
ATOM     19  C   UNL     1      -2.782 -10.279  11.410  0.00  0.00    +0.024 A 
ATOM     21  C   UNL     1      -4.606 -10.323   9.837  0.00  0.00    -0.017 A 
ATOM     22  C   UNL     1      -3.242 -10.316  10.093  0.00  0.00    +0.010 A 
ATOM     31  H   UNL     1      -2.113  -9.990  13.813  0.00  0.00    +0.155 HD
ENDROOT
BRANCH  21  23
ATOM     23  C   UNL     1      -5.089 -10.367   8.475  0.00  0.00    -0.018 A 
ATOM     24  C   UNL     1      -4.565 -11.299   7.580  0.00  0.00    +0.012 A 
ATOM     25  C   UNL     1      -6.077  -9.478   8.056  0.00  0.00    +0.012 A 
ATOM     27  C   UNL     1      -5.030 -11.342   6.265  0.00  0.00    +0.046 A 
ATOM     28  C   UNL     1      -6.543  -9.520   6.741  0.00  0.00    +0.046 A 
ATOM     29  C   UNL     1      -6.019 -10.452   5.846  0.00  0.00    +0.120 A 
BRANCH  29   5
ATOM      5  O   UNL     1      -6.473 -10.494   4.563  0.00  0.00    -0.495 OA
ATOM     30  C   UNL     1      -6.284 -11.713   3.847  0.00  0.00    +0.277 C 
ENDBRANCH  29   5
ENDBRANCH  21  23
BRANCH  17  20
ATOM     20  C   UNL     1      -5.631 -10.856  19.671  0.00  0.00    +0.255 C 
BRANCH  20   4
ATOM      4  O   UNL     1      -6.546 -11.543  20.490  0.00  0.00    -0.374 OA
ATOM     26  C   UNL     1      -7.638 -12.077  19.744  0.00  0.00    +0.194 C 
ENDBRANCH  20   4
ENDBRANCH  17  20
TORSDOF 4
ENDMDL
MODEL 8
REMARK VINA RESULT:      -6.5     28.629     32.587
REMARK  Name = 7142399
REMARK  6 active torsions:
REMARK  status: ('A' for Active; 'I' for Inactive)
REMARK    1  A    between atoms: O_4  and  C_20
REMARK    2  A    between atoms: O_4  and  C_26
REMARK    3  A    between atoms: O_5  and  C_29
REMARK    4  A    between atoms: O_5  and  C_30
REMARK    5  A    between atoms: C_17  and  C_20
REMARK    6  A    between atoms: C_21  and  C_23
REMARK                            x       y       z     vdW  Elec       q    Type
REMARK                         _______ _______ _______ _____ _____    ______ ____
ROOT
ATOM      1  O   UNL     1      -4.559  -9.551  12.257  0.00  0.00    -0.273 OA
ATOM      2  O   UNL     1      -4.174 -13.962   9.368  0.00  0.00    -0.270 OA
ATOM      3  O   UNL     1      -1.449  -9.734  14.679  0.00  0.00    -0.273 OA
ATOM      6  N   UNL     1      -3.448 -12.284  10.787  0.00  0.00    -0.283 N 
ATOM      7  N   UNL     1      -2.440 -11.362  13.348  0.00  0.00    -0.296 N 
ATOM      8  N   UNL     1      -5.140  -9.958  10.095  0.00  0.00    -0.283 N 
ATOM      9  C   UNL     1      -3.032 -10.900  10.961  0.00  0.00    +0.180 C 
ATOM     10  C   UNL     1      -2.018 -10.725  12.098  0.00  0.00    +0.139 C 
ATOM     11  C   UNL     1      -3.098 -13.228  11.849  0.00  0.00    +0.128 C 
ATOM     12  C   UNL     1      -3.215 -12.600  13.230  0.00  0.00    +0.127 C 
ATOM     13  C   UNL     1      -4.310 -10.107  11.185  0.00  0.00    +0.239 C 
ATOM     14  C   UNL     1      -3.993 -12.765   9.599  0.00  0.00    +0.249 C 
ATOM     15  C   UNL     1      -4.415 -11.794   8.555  0.00  0.00    +0.059 A 
ATOM     16  C   UNL     1      -5.028 -10.559   8.823  0.00  0.00    +0.046 A 
ATOM     17  C   UNL     1      -2.099 -10.776  14.568  0.00  0.00    +0.241 C 
ATOM     18  C   UNL     1      -4.341 -12.251   7.226  0.00  0.00    +0.023 A 
ATOM     19  C   UNL     1      -5.615  -9.846   7.763  0.00  0.00    +0.024 A 
ATOM     21  C   UNL     1      -4.885 -11.508   6.181  0.00  0.00    -0.017 A 
ATOM     22  C   UNL     1      -5.535 -10.311   6.451  0.00  0.00    +0.010 A 
ATOM     31  H   UNL     1      -5.866  -9.252  10.191  0.00  0.00    +0.155 HD
ENDROOT
BRANCH  21  23
ATOM     23  C   UNL     1      -4.794 -11.993   4.821  0.00  0.00    -0.018 A 
ATOM     24  C   UNL     1      -5.947 -12.113   4.046  0.00  0.00    +0.012 A 
ATOM     25  C   UNL     1      -3.555 -12.342   4.287  0.00  0.00    +0.012 A 
ATOM     27  C   UNL     1      -5.861 -12.581   2.735  0.00  0.00    +0.046 A 
ATOM     28  C   UNL     1      -3.468 -12.811   2.975  0.00  0.00    +0.046 A 
ATOM     29  C   UNL     1      -4.621 -12.930   2.199  0.00  0.00    +0.120 A 
BRANCH  29   5
ATOM      5  O   UNL     1      -4.536 -13.386   0.920  0.00  0.00    -0.495 OA
ATOM     30  C   UNL     1      -3.409 -12.964   0.153  0.00  0.00    +0.277 C 
ENDBRANCH  29   5
ENDBRANCH  21  23
BRANCH  17  20
ATOM     20  C   UNL     1      -2.571 -11.496  15.807  0.00  0.00    +0.255 C 
BRANCH  20   4
ATOM      4  O   UNL     1      -3.244 -10.544  16.593  0.00  0.00    -0.374 OA
ATOM     26  C   UNL     1      -4.643 -10.511  16.314  0.00  0.00    +0.194 C 
ENDBRANCH  20   4
ENDBRANCH  17  20
TORSDOF 4
ENDMDL
MODEL 9
REMARK VINA RESULT:      -6.4     34.257     35.784
REMARK  Name = 7142399
REMARK  6 active torsions:
REMARK  status: ('A' for Active; 'I' for Inactive)
REMARK    1  A    between atoms: O_4  and  C_20
REMARK    2  A    between atoms: O_4  and  C_26
REMARK    3  A    between atoms: O_5  and  C_29
REMARK    4  A    between atoms: O_5  and  C_30
REMARK    5  A    between atoms: C_17  and  C_20
REMARK    6  A    between atoms: C_21  and  C_23
REMARK                            x       y       z     vdW  Elec       q    Type
REMARK                         _______ _______ _______ _____ _____    ______ ____
ROOT
ATOM      1  O   UNL     1     -14.349  10.568  34.546  0.00  0.00    -0.273 OA
ATOM      2  O   UNL     1     -13.667   5.438  35.629  0.00  0.00    -0.270 OA
ATOM      3  O   UNL     1     -11.045  12.262  35.881  0.00  0.00    -0.273 OA
ATOM      6  N   UNL     1     -13.036   7.642  35.307  0.00  0.00    -0.283 N 
ATOM      7  N   UNL     1     -11.936  10.150  36.267  0.00  0.00    -0.296 N 
ATOM      8  N   UNL     1     -15.057   8.714  33.432  0.00  0.00    -0.283 N 
ATOM      9  C   UNL     1     -12.783   8.737  34.383  0.00  0.00    +0.180 C 
ATOM     10  C   UNL     1     -11.705   9.703  34.891  0.00  0.00    +0.139 C 
ATOM     11  C   UNL     1     -12.482   7.760  36.657  0.00  0.00    +0.128 C 
ATOM     12  C   UNL     1     -12.558   9.187  37.180  0.00  0.00    +0.127 C 
ATOM     13  C   UNL     1     -14.125   9.417  34.165  0.00  0.00    +0.239 C 
ATOM     14  C   UNL     1     -13.617   6.440  34.912  0.00  0.00    +0.249 C 
ATOM     15  C   UNL     1     -14.244   6.351  33.566  0.00  0.00    +0.059 A 
ATOM     16  C   UNL     1     -14.981   7.385  32.966  0.00  0.00    +0.046 A 
ATOM     17  C   UNL     1     -11.567  11.444  36.641  0.00  0.00    +0.241 C 
ATOM     18  C   UNL     1     -14.227   5.079  32.964  0.00  0.00    +0.023 A 
ATOM     19  C   UNL     1     -15.740   7.102  31.817  0.00  0.00    +0.024 A 
ATOM     21  C   UNL     1     -14.947   4.828  31.797  0.00  0.00    -0.017 A 
ATOM     22  C   UNL     1     -15.715   5.836  31.231  0.00  0.00    +0.010 A 
ATOM     31  H   UNL     1     -15.855   9.255  33.106  0.00  0.00    +0.155 HD
ENDROOT
BRANCH  21  23
ATOM     23  C   UNL     1     -14.913   3.515  31.192  0.00  0.00    -0.018 A 
ATOM     24  C   UNL     1     -16.024   3.041  30.494  0.00  0.00    +0.012 A 
ATOM     25  C   UNL     1     -13.771   2.724  31.306  0.00  0.00    +0.012 A 
ATOM     27  C   UNL     1     -15.992   1.775  29.910  0.00  0.00    +0.046 A 
ATOM     28  C   UNL     1     -13.739   1.456  30.722  0.00  0.00    +0.046 A 
ATOM     29  C   UNL     1     -14.849   0.982  30.024  0.00  0.00    +0.120 A 
BRANCH  29   5
ATOM      5  O   UNL     1     -14.817  -0.253  29.454  0.00  0.00    -0.495 OA
ATOM     30  C   UNL     1     -13.539  -0.871  29.313  0.00  0.00    +0.277 C 
ENDBRANCH  29   5
ENDBRANCH  21  23
BRANCH  17  20
ATOM     20  C   UNL     1     -11.838  11.824  38.076  0.00  0.00    +0.255 C 
BRANCH  20   4
ATOM      4  O   UNL     1     -12.814  12.837  38.044  0.00  0.00    -0.374 OA
ATOM     26  C   UNL     1     -13.754  12.709  39.109  0.00  0.00    +0.194 C 
ENDBRANCH  20   4
ENDBRANCH  17  20
TORSDOF 4
ENDMDL
MODEL 10
REMARK VINA RESULT:      -6.4     15.954     19.804
REMARK  Name = 7142399
REMARK  6 active torsions:
REMARK  status: ('A' for Active; 'I' for Inactive)
REMARK    1  A    between atoms: O_4  and  C_20
REMARK    2  A    between atoms: O_4  and  C_26
REMARK    3  A    between atoms: O_5  and  C_29
REMARK    4  A    between atoms: O_5  and  C_30
REMARK    5  A    between atoms: C_17  and  C_20
REMARK    6  A    between atoms: C_21  and  C_23
REMARK                            x       y       z     vdW  Elec       q    Type
REMARK                         _______ _______ _______ _____ _____    ______ ____
ROOT
ATOM      1  O   UNL     1       9.257   8.078   8.454  0.00  0.00    -0.273 OA
ATOM      2  O   UNL     1      13.372   7.856   5.143  0.00  0.00    -0.270 OA
ATOM      3  O   UNL     1       8.592  11.945   8.876  0.00  0.00    -0.273 OA
ATOM      6  N   UNL     1      11.569   8.821   6.225  0.00  0.00    -0.283 N 
ATOM      7  N   UNL     1      10.421  10.800   8.012  0.00  0.00    -0.296 N 
ATOM      8  N   UNL     1       9.794   6.542   6.864  0.00  0.00    -0.283 N 
ATOM      9  C   UNL     1      10.125   8.935   6.370  0.00  0.00    +0.180 C 
ATOM     10  C   UNL     1       9.685  10.327   6.837  0.00  0.00    +0.139 C 
ATOM     11  C   UNL     1      12.387   9.891   6.798  0.00  0.00    +0.128 C 
ATOM     12  C   UNL     1      11.824  10.391   8.120  0.00  0.00    +0.127 C 
ATOM     13  C   UNL     1       9.716   7.834   7.336  0.00  0.00    +0.239 C 
ATOM     14  C   UNL     1      12.173   7.852   5.429  0.00  0.00    +0.249 C 
ATOM     15  C   UNL     1      11.349   6.728   4.911  0.00  0.00    +0.059 A 
ATOM     16  C   UNL     1      10.333   6.090   5.641  0.00  0.00    +0.046 A 
ATOM     17  C   UNL     1       9.772  11.596   8.957  0.00  0.00    +0.241 C 
ATOM     18  C   UNL     1      11.760   6.182   3.681  0.00  0.00    +0.023 A 
ATOM     19  C   UNL     1       9.802   4.882   5.156  0.00  0.00    +0.024 A 
ATOM     21  C   UNL     1      11.188   5.009   3.190  0.00  0.00    -0.017 A 
ATOM     22  C   UNL     1      10.219   4.351   3.935  0.00  0.00    +0.010 A 
ATOM     31  H   UNL     1       9.317   5.841   7.426  0.00  0.00    +0.155 HD
ENDROOT
BRANCH  21  23
ATOM     23  C   UNL     1      11.621   4.466   1.921  0.00  0.00    -0.018 A 
ATOM     24  C   UNL     1      12.866   3.846   1.818  0.00  0.00    +0.012 A 
ATOM     25  C   UNL     1      10.795   4.564   0.803  0.00  0.00    +0.012 A 
ATOM     27  C   UNL     1      13.284   3.322   0.594  0.00  0.00    +0.046 A 
ATOM     28  C   UNL     1      11.213   4.040  -0.422  0.00  0.00    +0.046 A 
ATOM     29  C   UNL     1      12.458   3.419  -0.525  0.00  0.00    +0.120 A 
BRANCH  29   5
ATOM      5  O   UNL     1      12.866   2.908  -1.719  0.00  0.00    -0.495 OA
ATOM     30  C   UNL     1      11.896   2.195  -2.485  0.00  0.00    +0.277 C 
ENDBRANCH  29   5
ENDBRANCH  21  23
BRANCH  17  20
ATOM     20  C   UNL     1      10.602  12.041  10.135  0.00  0.00    +0.255 C 
BRANCH  20   4
ATOM      4  O   UNL     1       9.896  11.659  11.290  0.00  0.00    -0.374 OA
ATOM     26  C   UNL     1      10.601  11.993  12.485  0.00  0.00    +0.194 C 
ENDBRANCH  20   4
ENDBRANCH  17  20
TORSDOF 4
ENDMDL
