MODEL 1
REMARK VINA RESULT:      -7.9      0.000      0.000
REMARK  Name = 7113917
REMARK  6 active torsions:
REMARK  status: ('A' for Active; 'I' for Inactive)
REMARK    1  A    between atoms: S_2  and  N_11
REMARK    2  A    between atoms: S_2  and  C_29
REMARK    3  A    between atoms: O_7  and  C_33
REMARK    4  A    between atoms: N_11  and  C_22
REMARK    5  A    between atoms: C_21  and  C_24
REMARK    6  A    between atoms: C_27  and  C_33
REMARK                            x       y       z     vdW  Elec       q    Type
REMARK                         _______ _______ _______ _____ _____    ______ ____
ROOT
ATOM      3  O   UNL     1      12.279   8.364   2.044  0.00  0.00    -0.266 OA
ATOM      4  O   UNL     1      13.019   7.674   7.125  0.00  0.00    -0.270 OA
ATOM      9  N   UNL     1      11.121   9.017   6.861  0.00  0.00    -0.297 N 
ATOM     10  N   UNL     1      10.814   9.127   3.706  0.00  0.00    -0.310 N 
ATOM     12  C   UNL     1      11.427  10.980   5.363  0.00  0.00    +0.027 C 
ATOM     13  C   UNL     1       9.227   9.886   5.510  0.00  0.00    +0.054 C 
ATOM     14  C   UNL     1       9.926  11.240   5.410  0.00  0.00    +0.018 C 
ATOM     15  C   UNL     1      11.886  10.243   6.635  0.00  0.00    +0.113 C 
ATOM     16  C   UNL     1      11.752  10.191   4.089  0.00  0.00    +0.130 C 
ATOM     17  C   UNL     1       9.659   9.177   6.811  0.00  0.00    +0.117 C 
ATOM     18  C   UNL     1       9.559   9.009   4.318  0.00  0.00    +0.027 A 
ATOM     19  C   UNL     1       8.668   8.102   3.876  0.00  0.00    +0.024 A 
ATOM     20  C   UNL     1      11.198   8.299   2.630  0.00  0.00    +0.274 A 
ATOM     21  C   UNL     1      11.798   7.815   7.082  0.00  0.00    +0.247 C 
ATOM     22  C   UNL     1      10.184   7.302   2.206  0.00  0.00    +0.112 A 
ATOM     23  C   UNL     1       8.987   7.219   2.789  0.00  0.00    +0.031 A 
ENDROOT
BRANCH  21  24
ATOM     24  C   UNL     1      10.998   6.598   7.262  0.00  0.00    +0.038 A 
ATOM     25  C   UNL     1      10.599   6.214   8.540  0.00  0.00    +0.028 A 
ATOM     26  C   UNL     1      10.643   5.833   6.154  0.00  0.00    +0.013 A 
ATOM     27  C   UNL     1       9.839   5.057   8.710  0.00  0.00    +0.060 A 
ATOM     28  C   UNL     1       9.883   4.677   6.324  0.00  0.00    +0.002 A 
ATOM     30  C   UNL     1       9.481   4.289   7.601  0.00  0.00    +0.015 A 
BRANCH  27  33
ATOM      8  O   UNL     1       8.261   4.380  10.375  0.00  0.00    -0.245 OA
ATOM     33  C   UNL     1       9.419   4.651  10.041  0.00  0.00    +0.337 C 
BRANCH  33   7
ATOM      7  O   UNL     1      10.456   4.594  10.921  0.00  0.00    -0.477 OA
ATOM     38  H   UNL     1      11.286   4.303  10.488  0.00  0.00    +0.295 HD
ENDBRANCH  33   7
ENDBRANCH  27  33
ENDBRANCH  21  24
BRANCH  22  11
ATOM     11  N   UNL     1      10.461   6.413   1.153  0.00  0.00    -0.211 N 
ATOM     37  H   UNL     1       9.848   6.555   0.338  0.00  0.00    +0.174 HD
BRANCH  11   2
ATOM      2  S   UNL     1      10.727   4.792   1.563  0.00  0.00    +0.072 S 
ATOM      5  O   UNL     1      10.796   4.658   3.006  0.00  0.00    -0.150 OA
ATOM      6  O   UNL     1       9.840   3.942   0.792  0.00  0.00    -0.150 OA
BRANCH   2  29
ATOM      1 CL   UNL     1      16.514   3.963  -0.666  0.00  0.00    -0.084 Cl
ATOM     29  C   UNL     1      12.363   4.559   0.934  0.00  0.00    +0.109 A 
ATOM     31  C   UNL     1      13.249   3.761   1.636  0.00  0.00    +0.030 A 
ATOM     32  C   UNL     1      12.725   5.177  -0.250  0.00  0.00    +0.030 A 
ATOM     34  C   UNL     1      14.538   3.576   1.139  0.00  0.00    +0.022 A 
ATOM     35  C   UNL     1      14.015   4.992  -0.747  0.00  0.00    +0.022 A 
ATOM     36  C   UNL     1      14.922   4.192  -0.052  0.00  0.00    +0.041 A 
ENDBRANCH   2  29
ENDBRANCH  11   2
ENDBRANCH  22  11
TORSDOF 6
ENDMDL
MODEL 2
REMARK VINA RESULT:      -7.4     24.622     28.073
REMARK  Name = 7113917
REMARK  6 active torsions:
REMARK  status: ('A' for Active; 'I' for Inactive)
REMARK    1  A    between atoms: S_2  and  N_11
REMARK    2  A    between atoms: S_2  and  C_29
REMARK    3  A    between atoms: O_7  and  C_33
REMARK    4  A    between atoms: N_11  and  C_22
REMARK    5  A    between atoms: C_21  and  C_24
REMARK    6  A    between atoms: C_27  and  C_33
REMARK                            x       y       z     vdW  Elec       q    Type
REMARK                         _______ _______ _______ _____ _____    ______ ____
ROOT
ATOM      3  O   UNL     1      -6.547  -9.571  13.454  0.00  0.00    -0.266 OA
ATOM      4  O   UNL     1      -5.338 -14.475  12.300  0.00  0.00    -0.270 OA
ATOM      9  N   UNL     1      -3.338 -13.325  12.691  0.00  0.00    -0.297 N 
ATOM     10  N   UNL     1      -4.376 -10.447  13.529  0.00  0.00    -0.310 N 
ATOM     12  C   UNL     1      -3.097 -11.188  11.438  0.00  0.00    +0.027 C 
ATOM     13  C   UNL     1      -2.058 -11.428  13.656  0.00  0.00    +0.054 C 
ATOM     14  C   UNL     1      -1.852 -10.859  12.254  0.00  0.00    +0.018 C 
ATOM     15  C   UNL     1      -3.304 -12.712  11.363  0.00  0.00    +0.113 C 
ATOM     16  C   UNL     1      -4.301 -10.472  12.062  0.00  0.00    +0.130 C 
ATOM     17  C   UNL     1      -2.218 -12.961  13.573  0.00  0.00    +0.117 C 
ATOM     18  C   UNL     1      -3.281 -10.824  14.319  0.00  0.00    +0.027 A 
ATOM     19  C   UNL     1      -3.327 -10.686  15.657  0.00  0.00    +0.024 A 
ATOM     20  C   UNL     1      -5.561  -9.932  14.095  0.00  0.00    +0.274 A 
ATOM     21  C   UNL     1      -4.399 -14.167  13.032  0.00  0.00    +0.247 C 
ATOM     22  C   UNL     1      -5.560  -9.828  15.576  0.00  0.00    +0.112 A 
ATOM     23  C   UNL     1      -4.501 -10.174  16.309  0.00  0.00    +0.031 A 
ENDROOT
BRANCH  21  24
ATOM     24  C   UNL     1      -4.422 -14.728  14.388  0.00  0.00    +0.038 A 
ATOM     25  C   UNL     1      -4.845 -13.941  15.457  0.00  0.00    +0.028 A 
ATOM     26  C   UNL     1      -4.021 -16.044  14.599  0.00  0.00    +0.013 A 
ATOM     27  C   UNL     1      -4.865 -14.474  16.745  0.00  0.00    +0.060 A 
ATOM     28  C   UNL     1      -4.041 -16.578  15.887  0.00  0.00    +0.002 A 
ATOM     30  C   UNL     1      -4.464 -15.794  16.960  0.00  0.00    +0.015 A 
BRANCH  27  33
ATOM      8  O   UNL     1      -4.570 -12.974  18.584  0.00  0.00    -0.245 OA
ATOM     33  C   UNL     1      -5.305 -13.657  17.864  0.00  0.00    +0.337 C 
BRANCH  33   7
ATOM      7  O   UNL     1      -6.652 -13.714  18.053  0.00  0.00    -0.477 OA
ATOM     38  H   UNL     1      -7.136 -13.173  17.395  0.00  0.00    +0.295 HD
ENDBRANCH  33   7
ENDBRANCH  27  33
ENDBRANCH  21  24
BRANCH  22  11
ATOM     11  N   UNL     1      -6.693  -9.343  16.252  0.00  0.00    -0.211 N 
ATOM     37  H   UNL     1      -6.483  -8.532  16.851  0.00  0.00    +0.174 HD
BRANCH  11   2
ATOM      2  S   UNL     1      -7.722 -10.490  16.952  0.00  0.00    +0.072 S 
ATOM      5  O   UNL     1      -7.763 -11.680  16.124  0.00  0.00    -0.150 OA
ATOM      6  O   UNL     1      -7.441 -10.596  18.372  0.00  0.00    -0.150 OA
BRANCH   2  29
ATOM      1 CL   UNL     1     -13.245  -7.612  16.354  0.00  0.00    -0.084 Cl
ATOM     29  C   UNL     1      -9.283  -9.676  16.782  0.00  0.00    +0.109 A 
ATOM     31  C   UNL     1     -10.370 -10.393  16.313  0.00  0.00    +0.030 A 
ATOM     32  C   UNL     1      -9.388  -8.339  17.123  0.00  0.00    +0.030 A 
ATOM     34  C   UNL     1     -11.601  -9.751  16.180  0.00  0.00    +0.022 A 
ATOM     35  C   UNL     1     -10.619  -7.697  16.988  0.00  0.00    +0.022 A 
ATOM     36  C   UNL     1     -11.726  -8.403  16.517  0.00  0.00    +0.041 A 
ENDBRANCH   2  29
ENDBRANCH  11   2
ENDBRANCH  22  11
TORSDOF 6
ENDMDL
MODEL 3
REMARK VINA RESULT:      -7.3      2.506      4.402
REMARK  Name = 7113917
REMARK  6 active torsions:
REMARK  status: ('A' for Active; 'I' for Inactive)
REMARK    1  A    between atoms: S_2  and  N_11
REMARK    2  A    between atoms: S_2  and  C_29
REMARK    3  A    between atoms: O_7  and  C_33
REMARK    4  A    between atoms: N_11  and  C_22
REMARK    5  A    between atoms: C_21  and  C_24
REMARK    6  A    between atoms: C_27  and  C_33
REMARK                            x       y       z     vdW  Elec       q    Type
REMARK                         _______ _______ _______ _____ _____    ______ ____
ROOT
ATOM      3  O   UNL     1       8.529   8.003   2.678  0.00  0.00    -0.266 OA
ATOM      4  O   UNL     1      11.724  10.230   6.096  0.00  0.00    -0.270 OA
ATOM      9  N   UNL     1      11.111   8.141   6.955  0.00  0.00    -0.297 N 
ATOM     10  N   UNL     1       9.325   6.955   4.617  0.00  0.00    -0.310 N 
ATOM     12  C   UNL     1       8.662   7.696   6.976  0.00  0.00    +0.027 C 
ATOM     13  C   UNL     1      10.242   5.832   6.678  0.00  0.00    +0.054 C 
ATOM     14  C   UNL     1       8.937   6.245   7.356  0.00  0.00    +0.018 C 
ATOM     15  C   UNL     1       9.814   8.603   7.448  0.00  0.00    +0.113 C 
ATOM     16  C   UNL     1       8.447   7.777   5.460  0.00  0.00    +0.130 C 
ATOM     17  C   UNL     1      11.395   6.717   7.193  0.00  0.00    +0.117 C 
ATOM     18  C   UNL     1      10.138   5.956   5.170  0.00  0.00    +0.027 A 
ATOM     19  C   UNL     1      10.848   5.137   4.373  0.00  0.00    +0.024 A 
ATOM     20  C   UNL     1       9.234   7.154   3.223  0.00  0.00    +0.274 A 
ATOM     21  C   UNL     1      11.956   9.039   6.297  0.00  0.00    +0.247 C 
ATOM     22  C   UNL     1      10.060   6.237   2.398  0.00  0.00    +0.112 A 
ATOM     23  C   UNL     1      10.813   5.280   2.943  0.00  0.00    +0.031 A 
ENDROOT
BRANCH  21  24
ATOM     24  C   UNL     1      13.230   8.529   5.778  0.00  0.00    +0.038 A 
ATOM     25  C   UNL     1      13.264   7.871   4.550  0.00  0.00    +0.028 A 
ATOM     26  C   UNL     1      14.398   8.704   6.515  0.00  0.00    +0.013 A 
ATOM     27  C   UNL     1      14.475   7.385   4.058  0.00  0.00    +0.060 A 
ATOM     28  C   UNL     1      15.608   8.218   6.023  0.00  0.00    +0.002 A 
ATOM     30  C   UNL     1      15.647   7.560   4.794  0.00  0.00    +0.015 A 
BRANCH  27  33
ATOM      8  O   UNL     1      14.128   7.165   1.702  0.00  0.00    -0.245 OA
ATOM     33  C   UNL     1      14.517   6.699   2.777  0.00  0.00    +0.337 C 
BRANCH  33   7
ATOM      7  O   UNL     1      15.045   5.448   2.873  0.00  0.00    -0.477 OA
ATOM     38  H   UNL     1      14.351   4.765   2.983  0.00  0.00    +0.295 HD
ENDBRANCH  33   7
ENDBRANCH  27  33
ENDBRANCH  21  24
BRANCH  22  11
ATOM     11  N   UNL     1      10.061   6.351   0.998  0.00  0.00    -0.211 N 
ATOM     37  H   UNL     1       9.405   7.067   0.654  0.00  0.00    +0.174 HD
BRANCH  11   2
ATOM      2  S   UNL     1      10.064   4.912   0.107  0.00  0.00    +0.072 S 
ATOM      5  O   UNL     1       9.699   3.803   0.968  0.00  0.00    -0.150 OA
ATOM      6  O   UNL     1       9.375   5.117  -1.153  0.00  0.00    -0.150 OA
BRANCH   2  29
ATOM      1 CL   UNL     1      16.163   4.348  -1.170  0.00  0.00    -0.084 Cl
ATOM     29  C   UNL     1      11.788   4.753  -0.253  0.00  0.00    +0.109 A 
ATOM     31  C   UNL     1      12.503   3.714   0.315  0.00  0.00    +0.030 A 
ATOM     32  C   UNL     1      12.389   5.670  -1.098  0.00  0.00    +0.030 A 
ATOM     34  C   UNL     1      13.863   3.588   0.030  0.00  0.00    +0.022 A 
ATOM     35  C   UNL     1      13.749   5.545  -1.382  0.00  0.00    +0.022 A 
ATOM     36  C   UNL     1      14.486   4.504  -0.818  0.00  0.00    +0.041 A 
ENDBRANCH   2  29
ENDBRANCH  11   2
ENDBRANCH  22  11
TORSDOF 6
ENDMDL
MODEL 4
REMARK VINA RESULT:      -7.3     23.100     26.605
REMARK  Name = 7113917
REMARK  6 active torsions:
REMARK  status: ('A' for Active; 'I' for Inactive)
REMARK    1  A    between atoms: S_2  and  N_11
REMARK    2  A    between atoms: S_2  and  C_29
REMARK    3  A    between atoms: O_7  and  C_33
REMARK    4  A    between atoms: N_11  and  C_22
REMARK    5  A    between atoms: C_21  and  C_24
REMARK    6  A    between atoms: C_27  and  C_33
REMARK                            x       y       z     vdW  Elec       q    Type
REMARK                         _______ _______ _______ _____ _____    ______ ____
ROOT
ATOM      3  O   UNL     1      -5.847  -8.981  12.526  0.00  0.00    -0.266 OA
ATOM      4  O   UNL     1      -8.624  -8.695  16.891  0.00  0.00    -0.270 OA
ATOM      9  N   UNL     1      -9.069 -10.769  15.902  0.00  0.00    -0.297 N 
ATOM     10  N   UNL     1      -7.136 -10.737  13.387  0.00  0.00    -0.310 N 
ATOM     12  C   UNL     1      -9.693 -10.669  13.495  0.00  0.00    +0.027 C 
ATOM     13  C   UNL     1      -8.484 -12.629  14.364  0.00  0.00    +0.054 C 
ATOM     14  C   UNL     1      -9.597 -12.188  13.414  0.00  0.00    +0.018 C 
ATOM     15  C   UNL     1     -10.020 -10.226  14.933  0.00  0.00    +0.113 C 
ATOM     16  C   UNL     1      -8.379 -10.063  12.989  0.00  0.00    +0.130 C 
ATOM     17  C   UNL     1      -8.845 -12.220  15.807  0.00  0.00    +0.117 C 
ATOM     18  C   UNL     1      -7.156 -12.009  13.975  0.00  0.00    +0.027 A 
ATOM     19  C   UNL     1      -6.006 -12.661  14.228  0.00  0.00    +0.024 A 
ATOM     20  C   UNL     1      -5.928 -10.088  13.056  0.00  0.00    +0.274 A 
ATOM     21  C   UNL     1      -8.442  -9.909  16.806  0.00  0.00    +0.247 C 
ATOM     22  C   UNL     1      -4.694 -10.846  13.382  0.00  0.00    +0.112 A 
ATOM     23  C   UNL     1      -4.734 -12.063  13.925  0.00  0.00    +0.031 A 
ENDROOT
BRANCH  21  24
ATOM     24  C   UNL     1      -7.461 -10.483  17.734  0.00  0.00    +0.038 A 
ATOM     25  C   UNL     1      -6.129 -10.607  17.344  0.00  0.00    +0.028 A 
ATOM     26  C   UNL     1      -7.866 -10.902  18.998  0.00  0.00    +0.013 A 
ATOM     27  C   UNL     1      -5.197 -11.154  18.226  0.00  0.00    +0.060 A 
ATOM     28  C   UNL     1      -6.934 -11.449  19.879  0.00  0.00    +0.002 A 
ATOM     30  C   UNL     1      -5.600 -11.575  19.494  0.00  0.00    +0.015 A 
BRANCH  27  33
ATOM      8  O   UNL     1      -3.316 -10.842  16.781  0.00  0.00    -0.245 OA
ATOM     33  C   UNL     1      -3.805 -11.286  17.825  0.00  0.00    +0.337 C 
BRANCH  33   7
ATOM      7  O   UNL     1      -3.061 -11.966  18.740  0.00  0.00    -0.477 OA
ATOM     38  H   UNL     1      -2.920 -12.899  18.475  0.00  0.00    +0.295 HD
ENDBRANCH  33   7
ENDBRANCH  27  33
ENDBRANCH  21  24
BRANCH  22  11
ATOM     11  N   UNL     1      -3.431 -10.292  13.112  0.00  0.00    -0.211 N 
ATOM     37  H   UNL     1      -3.448  -9.263  13.064  0.00  0.00    +0.174 HD
BRANCH  11   2
ATOM      2  S   UNL     1      -2.503 -11.039  11.909  0.00  0.00    +0.072 S 
ATOM      5  O   UNL     1      -1.234 -10.351  11.772  0.00  0.00    -0.150 OA
ATOM      6  O   UNL     1      -2.539 -12.478  12.089  0.00  0.00    -0.150 OA
BRANCH   2  29
ATOM      1 CL   UNL     1      -5.905  -9.706   6.830  0.00  0.00    -0.084 Cl
ATOM     29  C   UNL     1      -3.464 -10.662  10.473  0.00  0.00    +0.109 A 
ATOM     31  C   UNL     1      -4.118 -11.686   9.811  0.00  0.00    +0.030 A 
ATOM     32  C   UNL     1      -3.545  -9.351  10.040  0.00  0.00    +0.030 A 
ATOM     34  C   UNL     1      -4.876 -11.389   8.679  0.00  0.00    +0.022 A 
ATOM     35  C   UNL     1      -4.303  -9.054   8.907  0.00  0.00    +0.022 A 
ATOM     36  C   UNL     1      -4.968 -10.073   8.226  0.00  0.00    +0.041 A 
ENDBRANCH   2  29
ENDBRANCH  11   2
ENDBRANCH  22  11
TORSDOF 6
ENDMDL
MODEL 5
REMARK VINA RESULT:      -7.1      3.848      6.722
REMARK  Name = 7113917
REMARK  6 active torsions:
REMARK  status: ('A' for Active; 'I' for Inactive)
REMARK    1  A    between atoms: S_2  and  N_11
REMARK    2  A    between atoms: S_2  and  C_29
REMARK    3  A    between atoms: O_7  and  C_33
REMARK    4  A    between atoms: N_11  and  C_22
REMARK    5  A    between atoms: C_21  and  C_24
REMARK    6  A    between atoms: C_27  and  C_33
REMARK                            x       y       z     vdW  Elec       q    Type
REMARK                         _______ _______ _______ _____ _____    ______ ____
ROOT
ATOM      3  O   UNL     1      13.908   6.509   7.192  0.00  0.00    -0.266 OA
ATOM      4  O   UNL     1      10.399   5.036   3.675  0.00  0.00    -0.270 OA
ATOM      9  N   UNL     1       9.326   6.453   5.198  0.00  0.00    -0.297 N 
ATOM     10  N   UNL     1      11.712   7.320   7.099  0.00  0.00    -0.310 N 
ATOM     12  C   UNL     1       9.664   5.865   7.592  0.00  0.00    +0.027 C 
ATOM     13  C   UNL     1       9.363   8.220   6.942  0.00  0.00    +0.054 C 
ATOM     14  C   UNL     1       9.005   7.178   8.000  0.00  0.00    +0.018 C 
ATOM     15  C   UNL     1       9.154   5.412   6.212  0.00  0.00    +0.113 C 
ATOM     16  C   UNL     1      11.186   6.049   7.614  0.00  0.00    +0.130 C 
ATOM     17  C   UNL     1       8.807   7.777   5.572  0.00  0.00    +0.117 C 
ATOM     18  C   UNL     1      10.865   8.408   6.846  0.00  0.00    +0.027 A 
ATOM     19  C   UNL     1      11.375   9.600   6.485  0.00  0.00    +0.024 A 
ATOM     20  C   UNL     1      13.113   7.422   6.970  0.00  0.00    +0.274 A 
ATOM     21  C   UNL     1       9.963   6.141   3.994  0.00  0.00    +0.247 C 
ATOM     22  C   UNL     1      13.613   8.753   6.544  0.00  0.00    +0.112 A 
ATOM     23  C   UNL     1      12.792   9.781   6.326  0.00  0.00    +0.031 A 
ENDROOT
BRANCH  21  24
ATOM     24  C   UNL     1      10.156   7.221   3.020  0.00  0.00    +0.038 A 
ATOM     25  C   UNL     1      11.237   8.090   3.154  0.00  0.00    +0.028 A 
ATOM     26  C   UNL     1       9.259   7.371   1.967  0.00  0.00    +0.013 A 
ATOM     27  C   UNL     1      11.419   9.117   2.228  0.00  0.00    +0.060 A 
ATOM     28  C   UNL     1       9.441   8.398   1.041  0.00  0.00    +0.002 A 
ATOM     30  C   UNL     1      10.521   9.270   1.171  0.00  0.00    +0.015 A 
BRANCH  27  33
ATOM      8  O   UNL     1      12.517  11.119   2.937  0.00  0.00    -0.245 OA
ATOM     33  C   UNL     1      12.545  10.027   2.362  0.00  0.00    +0.337 C 
BRANCH  33   7
ATOM      7  O   UNL     1      13.676   9.547   1.776  0.00  0.00    -0.477 OA
ATOM     38  H   UNL     1      14.406  10.201   1.801  0.00  0.00    +0.295 HD
ENDBRANCH  33   7
ENDBRANCH  27  33
ENDBRANCH  21  24
BRANCH  22  11
ATOM     11  N   UNL     1      14.991   8.968   6.367  0.00  0.00    -0.211 N 
ATOM     37  H   UNL     1      15.359   9.720   6.968  0.00  0.00    +0.174 HD
BRANCH  11   2
ATOM      2  S   UNL     1      15.570   8.990   4.776  0.00  0.00    +0.072 S 
ATOM      5  O   UNL     1      15.009   7.876   4.036  0.00  0.00    -0.150 OA
ATOM      6  O   UNL     1      15.484  10.338   4.245  0.00  0.00    -0.150 OA
BRANCH   2  29
ATOM      1 CL   UNL     1      21.626   7.738   5.727  0.00  0.00    -0.084 Cl
ATOM     29  C   UNL     1      17.281   8.636   5.045  0.00  0.00    +0.109 A 
ATOM     31  C   UNL     1      18.037   8.130   4.003  0.00  0.00    +0.030 A 
ATOM     32  C   UNL     1      17.832   8.872   6.292  0.00  0.00    +0.030 A 
ATOM     34  C   UNL     1      19.387   7.851   4.215  0.00  0.00    +0.022 A 
ATOM     35  C   UNL     1      19.182   8.593   6.505  0.00  0.00    +0.022 A 
ATOM     36  C   UNL     1      19.959   8.082   5.466  0.00  0.00    +0.041 A 
ENDBRANCH   2  29
ENDBRANCH  11   2
ENDBRANCH  22  11
TORSDOF 6
ENDMDL
MODEL 6
REMARK VINA RESULT:      -7.0     23.450     27.420
REMARK  Name = 7113917
REMARK  6 active torsions:
REMARK  status: ('A' for Active; 'I' for Inactive)
REMARK    1  A    between atoms: S_2  and  N_11
REMARK    2  A    between atoms: S_2  and  C_29
REMARK    3  A    between atoms: O_7  and  C_33
REMARK    4  A    between atoms: N_11  and  C_22
REMARK    5  A    between atoms: C_21  and  C_24
REMARK    6  A    between atoms: C_27  and  C_33
REMARK                            x       y       z     vdW  Elec       q    Type
REMARK                         _______ _______ _______ _____ _____    ______ ____
ROOT
ATOM      3  O   UNL     1      -5.429 -12.672  16.551  0.00  0.00    -0.266 OA
ATOM      4  O   UNL     1      -1.668 -10.759  13.544  0.00  0.00    -0.270 OA
ATOM      9  N   UNL     1      -2.505 -12.679  12.498  0.00  0.00    -0.297 N 
ATOM     10  N   UNL     1      -4.866 -13.521  14.442  0.00  0.00    -0.310 N 
ATOM     12  C   UNL     1      -2.641 -14.691  13.957  0.00  0.00    +0.027 C 
ATOM     13  C   UNL     1      -4.279 -14.380  12.146  0.00  0.00    +0.054 C 
ATOM     14  C   UNL     1      -3.421 -15.418  12.868  0.00  0.00    +0.018 C 
ATOM     15  C   UNL     1      -1.744 -13.601  13.340  0.00  0.00    +0.113 C 
ATOM     16  C   UNL     1      -3.632 -14.114  14.974  0.00  0.00    +0.130 C 
ATOM     17  C   UNL     1      -3.368 -13.320  11.494  0.00  0.00    +0.117 C 
ATOM     18  C   UNL     1      -5.242 -13.704  13.104  0.00  0.00    +0.027 A 
ATOM     19  C   UNL     1      -6.430 -13.252  12.662  0.00  0.00    +0.024 A 
ATOM     20  C   UNL     1      -5.697 -12.850  15.363  0.00  0.00    +0.274 A 
ATOM     21  C   UNL     1      -2.387 -11.302  12.706  0.00  0.00    +0.247 C 
ATOM     22  C   UNL     1      -6.981 -12.353  14.811  0.00  0.00    +0.112 A 
ATOM     23  C   UNL     1      -7.329 -12.553  13.539  0.00  0.00    +0.031 A 
ENDROOT
BRANCH  21  24
ATOM     24  C   UNL     1      -3.199 -10.409  11.873  0.00  0.00    +0.038 A 
ATOM     25  C   UNL     1      -4.540 -10.196  12.187  0.00  0.00    +0.028 A 
ATOM     26  C   UNL     1      -2.626  -9.779  10.771  0.00  0.00    +0.013 A 
ATOM     27  C   UNL     1      -5.311  -9.348  11.393  0.00  0.00    +0.060 A 
ATOM     28  C   UNL     1      -3.398  -8.930   9.978  0.00  0.00    +0.002 A 
ATOM     30  C   UNL     1      -4.740  -8.715  10.289  0.00  0.00    +0.015 A 
BRANCH  27  33
ATOM      8  O   UNL     1      -7.657  -9.260  10.935  0.00  0.00    -0.245 OA
ATOM     33  C   UNL     1      -6.711  -9.123  11.717  0.00  0.00    +0.337 C 
BRANCH  33   7
ATOM      7  O   UNL     1      -6.892  -8.733  13.008  0.00  0.00    -0.477 OA
ATOM     38  H   UNL     1      -7.756  -9.031  13.362  0.00  0.00    +0.295 HD
ENDBRANCH  33   7
ENDBRANCH  27  33
ENDBRANCH  21  24
BRANCH  22  11
ATOM     11  N   UNL     1      -7.883 -11.655  15.632  0.00  0.00    -0.211 N 
ATOM     37  H   UNL     1      -8.832 -11.608  15.235  0.00  0.00    +0.174 HD
BRANCH  11   2
ATOM      2  S   UNL     1      -7.336 -10.210  16.324  0.00  0.00    +0.072 S 
ATOM      5  O   UNL     1      -7.103 -10.404  17.742  0.00  0.00    -0.150 OA
ATOM      6  O   UNL     1      -6.304  -9.629  15.486  0.00  0.00    -0.150 OA
BRANCH   2  29
ATOM      1 CL   UNL     1     -12.444  -6.643  15.746  0.00  0.00    -0.084 Cl
ATOM     29  C   UNL     1      -8.779  -9.201  16.160  0.00  0.00    +0.109 A 
ATOM     31  C   UNL     1      -9.489  -9.227  14.973  0.00  0.00    +0.030 A 
ATOM     32  C   UNL     1      -9.171  -8.407  17.223  0.00  0.00    +0.030 A 
ATOM     34  C   UNL     1     -10.628  -8.432  14.845  0.00  0.00    +0.022 A 
ATOM     35  C   UNL     1     -10.310  -7.611  17.094  0.00  0.00    +0.022 A 
ATOM     36  C   UNL     1     -11.038  -7.624  15.905  0.00  0.00    +0.041 A 
ENDBRANCH   2  29
ENDBRANCH  11   2
ENDBRANCH  22  11
TORSDOF 6
ENDMDL
MODEL 7
REMARK VINA RESULT:      -7.0     25.702     28.926
REMARK  Name = 7113917
REMARK  6 active torsions:
REMARK  status: ('A' for Active; 'I' for Inactive)
REMARK    1  A    between atoms: S_2  and  N_11
REMARK    2  A    between atoms: S_2  and  C_29
REMARK    3  A    between atoms: O_7  and  C_33
REMARK    4  A    between atoms: N_11  and  C_22
REMARK    5  A    between atoms: C_21  and  C_24
REMARK    6  A    between atoms: C_27  and  C_33
REMARK                            x       y       z     vdW  Elec       q    Type
REMARK                         _______ _______ _______ _____ _____    ______ ____
ROOT
ATOM      3  O   UNL     1     -10.441  -8.750  17.963  0.00  0.00    -0.266 OA
ATOM      4  O   UNL     1      -5.574 -10.065  19.158  0.00  0.00    -0.270 OA
ATOM      9  N   UNL     1      -6.707 -12.019  18.546  0.00  0.00    -0.297 N 
ATOM     10  N   UNL     1      -9.558 -10.906  17.716  0.00  0.00    -0.310 N 
ATOM     12  C   UNL     1      -8.882 -12.373  19.703  0.00  0.00    +0.027 C 
ATOM     13  C   UNL     1      -8.569 -13.202  17.406  0.00  0.00    +0.054 C 
ATOM     14  C   UNL     1      -9.183 -13.537  18.764  0.00  0.00    +0.018 C 
ATOM     15  C   UNL     1      -7.362 -12.176  19.845  0.00  0.00    +0.113 C 
ATOM     16  C   UNL     1      -9.580 -11.116  19.170  0.00  0.00    +0.130 C 
ATOM     17  C   UNL     1      -7.040 -13.052  17.554  0.00  0.00    +0.117 C 
ATOM     18  C   UNL     1      -9.154 -11.923  16.841  0.00  0.00    +0.027 A 
ATOM     19  C   UNL     1      -9.249 -11.753  15.509  0.00  0.00    +0.024 A 
ATOM     20  C   UNL     1     -10.057  -9.673  17.246  0.00  0.00    +0.274 A 
ATOM     21  C   UNL     1      -5.856 -10.932  18.332  0.00  0.00    +0.247 C 
ATOM     22  C   UNL     1     -10.114  -9.536  15.769  0.00  0.00    +0.112 A 
ATOM     23  C   UNL     1      -9.742 -10.523  14.952  0.00  0.00    +0.031 A 
ENDROOT
BRANCH  21  24
ATOM     24  C   UNL     1      -5.252 -10.784  17.003  0.00  0.00    +0.038 A 
ATOM     25  C   UNL     1      -3.928 -11.166  16.798  0.00  0.00    +0.028 A 
ATOM     26  C   UNL     1      -6.004 -10.261  15.955  0.00  0.00    +0.013 A 
ATOM     27  C   UNL     1      -3.354 -11.024  15.535  0.00  0.00    +0.060 A 
ATOM     28  C   UNL     1      -5.430 -10.119  14.692  0.00  0.00    +0.002 A 
ATOM     30  C   UNL     1      -4.106 -10.501  14.482  0.00  0.00    +0.015 A 
BRANCH  27  33
ATOM      8  O   UNL     1      -1.552 -12.025  14.322  0.00  0.00    -0.245 OA
ATOM     33  C   UNL     1      -1.973 -11.422  15.314  0.00  0.00    +0.337 C 
BRANCH  33   7
ATOM      7  O   UNL     1      -1.155 -11.053  16.337  0.00  0.00    -0.477 OA
ATOM     38  H   UNL     1      -0.836 -11.827  16.847  0.00  0.00    +0.295 HD
ENDBRANCH  33   7
ENDBRANCH  27  33
ENDBRANCH  21  24
BRANCH  22  11
ATOM     11  N   UNL     1     -10.580  -8.346  15.185  0.00  0.00    -0.211 N 
ATOM     37  H   UNL     1     -10.125  -7.506  15.572  0.00  0.00    +0.174 HD
BRANCH  11   2
ATOM      2  S   UNL     1     -12.251  -8.201  14.958  0.00  0.00    +0.072 S 
ATOM      5  O   UNL     1     -12.762  -9.392  14.306  0.00  0.00    -0.150 OA
ATOM      6  O   UNL     1     -12.868  -7.714  16.178  0.00  0.00    -0.150 OA
BRANCH   2  29
ATOM      1 CL   UNL     1     -12.458  -3.552  10.776  0.00  0.00    -0.084 Cl
ATOM     29  C   UNL     1     -12.309  -6.887  13.776  0.00  0.00    +0.109 A 
ATOM     31  C   UNL     1     -12.359  -7.194  12.428  0.00  0.00    +0.030 A 
ATOM     32  C   UNL     1     -12.304  -5.577  14.222  0.00  0.00    +0.030 A 
ATOM     34  C   UNL     1     -12.406  -6.158  11.496  0.00  0.00    +0.022 A 
ATOM     35  C   UNL     1     -12.349  -4.541  13.289  0.00  0.00    +0.022 A 
ATOM     36  C   UNL     1     -12.400  -4.831  11.926  0.00  0.00    +0.041 A 
ENDBRANCH   2  29
ENDBRANCH  11   2
ENDBRANCH  22  11
TORSDOF 6
ENDMDL
MODEL 8
REMARK VINA RESULT:      -7.0      4.443      6.394
REMARK  Name = 7113917
REMARK  6 active torsions:
REMARK  status: ('A' for Active; 'I' for Inactive)
REMARK    1  A    between atoms: S_2  and  N_11
REMARK    2  A    between atoms: S_2  and  C_29
REMARK    3  A    between atoms: O_7  and  C_33
REMARK    4  A    between atoms: N_11  and  C_22
REMARK    5  A    between atoms: C_21  and  C_24
REMARK    6  A    between atoms: C_27  and  C_33
REMARK                            x       y       z     vdW  Elec       q    Type
REMARK                         _______ _______ _______ _____ _____    ______ ____
ROOT
ATOM      3  O   UNL     1      12.480   7.317   3.354  0.00  0.00    -0.266 OA
ATOM      4  O   UNL     1       8.654   9.782   5.831  0.00  0.00    -0.270 OA
ATOM      9  N   UNL     1       9.065   7.781   6.973  0.00  0.00    -0.297 N 
ATOM     10  N   UNL     1      11.524   6.587   5.364  0.00  0.00    -0.310 N 
ATOM     12  C   UNL     1       9.111   5.748   5.539  0.00  0.00    +0.027 C 
ATOM     13  C   UNL     1      10.518   5.854   7.556  0.00  0.00    +0.054 C 
ATOM     14  C   UNL     1       9.628   4.935   6.721  0.00  0.00    +0.018 C 
ATOM     15  C   UNL     1       8.301   6.961   6.033  0.00  0.00    +0.113 C 
ATOM     16  C   UNL     1      10.302   6.164   4.667  0.00  0.00    +0.130 C 
ATOM     17  C   UNL     1       9.685   7.041   8.083  0.00  0.00    +0.117 C 
ATOM     18  C   UNL     1      11.687   6.374   6.740  0.00  0.00    +0.027 A 
ATOM     19  C   UNL     1      12.856   6.662   7.341  0.00  0.00    +0.024 A 
ATOM     20  C   UNL     1      12.557   7.121   4.567  0.00  0.00    +0.274 A 
ATOM     21  C   UNL     1       9.170   9.157   6.756  0.00  0.00    +0.247 C 
ATOM     22  C   UNL     1      13.813   7.443   5.290  0.00  0.00    +0.112 A 
ATOM     23  C   UNL     1      13.954   7.215   6.597  0.00  0.00    +0.031 A 
ENDROOT
BRANCH  21  24
ATOM     24  C   UNL     1       9.979   9.941   7.695  0.00  0.00    +0.038 A 
ATOM     25  C   UNL     1       9.393  10.467   8.844  0.00  0.00    +0.028 A 
ATOM     26  C   UNL     1      11.330  10.155   7.434  0.00  0.00    +0.013 A 
ATOM     27  C   UNL     1      10.163  11.213   9.736  0.00  0.00    +0.060 A 
ATOM     28  C   UNL     1      12.100  10.901   8.326  0.00  0.00    +0.002 A 
ATOM     30  C   UNL     1      11.517  11.429   9.477  0.00  0.00    +0.015 A 
BRANCH  27  33
ATOM      8  O   UNL     1      10.163  12.343  11.844  0.00  0.00    -0.245 OA
ATOM     33  C   UNL     1       9.556  11.764  10.937  0.00  0.00    +0.337 C 
BRANCH  33   7
ATOM      7  O   UNL     1       8.208  11.581  10.972  0.00  0.00    -0.477 OA
ATOM     38  H   UNL     1       7.941  10.970  11.691  0.00  0.00    +0.295 HD
ENDBRANCH  33   7
ENDBRANCH  27  33
ENDBRANCH  21  24
BRANCH  22  11
ATOM     11  N   UNL     1      14.906   7.995   4.601  0.00  0.00    -0.211 N 
ATOM     37  H   UNL     1      15.710   7.354   4.548  0.00  0.00    +0.174 HD
BRANCH  11   2
ATOM      2  S   UNL     1      15.307   9.602   4.952  0.00  0.00    +0.072 S 
ATOM      5  O   UNL     1      15.203  10.406   3.750  0.00  0.00    -0.150 OA
ATOM      6  O   UNL     1      14.635  10.017   6.170  0.00  0.00    -0.150 OA
BRANCH   2  29
ATOM      1 CL   UNL     1      21.391   9.013   6.285  0.00  0.00    -0.084 Cl
ATOM     29  C   UNL     1      17.026   9.436   5.328  0.00  0.00    +0.109 A 
ATOM     31  C   UNL     1      17.613  10.326   6.210  0.00  0.00    +0.030 A 
ATOM     32  C   UNL     1      17.752   8.418   4.735  0.00  0.00    +0.030 A 
ATOM     34  C   UNL     1      18.970  10.195   6.507  0.00  0.00    +0.022 A 
ATOM     35  C   UNL     1      19.109   8.287   5.031  0.00  0.00    +0.022 A 
ATOM     36  C   UNL     1      19.718   9.175   5.917  0.00  0.00    +0.041 A 
ENDBRANCH   2  29
ENDBRANCH  11   2
ENDBRANCH  22  11
TORSDOF 6
ENDMDL
MODEL 9
REMARK VINA RESULT:      -6.9     25.049     28.051
REMARK  Name = 7113917
REMARK  6 active torsions:
REMARK  status: ('A' for Active; 'I' for Inactive)
REMARK    1  A    between atoms: S_2  and  N_11
REMARK    2  A    between atoms: S_2  and  C_29
REMARK    3  A    between atoms: O_7  and  C_33
REMARK    4  A    between atoms: N_11  and  C_22
REMARK    5  A    between atoms: C_21  and  C_24
REMARK    6  A    between atoms: C_27  and  C_33
REMARK                            x       y       z     vdW  Elec       q    Type
REMARK                         _______ _______ _______ _____ _____    ______ ____
ROOT
ATOM      3  O   UNL     1      -7.910  -8.927  17.584  0.00  0.00    -0.266 OA
ATOM      4  O   UNL     1      -3.090 -10.417  16.402  0.00  0.00    -0.270 OA
ATOM      9  N   UNL     1      -4.470 -12.302  16.261  0.00  0.00    -0.297 N 
ATOM     10  N   UNL     1      -7.335 -11.078  16.855  0.00  0.00    -0.310 N 
ATOM     12  C   UNL     1      -5.917 -12.691  18.248  0.00  0.00    +0.027 C 
ATOM     13  C   UNL     1      -6.699 -13.367  16.015  0.00  0.00    +0.054 C 
ATOM     14  C   UNL     1      -6.659 -13.781  17.484  0.00  0.00    +0.018 C 
ATOM     15  C   UNL     1      -4.484 -12.534  17.705  0.00  0.00    +0.113 C 
ATOM     16  C   UNL     1      -6.717 -11.387  18.152  0.00  0.00    +0.130 C 
ATOM     17  C   UNL     1      -5.260 -13.257  15.470  0.00  0.00    +0.117 C 
ATOM     18  C   UNL     1      -7.413 -12.040  15.839  0.00  0.00    +0.027 A 
ATOM     19  C   UNL     1      -8.083 -11.778  14.702  0.00  0.00    +0.024 A 
ATOM     20  C   UNL     1      -7.931  -9.806  16.723  0.00  0.00    +0.274 A 
ATOM     21  C   UNL     1      -3.752 -11.219  15.746  0.00  0.00    +0.247 C 
ATOM     22  C   UNL     1      -8.633  -9.567  15.438  0.00  0.00    +0.112 A 
ATOM     23  C   UNL     1      -8.712 -10.503  14.490  0.00  0.00    +0.031 A 
ENDROOT
BRANCH  21  24
ATOM     24  C   UNL     1      -3.797 -10.992  14.297  0.00  0.00    +0.038 A 
ATOM     25  C   UNL     1      -4.898 -10.354  13.729  0.00  0.00    +0.028 A 
ATOM     26  C   UNL     1      -2.739 -11.416  13.497  0.00  0.00    +0.013 A 
ATOM     27  C   UNL     1      -4.940 -10.140  12.352  0.00  0.00    +0.060 A 
ATOM     28  C   UNL     1      -2.782 -11.202  12.120  0.00  0.00    +0.002 A 
ATOM     30  C   UNL     1      -3.881 -10.563  11.548  0.00  0.00    +0.015 A 
BRANCH  27  33
ATOM      8  O   UNL     1      -6.534  -9.698  10.625  0.00  0.00    -0.245 OA
ATOM     33  C   UNL     1      -6.086  -9.474  11.754  0.00  0.00    +0.337 C 
BRANCH  33   7
ATOM      7  O   UNL     1      -6.642  -8.548  12.582  0.00  0.00    -0.477 OA
ATOM     38  H   UNL     1      -7.181  -8.965  13.287  0.00  0.00    +0.295 HD
ENDBRANCH  33   7
ENDBRANCH  27  33
ENDBRANCH  21  24
BRANCH  22  11
ATOM     11  N   UNL     1      -9.252  -8.330  15.188  0.00  0.00    -0.211 N 
ATOM     37  H   UNL     1      -8.602  -7.535  15.267  0.00  0.00    +0.174 HD
BRANCH  11   2
ATOM      2  S   UNL     1     -10.771  -8.073  15.889  0.00  0.00    +0.072 S 
ATOM      5  O   UNL     1     -11.468  -9.338  16.026  0.00  0.00    -0.150 OA
ATOM      6  O   UNL     1     -10.637  -7.185  17.029  0.00  0.00    -0.150 OA
BRANCH   2  29
ATOM      1 CL   UNL     1     -13.622  -4.859  11.341  0.00  0.00    -0.084 Cl
ATOM     29  C   UNL     1     -11.576  -7.164  14.603  0.00  0.00    +0.109 A 
ATOM     31  C   UNL     1     -12.047  -7.841  13.492  0.00  0.00    +0.030 A 
ATOM     32  C   UNL     1     -11.721  -5.795  14.734  0.00  0.00    +0.030 A 
ATOM     34  C   UNL     1     -12.682  -7.125  12.478  0.00  0.00    +0.022 A 
ATOM     35  C   UNL     1     -12.356  -5.078  13.719  0.00  0.00    +0.022 A 
ATOM     36  C   UNL     1     -12.837  -5.743  12.592  0.00  0.00    +0.041 A 
ENDBRANCH   2  29
ENDBRANCH  11   2
ENDBRANCH  22  11
TORSDOF 6
ENDMDL
MODEL 10
REMARK VINA RESULT:      -6.9     23.464     25.891
REMARK  Name = 7113917
REMARK  6 active torsions:
REMARK  status: ('A' for Active; 'I' for Inactive)
REMARK    1  A    between atoms: S_2  and  N_11
REMARK    2  A    between atoms: S_2  and  C_29
REMARK    3  A    between atoms: O_7  and  C_33
REMARK    4  A    between atoms: N_11  and  C_22
REMARK    5  A    between atoms: C_21  and  C_24
REMARK    6  A    between atoms: C_27  and  C_33
REMARK                            x       y       z     vdW  Elec       q    Type
REMARK                         _______ _______ _______ _____ _____    ______ ____
ROOT
ATOM      3  O   UNL     1      -4.268 -12.957   9.601  0.00  0.00    -0.266 OA
ATOM      4  O   UNL     1      -6.237 -14.218  14.224  0.00  0.00    -0.270 OA
ATOM      9  N   UNL     1      -3.920 -14.004  14.475  0.00  0.00    -0.297 N 
ATOM     10  N   UNL     1      -3.019 -13.075  11.579  0.00  0.00    -0.310 N 
ATOM     12  C   UNL     1      -2.566 -15.271  12.815  0.00  0.00    +0.027 C 
ATOM     13  C   UNL     1      -1.709 -13.153  13.730  0.00  0.00    +0.054 C 
ATOM     14  C   UNL     1      -1.309 -14.567  13.314  0.00  0.00    +0.018 C 
ATOM     15  C   UNL     1      -3.629 -15.329  13.928  0.00  0.00    +0.113 C 
ATOM     16  C   UNL     1      -3.077 -14.543  11.566  0.00  0.00    +0.130 C 
ATOM     17  C   UNL     1      -2.739 -13.224  14.877  0.00  0.00    +0.117 C 
ATOM     18  C   UNL     1      -2.298 -12.385  12.563  0.00  0.00    +0.027 A 
ATOM     19  C   UNL     1      -2.160 -11.048  12.494  0.00  0.00    +0.024 A 
ATOM     20  C   UNL     1      -3.636 -12.406  10.501  0.00  0.00    +0.274 A 
ATOM     21  C   UNL     1      -5.246 -13.571  14.559  0.00  0.00    +0.247 C 
ATOM     22  C   UNL     1      -3.470 -10.931  10.494  0.00  0.00    +0.112 A 
ATOM     23  C   UNL     1      -2.764 -10.294  11.430  0.00  0.00    +0.031 A 
ENDROOT
BRANCH  21  24
ATOM     24  C   UNL     1      -5.496 -12.220  15.071  0.00  0.00    +0.038 A 
ATOM     25  C   UNL     1      -5.721 -12.026  16.433  0.00  0.00    +0.028 A 
ATOM     26  C   UNL     1      -5.508 -11.138  14.195  0.00  0.00    +0.013 A 
ATOM     27  C   UNL     1      -5.960 -10.741  16.919  0.00  0.00    +0.060 A 
ATOM     28  C   UNL     1      -5.747  -9.853  14.682  0.00  0.00    +0.002 A 
ATOM     30  C   UNL     1      -5.973  -9.655  16.043  0.00  0.00    +0.015 A 
BRANCH  27  33
ATOM      8  O   UNL     1      -5.498 -10.983  19.253  0.00  0.00    -0.245 OA
ATOM     33  C   UNL     1      -6.195 -10.532  18.339  0.00  0.00    +0.337 C 
BRANCH  33   7
ATOM      7  O   UNL     1      -7.294  -9.765  18.578  0.00  0.00    -0.477 OA
ATOM     38  H   UNL     1      -8.054 -10.301  18.888  0.00  0.00    +0.295 HD
ENDBRANCH  33   7
ENDBRANCH  27  33
ENDBRANCH  21  24
BRANCH  22  11
ATOM     11  N   UNL     1      -4.054 -10.158   9.477  0.00  0.00    -0.211 N 
ATOM     37  H   UNL     1      -3.365  -9.599   8.953  0.00  0.00    +0.174 HD
BRANCH  11   2
ATOM      2  S   UNL     1      -5.484  -9.336   9.859  0.00  0.00    +0.072 S 
ATOM      5  O   UNL     1      -6.340 -10.190  10.660  0.00  0.00    -0.150 OA
ATOM      6  O   UNL     1      -5.170  -7.991  10.305  0.00  0.00    -0.150 OA
BRANCH   2  29
ATOM      1 CL   UNL     1      -8.100  -8.864   4.195  0.00  0.00    -0.084 Cl
ATOM     29  C   UNL     1      -6.223  -9.202   8.258  0.00  0.00    +0.109 A 
ATOM     31  C   UNL     1      -5.700  -9.938   7.210  0.00  0.00    +0.030 A 
ATOM     32  C   UNL     1      -7.311  -8.365   8.084  0.00  0.00    +0.030 A 
ATOM     34  C   UNL     1      -6.283  -9.833   5.947  0.00  0.00    +0.022 A 
ATOM     35  C   UNL     1      -7.894  -8.259   6.821  0.00  0.00    +0.022 A 
ATOM     36  C   UNL     1      -7.380  -8.993   5.753  0.00  0.00    +0.041 A 
ENDBRANCH   2  29
ENDBRANCH  11   2
ENDBRANCH  22  11
TORSDOF 6
ENDMDL
