MODEL 1
REMARK VINA RESULT:      -5.9      0.000      0.000
REMARK  Name = 45783431
REMARK  8 active torsions:
REMARK  status: ('A' for Active; 'I' for Inactive)
REMARK    1  A    between atoms: O_2  and  C_19
REMARK    2  A    between atoms: O_2  and  C_23
REMARK    3  A    between atoms: O_3  and  C_24
REMARK    4  A    between atoms: O_3  and  C_25
REMARK    5  A    between atoms: N_4  and  C_8
REMARK    6  A    between atoms: C_11  and  C_16
REMARK    7  A    between atoms: C_17  and  C_18
REMARK    8  A    between atoms: C_23  and  C_24
REMARK                            x       y       z     vdW  Elec       q    Type
REMARK                         _______ _______ _______ _____ _____    ______ ____
ROOT
ATOM      1  O   UNL     1      -2.330 -10.432  14.722  0.00  0.00    -0.336 OA
ATOM      5  N   UNL     1      -4.462 -11.086  14.929  0.00  0.00    -0.190 NA
ATOM      6  N   UNL     1      -2.612 -10.413  16.094  0.00  0.00    -0.056 NA
ATOM     16  C   UNL     1      -3.472 -10.839  14.109  0.00  0.00    +0.245 A 
ATOM     17  C   UNL     1      -3.887 -10.811  16.135  0.00  0.00    +0.207 A 
ENDROOT
BRANCH  17  18
ATOM      7  N   UNL     1      -6.558 -10.421  18.704  0.00  0.00    -0.221 NA
ATOM     18  C   UNL     1      -4.616 -10.943  17.364  0.00  0.00    +0.084 A 
ATOM     19  C   UNL     1      -5.839 -10.323  17.564  0.00  0.00    +0.226 A 
ATOM     20  C   UNL     1      -4.098 -11.712  18.400  0.00  0.00    +0.018 A 
ATOM     21  C   UNL     1      -4.809 -11.836  19.588  0.00  0.00    +0.021 A 
ATOM     22  C   UNL     1      -6.024 -11.177  19.689  0.00  0.00    +0.114 A 
BRANCH  19   2
ATOM      2  O   UNL     1      -6.390  -9.554  16.571  0.00  0.00    -0.474 OA
BRANCH   2  23
ATOM     23  C   UNL     1      -7.763  -9.215  16.716  0.00  0.00    +0.258 C 
BRANCH  23  24
ATOM     24  C   UNL     1      -8.535  -9.757  15.528  0.00  0.00    +0.200 C 
BRANCH  24   3
ATOM      3  O   UNL     1      -9.410  -8.746  15.043  0.00  0.00    -0.380 OA
ATOM     25  C   UNL     1      -9.803  -7.856  16.078  0.00  0.00    +0.194 C 
ENDBRANCH  24   3
ENDBRANCH  23  24
ENDBRANCH   2  23
ENDBRANCH  19   2
ENDBRANCH  17  18
BRANCH  16  11
ATOM      4  N   UNL     1      -4.173  -9.853  11.938  0.00  0.00    -0.288 NA
ATOM     11  C   UNL     1      -3.425 -10.944  12.599  0.00  0.00    +0.146 C 
ATOM     13  C   UNL     1      -3.505  -9.607  10.659  0.00  0.00    +0.085 C 
ATOM     14  C   UNL     1      -1.996 -10.838  12.036  0.00  0.00    +0.030 C 
ATOM     15  C   UNL     1      -2.043  -9.679  11.049  0.00  0.00    +0.017 C 
BRANCH   4   8
ATOM      8  C   UNL     1      -5.579 -10.220  11.721  0.00  0.00    +0.057 C 
ATOM      9  C   UNL     1      -6.033  -9.727  10.331  0.00  0.00    +0.019 C 
ATOM     10  C   UNL     1      -6.496  -9.132  12.320  0.00  0.00    +0.019 C 
ATOM     12  C   UNL     1      -7.317  -9.215  11.017  0.00  0.00    +0.003 C 
ENDBRANCH   4   8
ENDBRANCH  16  11
TORSDOF 7
ENDMDL
MODEL 2
REMARK VINA RESULT:      -5.9      1.977      4.187
REMARK  Name = 45783431
REMARK  8 active torsions:
REMARK  status: ('A' for Active; 'I' for Inactive)
REMARK    1  A    between atoms: O_2  and  C_19
REMARK    2  A    between atoms: O_2  and  C_23
REMARK    3  A    between atoms: O_3  and  C_24
REMARK    4  A    between atoms: O_3  and  C_25
REMARK    5  A    between atoms: N_4  and  C_8
REMARK    6  A    between atoms: C_11  and  C_16
REMARK    7  A    between atoms: C_17  and  C_18
REMARK    8  A    between atoms: C_23  and  C_24
REMARK                            x       y       z     vdW  Elec       q    Type
REMARK                         _______ _______ _______ _____ _____    ______ ____
ROOT
ATOM      1  O   UNL     1      -5.203 -12.404  15.505  0.00  0.00    -0.336 OA
ATOM      5  N   UNL     1      -5.341 -10.179  15.290  0.00  0.00    -0.190 NA
ATOM      6  N   UNL     1      -6.520 -12.062  15.837  0.00  0.00    -0.056 NA
ATOM     16  C   UNL     1      -4.577 -11.238  15.197  0.00  0.00    +0.245 A 
ATOM     17  C   UNL     1      -6.523 -10.734  15.685  0.00  0.00    +0.207 A 
ENDROOT
BRANCH  17  18
ATOM      7  N   UNL     1      -9.085  -8.679  17.446  0.00  0.00    -0.221 NA
ATOM     18  C   UNL     1      -7.689  -9.933  15.922  0.00  0.00    +0.084 A 
ATOM     19  C   UNL     1      -7.998  -9.437  17.178  0.00  0.00    +0.226 A 
ATOM     20  C   UNL     1      -8.551  -9.631  14.872  0.00  0.00    +0.018 A 
ATOM     21  C   UNL     1      -9.679  -8.854  15.109  0.00  0.00    +0.021 A 
ATOM     22  C   UNL     1      -9.899  -8.406  16.401  0.00  0.00    +0.114 A 
BRANCH  19   2
ATOM      2  O   UNL     1      -7.179  -9.707  18.244  0.00  0.00    -0.474 OA
BRANCH   2  23
ATOM     23  C   UNL     1      -7.608 -10.729  19.136  0.00  0.00    +0.258 C 
BRANCH  23  24
ATOM     24  C   UNL     1      -6.442 -11.654  19.425  0.00  0.00    +0.200 C 
BRANCH  24   3
ATOM      3  O   UNL     1      -5.238 -11.034  18.991  0.00  0.00    -0.380 OA
ATOM     25  C   UNL     1      -4.151 -11.949  18.990  0.00  0.00    +0.194 C 
ENDBRANCH  24   3
ENDBRANCH  23  24
ENDBRANCH   2  23
ENDBRANCH  19   2
ENDBRANCH  17  18
BRANCH  16  11
ATOM      4  N   UNL     1      -2.741 -10.321  13.796  0.00  0.00    -0.288 NA
ATOM     11  C   UNL     1      -3.120 -11.340  14.797  0.00  0.00    +0.146 C 
ATOM     13  C   UNL     1      -1.327 -10.017  14.026  0.00  0.00    +0.085 C 
ATOM     14  C   UNL     1      -2.159 -11.106  15.978  0.00  0.00    +0.030 C 
ATOM     15  C   UNL     1      -1.262  -9.958  15.539  0.00  0.00    +0.017 C 
BRANCH   4   8
ATOM      8  C   UNL     1      -2.943 -10.812  12.426  0.00  0.00    +0.057 C 
ATOM      9  C   UNL     1      -1.985 -10.076  11.466  0.00  0.00    +0.019 C 
ATOM     10  C   UNL     1      -4.091 -10.025  11.759  0.00  0.00    +0.019 C 
ATOM     12  C   UNL     1      -3.188  -9.913  10.514  0.00  0.00    +0.003 C 
ENDBRANCH   4   8
ENDBRANCH  16  11
TORSDOF 7
ENDMDL
MODEL 3
REMARK VINA RESULT:      -5.8     22.726     25.909
REMARK  Name = 45783431
REMARK  8 active torsions:
REMARK  status: ('A' for Active; 'I' for Inactive)
REMARK    1  A    between atoms: O_2  and  C_19
REMARK    2  A    between atoms: O_2  and  C_23
REMARK    3  A    between atoms: O_3  and  C_24
REMARK    4  A    between atoms: O_3  and  C_25
REMARK    5  A    between atoms: N_4  and  C_8
REMARK    6  A    between atoms: C_11  and  C_16
REMARK    7  A    between atoms: C_17  and  C_18
REMARK    8  A    between atoms: C_23  and  C_24
REMARK                            x       y       z     vdW  Elec       q    Type
REMARK                         _______ _______ _______ _____ _____    ______ ____
ROOT
ATOM      1  O   UNL     1      11.369   6.728   4.537  0.00  0.00    -0.336 OA
ATOM      5  N   UNL     1      10.325   4.999   3.569  0.00  0.00    -0.190 NA
ATOM      6  N   UNL     1      12.150   6.371   3.430  0.00  0.00    -0.056 NA
ATOM     16  C   UNL     1      10.316   5.871   4.545  0.00  0.00    +0.245 A 
ATOM     17  C   UNL     1      11.469   5.345   2.911  0.00  0.00    +0.207 A 
ENDROOT
BRANCH  17  18
ATOM      7  N   UNL     1      11.611   4.105  -0.600  0.00  0.00    -0.221 NA
ATOM     18  C   UNL     1      11.905   4.644   1.738  0.00  0.00    +0.084 A 
ATOM     19  C   UNL     1      11.236   4.747   0.529  0.00  0.00    +0.226 A 
ATOM     20  C   UNL     1      13.031   3.830   1.792  0.00  0.00    +0.018 A 
ATOM     21  C   UNL     1      13.448   3.153   0.651  0.00  0.00    +0.021 A 
ATOM     22  C   UNL     1      12.711   3.323  -0.509  0.00  0.00    +0.114 A 
BRANCH  19   2
ATOM      2  O   UNL     1      10.120   5.537   0.426  0.00  0.00    -0.474 OA
BRANCH   2  23
ATOM     23  C   UNL     1      10.277   6.778  -0.251  0.00  0.00    +0.258 C 
BRANCH  23  24
ATOM     24  C   UNL     1       9.561   7.862   0.530  0.00  0.00    +0.200 C 
BRANCH  24   3
ATOM      3  O   UNL     1      10.489   8.495   1.403  0.00  0.00    -0.380 OA
ATOM     25  C   UNL     1       9.833   9.103   2.508  0.00  0.00    +0.194 C 
ENDBRANCH  24   3
ENDBRANCH  23  24
ENDBRANCH   2  23
ENDBRANCH  19   2
ENDBRANCH  17  18
BRANCH  16  11
ATOM      4  N   UNL     1       9.915   6.645   6.873  0.00  0.00    -0.288 NA
ATOM     11  C   UNL     1       9.308   6.052   5.662  0.00  0.00    +0.146 C 
ATOM     13  C   UNL     1       8.858   7.417   7.530  0.00  0.00    +0.085 C 
ATOM     14  C   UNL     1       8.164   7.011   5.285  0.00  0.00    +0.030 C 
ATOM     15  C   UNL     1       8.186   8.095   6.353  0.00  0.00    +0.017 C 
BRANCH   4   8
ATOM      8  C   UNL     1      10.432   5.610   7.777  0.00  0.00    +0.057 C 
ATOM      9  C   UNL     1       9.730   4.267   7.482  0.00  0.00    +0.019 C 
ATOM     10  C   UNL     1       9.644   5.642   9.104  0.00  0.00    +0.019 C 
ATOM     12  C   UNL     1       9.570   4.104   9.008  0.00  0.00    +0.003 C 
ENDBRANCH   4   8
ENDBRANCH  16  11
TORSDOF 7
ENDMDL
MODEL 4
REMARK VINA RESULT:      -5.7     27.287     28.969
REMARK  Name = 45783431
REMARK  8 active torsions:
REMARK  status: ('A' for Active; 'I' for Inactive)
REMARK    1  A    between atoms: O_2  and  C_19
REMARK    2  A    between atoms: O_2  and  C_23
REMARK    3  A    between atoms: O_3  and  C_24
REMARK    4  A    between atoms: O_3  and  C_25
REMARK    5  A    between atoms: N_4  and  C_8
REMARK    6  A    between atoms: C_11  and  C_16
REMARK    7  A    between atoms: C_17  and  C_18
REMARK    8  A    between atoms: C_23  and  C_24
REMARK                            x       y       z     vdW  Elec       q    Type
REMARK                         _______ _______ _______ _____ _____    ______ ____
ROOT
ATOM      1  O   UNL     1      14.361  11.417  20.836  0.00  0.00    -0.336 OA
ATOM      5  N   UNL     1      14.092   9.364  21.690  0.00  0.00    -0.190 NA
ATOM      6  N   UNL     1      15.241  10.583  20.132  0.00  0.00    -0.056 NA
ATOM     16  C   UNL     1      13.725  10.620  21.733  0.00  0.00    +0.245 A 
ATOM     17  C   UNL     1      15.023   9.391  20.694  0.00  0.00    +0.207 A 
ENDROOT
BRANCH  17  18
ATOM      7  N   UNL     1      15.818   6.209  18.924  0.00  0.00    -0.221 NA
ATOM     18  C   UNL     1      15.719   8.205  20.283  0.00  0.00    +0.084 A 
ATOM     19  C   UNL     1      15.197   7.335  19.340  0.00  0.00    +0.226 A 
ATOM     20  C   UNL     1      16.960   7.901  20.834  0.00  0.00    +0.018 A 
ATOM     21  C   UNL     1      17.629   6.751  20.431  0.00  0.00    +0.021 A 
ATOM     22  C   UNL     1      17.022   5.945  19.482  0.00  0.00    +0.114 A 
BRANCH  19   2
ATOM      2  O   UNL     1      13.977   7.592  18.768  0.00  0.00    -0.474 OA
BRANCH   2  23
ATOM     23  C   UNL     1      12.849   6.962  19.361  0.00  0.00    +0.258 C 
BRANCH  23  24
ATOM     24  C   UNL     1      11.674   7.920  19.331  0.00  0.00    +0.200 C 
BRANCH  24   3
ATOM      3  O   UNL     1      10.915   7.761  20.524  0.00  0.00    -0.380 OA
ATOM     25  C   UNL     1      11.329   6.616  21.256  0.00  0.00    +0.194 C 
ENDBRANCH  24   3
ENDBRANCH  23  24
ENDBRANCH   2  23
ENDBRANCH  19   2
ENDBRANCH  17  18
BRANCH  16  11
ATOM      4  N   UNL     1      13.039  12.710  22.890  0.00  0.00    -0.288 NA
ATOM     11  C   UNL     1      12.706  11.293  22.629  0.00  0.00    +0.146 C 
ATOM     13  C   UNL     1      11.766  13.407  23.081  0.00  0.00    +0.085 C 
ATOM     14  C   UNL     1      11.296  11.329  22.010  0.00  0.00    +0.030 C 
ATOM     15  C   UNL     1      10.909  12.801  21.988  0.00  0.00    +0.017 C 
BRANCH   4   8
ATOM      8  C   UNL     1      13.885  12.852  24.083  0.00  0.00    +0.057 C 
ATOM      9  C   UNL     1      13.448  11.828  25.152  0.00  0.00    +0.019 C 
ATOM     10  C   UNL     1      13.302  13.945  25.003  0.00  0.00    +0.019 C 
ATOM     12  C   UNL     1      13.542  12.976  26.179  0.00  0.00    +0.003 C 
ENDBRANCH   4   8
ENDBRANCH  16  11
TORSDOF 7
ENDMDL
MODEL 5
REMARK VINA RESULT:      -5.7     22.393     24.819
REMARK  Name = 45783431
REMARK  8 active torsions:
REMARK  status: ('A' for Active; 'I' for Inactive)
REMARK    1  A    between atoms: O_2  and  C_19
REMARK    2  A    between atoms: O_2  and  C_23
REMARK    3  A    between atoms: O_3  and  C_24
REMARK    4  A    between atoms: O_3  and  C_25
REMARK    5  A    between atoms: N_4  and  C_8
REMARK    6  A    between atoms: C_11  and  C_16
REMARK    7  A    between atoms: C_17  and  C_18
REMARK    8  A    between atoms: C_23  and  C_24
REMARK                            x       y       z     vdW  Elec       q    Type
REMARK                         _______ _______ _______ _____ _____    ______ ____
ROOT
ATOM      1  O   UNL     1      11.686   5.978   3.794  0.00  0.00    -0.336 OA
ATOM      5  N   UNL     1      10.215   4.498   4.608  0.00  0.00    -0.190 NA
ATOM      6  N   UNL     1      11.447   6.356   5.122  0.00  0.00    -0.056 NA
ATOM     16  C   UNL     1      10.922   4.877   3.574  0.00  0.00    +0.245 A 
ATOM     17  C   UNL     1      10.570   5.436   5.533  0.00  0.00    +0.207 A 
ENDROOT
BRANCH  17  18
ATOM      7  N   UNL     1       8.971   6.594   8.694  0.00  0.00    -0.221 NA
ATOM     18  C   UNL     1      10.029   5.425   6.862  0.00  0.00    +0.084 A 
ATOM     19  C   UNL     1       9.491   6.560   7.447  0.00  0.00    +0.226 A 
ATOM     20  C   UNL     1      10.035   4.249   7.606  0.00  0.00    +0.018 A 
ATOM     21  C   UNL     1       9.509   4.245   8.893  0.00  0.00    +0.021 A 
ATOM     22  C   UNL     1       8.993   5.432   9.386  0.00  0.00    +0.114 A 
BRANCH  19   2
ATOM      2  O   UNL     1       9.463   7.742   6.753  0.00  0.00    -0.474 OA
BRANCH   2  23
ATOM     23  C   UNL     1       8.200   8.155   6.246  0.00  0.00    +0.258 C 
BRANCH  23  24
ATOM     24  C   UNL     1       8.415   9.227   5.195  0.00  0.00    +0.200 C 
BRANCH  24   3
ATOM      3  O   UNL     1       9.224   8.698   4.152  0.00  0.00    -0.380 OA
ATOM     25  C   UNL     1       8.497   7.786   3.339  0.00  0.00    +0.194 C 
ENDBRANCH  24   3
ENDBRANCH  23  24
ENDBRANCH   2  23
ENDBRANCH  19   2
ENDBRANCH  17  18
BRANCH  16  11
ATOM      4  N   UNL     1      11.309   5.271   1.150  0.00  0.00    -0.288 NA
ATOM     11  C   UNL     1      11.003   4.266   2.190  0.00  0.00    +0.146 C 
ATOM     13  C   UNL     1      12.056   4.572   0.103  0.00  0.00    +0.085 C 
ATOM     14  C   UNL     1      12.125   3.217   2.065  0.00  0.00    +0.030 C 
ATOM     15  C   UNL     1      12.995   3.703   0.914  0.00  0.00    +0.017 C 
BRANCH   4   8
ATOM      8  C   UNL     1      10.083   5.863   0.598  0.00  0.00    +0.057 C 
ATOM      9  C   UNL     1       9.833   5.306  -0.819  0.00  0.00    +0.019 C 
ATOM     10  C   UNL     1      10.418   7.211  -0.075  0.00  0.00    +0.019 C 
ATOM     12  C   UNL     1       9.531   6.756  -1.252  0.00  0.00    +0.003 C 
ENDBRANCH   4   8
ENDBRANCH  16  11
TORSDOF 7
ENDMDL
MODEL 6
REMARK VINA RESULT:      -5.7     26.365     27.805
REMARK  Name = 45783431
REMARK  8 active torsions:
REMARK  status: ('A' for Active; 'I' for Inactive)
REMARK    1  A    between atoms: O_2  and  C_19
REMARK    2  A    between atoms: O_2  and  C_23
REMARK    3  A    between atoms: O_3  and  C_24
REMARK    4  A    between atoms: O_3  and  C_25
REMARK    5  A    between atoms: N_4  and  C_8
REMARK    6  A    between atoms: C_11  and  C_16
REMARK    7  A    between atoms: C_17  and  C_18
REMARK    8  A    between atoms: C_23  and  C_24
REMARK                            x       y       z     vdW  Elec       q    Type
REMARK                         _______ _______ _______ _____ _____    ______ ____
ROOT
ATOM      1  O   UNL     1      13.355  12.252  18.797  0.00  0.00    -0.336 OA
ATOM      5  N   UNL     1      13.094  10.636  20.326  0.00  0.00    -0.190 NA
ATOM      6  N   UNL     1      12.626  12.824  19.848  0.00  0.00    -0.056 NA
ATOM     16  C   UNL     1      13.588  10.964  19.159  0.00  0.00    +0.245 A 
ATOM     17  C   UNL     1      12.513  11.809  20.710  0.00  0.00    +0.207 A 
ENDROOT
BRANCH  17  18
ATOM      7  N   UNL     1      10.995  10.926  23.997  0.00  0.00    -0.221 NA
ATOM     18  C   UNL     1      11.825  11.934  21.963  0.00  0.00    +0.084 A 
ATOM     19  C   UNL     1      11.636  10.853  22.809  0.00  0.00    +0.226 A 
ATOM     20  C   UNL     1      11.325  13.169  22.362  0.00  0.00    +0.018 A 
ATOM     21  C   UNL     1      10.660  13.283  23.577  0.00  0.00    +0.021 A 
ATOM     22  C   UNL     1      10.522  12.142  24.351  0.00  0.00    +0.114 A 
BRANCH  19   2
ATOM      2  O   UNL     1      12.111   9.615  22.459  0.00  0.00    -0.474 OA
BRANCH   2  23
ATOM     23  C   UNL     1      11.161   8.559  22.405  0.00  0.00    +0.258 C 
BRANCH  23  24
ATOM     24  C   UNL     1      10.731   8.352  20.966  0.00  0.00    +0.200 C 
BRANCH  24   3
ATOM      3  O   UNL     1      11.151   7.062  20.537  0.00  0.00    -0.380 OA
ATOM     25  C   UNL     1      11.239   6.153  21.627  0.00  0.00    +0.194 C 
ENDBRANCH  24   3
ENDBRANCH  23  24
ENDBRANCH   2  23
ENDBRANCH  19   2
ENDBRANCH  17  18
BRANCH  16  11
ATOM      4  N   UNL     1      14.229   8.671  18.443  0.00  0.00    -0.288 NA
ATOM     11  C   UNL     1      14.372  10.119  18.176  0.00  0.00    +0.146 C 
ATOM     13  C   UNL     1      14.352   7.997  17.149  0.00  0.00    +0.085 C 
ATOM     14  C   UNL     1      13.898  10.299  16.722  0.00  0.00    +0.030 C 
ATOM     15  C   UNL     1      13.535   8.899  16.246  0.00  0.00    +0.017 C 
BRANCH   4   8
ATOM      8  C   UNL     1      15.261   8.192  19.371  0.00  0.00    +0.057 C 
ATOM      9  C   UNL     1      15.638   6.737  19.019  0.00  0.00    +0.019 C 
ATOM     10  C   UNL     1      14.591   7.628  20.643  0.00  0.00    +0.019 C 
ATOM     12  C   UNL     1      15.559   6.432  20.529  0.00  0.00    +0.003 C 
ENDBRANCH   4   8
ENDBRANCH  16  11
TORSDOF 7
ENDMDL
MODEL 7
REMARK VINA RESULT:      -5.6      1.859      7.198
REMARK  Name = 45783431
REMARK  8 active torsions:
REMARK  status: ('A' for Active; 'I' for Inactive)
REMARK    1  A    between atoms: O_2  and  C_19
REMARK    2  A    between atoms: O_2  and  C_23
REMARK    3  A    between atoms: O_3  and  C_24
REMARK    4  A    between atoms: O_3  and  C_25
REMARK    5  A    between atoms: N_4  and  C_8
REMARK    6  A    between atoms: C_11  and  C_16
REMARK    7  A    between atoms: C_17  and  C_18
REMARK    8  A    between atoms: C_23  and  C_24
REMARK                            x       y       z     vdW  Elec       q    Type
REMARK                         _______ _______ _______ _____ _____    ______ ____
ROOT
ATOM      1  O   UNL     1      -7.842 -11.403  13.393  0.00  0.00    -0.336 OA
ATOM      5  N   UNL     1      -6.251  -9.891  13.840  0.00  0.00    -0.190 NA
ATOM      6  N   UNL     1      -7.091 -11.268  12.218  0.00  0.00    -0.056 NA
ATOM     16  C   UNL     1      -7.281 -10.558  14.297  0.00  0.00    +0.245 A 
ATOM     17  C   UNL     1      -6.173 -10.360  12.562  0.00  0.00    +0.207 A 
ENDROOT
BRANCH  17  18
ATOM      7  N   UNL     1      -2.846  -9.816  10.974  0.00  0.00    -0.221 NA
ATOM     18  C   UNL     1      -5.164  -9.899  11.651  0.00  0.00    +0.084 A 
ATOM     19  C   UNL     1      -3.827 -10.227  11.807  0.00  0.00    +0.226 A 
ATOM     20  C   UNL     1      -5.517  -9.096  10.571  0.00  0.00    +0.018 A 
ATOM     21  C   UNL     1      -4.534  -8.653   9.693  0.00  0.00    +0.021 A 
ATOM     22  C   UNL     1      -3.226  -9.037   9.935  0.00  0.00    +0.114 A 
BRANCH  19   2
ATOM      2  O   UNL     1      -3.431 -11.016  12.856  0.00  0.00    -0.474 OA
BRANCH   2  23
ATOM     23  C   UNL     1      -2.159 -10.731  13.424  0.00  0.00    +0.258 C 
BRANCH  23  24
ATOM     24  C   UNL     1      -1.741 -11.890  14.309  0.00  0.00    +0.200 C 
BRANCH  24   3
ATOM      3  O   UNL     1      -1.431 -11.394  15.606  0.00  0.00    -0.380 OA
ATOM     25  C   UNL     1      -1.099 -10.013  15.571  0.00  0.00    +0.194 C 
ENDBRANCH  24   3
ENDBRANCH  23  24
ENDBRANCH   2  23
ENDBRANCH  19   2
ENDBRANCH  17  18
BRANCH  16  11
ATOM      4  N   UNL     1      -6.989 -10.026  16.707  0.00  0.00    -0.288 NA
ATOM     11  C   UNL     1      -7.920 -10.518  15.669  0.00  0.00    +0.146 C 
ATOM     13  C   UNL     1      -7.809  -9.355  17.717  0.00  0.00    +0.085 C 
ATOM     14  C   UNL     1      -9.127  -9.564  15.740  0.00  0.00    +0.030 C 
ATOM     15  C   UNL     1      -8.797  -8.588  16.861  0.00  0.00    +0.017 C 
BRANCH   4   8
ATOM      8  C   UNL     1      -6.228 -11.127  17.312  0.00  0.00    +0.057 C 
ATOM      9  C   UNL     1      -6.170 -10.935  18.843  0.00  0.00    +0.019 C 
ATOM     10  C   UNL     1      -4.722 -10.788  17.291  0.00  0.00    +0.019 C 
ATOM     12  C   UNL     1      -4.669 -11.281  18.752  0.00  0.00    +0.003 C 
ENDBRANCH   4   8
ENDBRANCH  16  11
TORSDOF 7
ENDMDL
MODEL 8
REMARK VINA RESULT:      -5.6     22.958     26.719
REMARK  Name = 45783431
REMARK  8 active torsions:
REMARK  status: ('A' for Active; 'I' for Inactive)
REMARK    1  A    between atoms: O_2  and  C_19
REMARK    2  A    between atoms: O_2  and  C_23
REMARK    3  A    between atoms: O_3  and  C_24
REMARK    4  A    between atoms: O_3  and  C_25
REMARK    5  A    between atoms: N_4  and  C_8
REMARK    6  A    between atoms: C_11  and  C_16
REMARK    7  A    between atoms: C_17  and  C_18
REMARK    8  A    between atoms: C_23  and  C_24
REMARK                            x       y       z     vdW  Elec       q    Type
REMARK                         _______ _______ _______ _____ _____    ______ ____
ROOT
ATOM      1  O   UNL     1      10.313   7.331   3.457  0.00  0.00    -0.336 OA
ATOM      5  N   UNL     1      11.177   5.335   3.991  0.00  0.00    -0.190 NA
ATOM      6  N   UNL     1      11.302   7.065   2.501  0.00  0.00    -0.056 NA
ATOM     16  C   UNL     1      10.306   6.262   4.297  0.00  0.00    +0.245 A 
ATOM     17  C   UNL     1      11.764   5.872   2.883  0.00  0.00    +0.207 A 
ENDROOT
BRANCH  17  18
ATOM      7  N   UNL     1      15.086   5.139   1.360  0.00  0.00    -0.221 NA
ATOM     18  C   UNL     1      12.813   5.189   2.181  0.00  0.00    +0.084 A 
ATOM     19  C   UNL     1      14.070   5.746   2.014  0.00  0.00    +0.226 A 
ATOM     20  C   UNL     1      12.582   3.927   1.643  0.00  0.00    +0.018 A 
ATOM     21  C   UNL     1      13.603   3.271   0.963  0.00  0.00    +0.021 A 
ATOM     22  C   UNL     1      14.825   3.913   0.851  0.00  0.00    +0.114 A 
BRANCH  19   2
ATOM      2  O   UNL     1      14.345   6.988   2.527  0.00  0.00    -0.474 OA
BRANCH   2  23
ATOM     23  C   UNL     1      15.266   7.042   3.609  0.00  0.00    +0.258 C 
BRANCH  23  24
ATOM     24  C   UNL     1      14.520   7.413   4.876  0.00  0.00    +0.200 C 
BRANCH  24   3
ATOM      3  O   UNL     1      15.460   7.788   5.875  0.00  0.00    -0.380 OA
ATOM     25  C   UNL     1      16.568   8.480   5.315  0.00  0.00    +0.194 C 
ENDBRANCH  24   3
ENDBRANCH  23  24
ENDBRANCH   2  23
ENDBRANCH  19   2
ENDBRANCH  17  18
BRANCH  16  11
ATOM      4  N   UNL     1       9.909   6.812   6.688  0.00  0.00    -0.288 NA
ATOM     11  C   UNL     1       9.308   6.306   5.435  0.00  0.00    +0.146 C 
ATOM     13  C   UNL     1       8.835   7.483   7.422  0.00  0.00    +0.085 C 
ATOM     14  C   UNL     1       8.125   7.252   5.157  0.00  0.00    +0.030 C 
ATOM     15  C   UNL     1       8.123   8.237   6.318  0.00  0.00    +0.017 C 
BRANCH   4   8
ATOM      8  C   UNL     1      10.476   5.720   7.491  0.00  0.00    +0.057 C 
ATOM      9  C   UNL     1       9.720   4.409   7.188  0.00  0.00    +0.019 C 
ATOM     10  C   UNL     1       9.801   5.696   8.879  0.00  0.00    +0.019 C 
ATOM     12  C   UNL     1       9.684   4.167   8.711  0.00  0.00    +0.003 C 
ENDBRANCH   4   8
ENDBRANCH  16  11
TORSDOF 7
ENDMDL
MODEL 9
REMARK VINA RESULT:      -5.6     22.412     25.054
REMARK  Name = 45783431
REMARK  8 active torsions:
REMARK  status: ('A' for Active; 'I' for Inactive)
REMARK    1  A    between atoms: O_2  and  C_19
REMARK    2  A    between atoms: O_2  and  C_23
REMARK    3  A    between atoms: O_3  and  C_24
REMARK    4  A    between atoms: O_3  and  C_25
REMARK    5  A    between atoms: N_4  and  C_8
REMARK    6  A    between atoms: C_11  and  C_16
REMARK    7  A    between atoms: C_17  and  C_18
REMARK    8  A    between atoms: C_23  and  C_24
REMARK                            x       y       z     vdW  Elec       q    Type
REMARK                         _______ _______ _______ _____ _____    ______ ____
ROOT
ATOM      1  O   UNL     1       9.047   6.718   3.351  0.00  0.00    -0.336 OA
ATOM      5  N   UNL     1      10.541   5.517   4.510  0.00  0.00    -0.190 NA
ATOM      6  N   UNL     1       8.585   6.691   4.674  0.00  0.00    -0.056 NA
ATOM     16  C   UNL     1      10.202   6.003   3.342  0.00  0.00    +0.245 A 
ATOM     17  C   UNL     1       9.520   5.965   5.294  0.00  0.00    +0.207 A 
ENDROOT
BRANCH  17  18
ATOM      7  N   UNL     1       9.010   6.379   8.963  0.00  0.00    -0.221 NA
ATOM     18  C   UNL     1       9.462   5.669   6.697  0.00  0.00    +0.084 A 
ATOM     19  C   UNL     1       9.079   6.615   7.633  0.00  0.00    +0.226 A 
ATOM     20  C   UNL     1       9.796   4.398   7.154  0.00  0.00    +0.018 A 
ATOM     21  C   UNL     1       9.737   4.118   8.514  0.00  0.00    +0.021 A 
ATOM     22  C   UNL     1       9.342   5.133   9.369  0.00  0.00    +0.114 A 
BRANCH  19   2
ATOM      2  O   UNL     1       8.740   7.882   7.232  0.00  0.00    -0.474 OA
BRANCH   2  23
ATOM     23  C   UNL     1       9.376   8.958   7.909  0.00  0.00    +0.258 C 
BRANCH  23  24
ATOM     24  C   UNL     1       9.879   9.958   6.887  0.00  0.00    +0.200 C 
BRANCH  24   3
ATOM      3  O   UNL     1      10.487   9.255   5.810  0.00  0.00    -0.380 OA
ATOM     25  C   UNL     1      11.216  10.132   4.961  0.00  0.00    +0.194 C 
ENDBRANCH  24   3
ENDBRANCH  23  24
ENDBRANCH   2  23
ENDBRANCH  19   2
ENDBRANCH  17  18
BRANCH  16  11
ATOM      4  N   UNL     1      11.068   4.473   1.585  0.00  0.00    -0.288 NA
ATOM     11  C   UNL     1      10.909   5.881   2.008  0.00  0.00    +0.146 C 
ATOM     13  C   UNL     1      11.047   4.476   0.121  0.00  0.00    +0.085 C 
ATOM     14  C   UNL     1      10.136   6.553   0.858  0.00  0.00    +0.030 C 
ATOM     15  C   UNL     1       9.929   5.455  -0.176  0.00  0.00    +0.017 C 
BRANCH   4   8
ATOM      8  C   UNL     1      12.328   3.902   2.079  0.00  0.00    +0.057 C 
ATOM      9  C   UNL     1      13.469   4.923   1.887  0.00  0.00    +0.019 C 
ATOM     10  C   UNL     1      12.990   3.068   0.962  0.00  0.00    +0.019 C 
ATOM     12  C   UNL     1      14.318   3.756   1.342  0.00  0.00    +0.003 C 
ENDBRANCH   4   8
ENDBRANCH  16  11
TORSDOF 7
ENDMDL
MODEL 10
REMARK VINA RESULT:      -5.5     24.031     26.345
REMARK  Name = 45783431
REMARK  8 active torsions:
REMARK  status: ('A' for Active; 'I' for Inactive)
REMARK    1  A    between atoms: O_2  and  C_19
REMARK    2  A    between atoms: O_2  and  C_23
REMARK    3  A    between atoms: O_3  and  C_24
REMARK    4  A    between atoms: O_3  and  C_25
REMARK    5  A    between atoms: N_4  and  C_8
REMARK    6  A    between atoms: C_11  and  C_16
REMARK    7  A    between atoms: C_17  and  C_18
REMARK    8  A    between atoms: C_23  and  C_24
REMARK                            x       y       z     vdW  Elec       q    Type
REMARK                         _______ _______ _______ _____ _____    ______ ____
ROOT
ATOM      1  O   UNL     1      10.966   4.108   2.784  0.00  0.00    -0.336 OA
ATOM      5  N   UNL     1      10.763   6.325   3.025  0.00  0.00    -0.190 NA
ATOM      6  N   UNL     1      10.522   4.318   4.096  0.00  0.00    -0.056 NA
ATOM     16  C   UNL     1      11.082   5.341   2.224  0.00  0.00    +0.245 A 
ATOM     17  C   UNL     1      10.426   5.649   4.161  0.00  0.00    +0.207 A 
ENDROOT
BRANCH  17  18
ATOM      7  N   UNL     1      10.532   7.402   7.448  0.00  0.00    -0.221 NA
ATOM     18  C   UNL     1       9.997   6.335   5.346  0.00  0.00    +0.084 A 
ATOM     19  C   UNL     1      10.892   6.753   6.318  0.00  0.00    +0.226 A 
ATOM     20  C   UNL     1       8.646   6.599   5.547  0.00  0.00    +0.018 A 
ATOM     21  C   UNL     1       8.238   7.264   6.698  0.00  0.00    +0.021 A 
ATOM     22  C   UNL     1       9.211   7.641   7.609  0.00  0.00    +0.114 A 
BRANCH  19   2
ATOM      2  O   UNL     1      12.233   6.516   6.165  0.00  0.00    -0.474 OA
BRANCH   2  23
ATOM     23  C   UNL     1      13.099   7.095   7.133  0.00  0.00    +0.258 C 
BRANCH  23  24
ATOM     24  C   UNL     1      14.478   7.264   6.526  0.00  0.00    +0.200 C 
BRANCH  24   3
ATOM      3  O   UNL     1      14.543   8.521   5.863  0.00  0.00    -0.380 OA
ATOM     25  C   UNL     1      13.875   9.535   6.602  0.00  0.00    +0.194 C 
ENDBRANCH  24   3
ENDBRANCH  23  24
ENDBRANCH   2  23
ENDBRANCH  19   2
ENDBRANCH  17  18
BRANCH  16  11
ATOM      4  N   UNL     1      12.496   4.292   0.469  0.00  0.00    -0.288 NA
ATOM     11  C   UNL     1      11.553   5.386   0.785  0.00  0.00    +0.146 C 
ATOM     13  C   UNL     1      12.308   3.979  -0.948  0.00  0.00    +0.085 C 
ATOM     14  C   UNL     1      10.404   5.219  -0.226  0.00  0.00    +0.030 C 
ATOM     15  C   UNL     1      10.800   4.026  -1.084  0.00  0.00    +0.017 C 
BRANCH   4   8
ATOM      8  C   UNL     1      13.886   4.688   0.728  0.00  0.00    +0.057 C 
ATOM      9  C   UNL     1      14.770   4.289  -0.473  0.00  0.00    +0.019 C 
ATOM     10  C   UNL     1      14.601   3.576   1.524  0.00  0.00    +0.019 C 
ATOM     12  C   UNL     1      15.787   3.750   0.554  0.00  0.00    +0.003 C 
ENDBRANCH   4   8
ENDBRANCH  16  11
TORSDOF 7
ENDMDL
