MODEL 1
REMARK VINA RESULT:      -6.5      0.000      0.000
REMARK  Name = 45783778
REMARK  9 active torsions:
REMARK  status: ('A' for Active; 'I' for Inactive)
REMARK    1  A    between atoms: N_2  and  C_10
REMARK    2  A    between atoms: N_6  and  C_22
REMARK    3  A    between atoms: N_6  and  C_23
REMARK    4  A    between atoms: C_7  and  C_13
REMARK    5  A    between atoms: C_10  and  C_12
REMARK    6  A    between atoms: C_12  and  C_14
REMARK    7  A    between atoms: C_12  and  C_15
REMARK    8  A    between atoms: C_12  and  C_16
REMARK    9  A    between atoms: C_17  and  C_18
REMARK                            x       y       z     vdW  Elec       q    Type
REMARK                         _______ _______ _______ _____ _____    ______ ____
ROOT
ATOM      1  O   UNL     1      15.351   6.592  18.664  0.00  0.00    -0.336 OA
ATOM      3  N   UNL     1      16.517   7.810  20.137  0.00  0.00    -0.190 NA
ATOM      4  N   UNL     1      16.489   5.839  18.979  0.00  0.00    -0.056 NA
ATOM     13  C   UNL     1      15.446   7.738  19.388  0.00  0.00    +0.245 A 
ATOM     17  C   UNL     1      17.126   6.623  19.854  0.00  0.00    +0.204 A 
ENDROOT
BRANCH  17  18
ATOM      5  N   UNL     1      19.992   6.588  22.223  0.00  0.00    -0.240 NA
ATOM     18  C   UNL     1      18.371   6.251  20.460  0.00  0.00    +0.041 A 
ATOM     19  C   UNL     1      19.156   5.237  19.923  0.00  0.00    +0.016 A 
ATOM     20  C   UNL     1      18.829   6.890  21.601  0.00  0.00    +0.124 A 
ATOM     21  C   UNL     1      20.358   4.898  20.533  0.00  0.00    +0.044 A 
ATOM     22  C   UNL     1      20.728   5.597  21.670  0.00  0.00    +0.118 A 
BRANCH  22   6
ATOM      6  N   UNL     1      21.955   5.239  22.282  0.00  0.00    -0.332 N 
ATOM     23  C   UNL     1      22.296   3.889  22.593  0.00  0.00    +0.127 C 
ATOM     24  H   UNL     1      22.495   5.986  22.704  0.00  0.00    +0.147 HD
ENDBRANCH  22   6
ENDBRANCH  17  18
BRANCH  13   7
ATOM      2  N   UNL     1      13.516   9.044  20.421  0.00  0.00    -0.291 NA
ATOM      7  C   UNL     1      14.314   8.742  19.221  0.00  0.00    +0.146 C 
ATOM      8  C   UNL     1      14.767  10.147  18.797  0.00  0.00    +0.030 C 
ATOM      9  C   UNL     1      14.209  10.089  21.163  0.00  0.00    +0.085 C 
ATOM     11  C   UNL     1      14.771  10.988  20.072  0.00  0.00    +0.017 C 
BRANCH   2  10
ATOM     10  C   UNL     1      13.117   7.913  21.239  0.00  0.00    +0.091 C 
BRANCH  10  12
ATOM     12  C   UNL     1      11.583   7.751  21.387  0.00  0.00    -0.025 C 
ATOM     14  C   UNL     1      11.197   6.266  21.507  0.00  0.00    +0.012 C 
ATOM     15  C   UNL     1      11.058   8.512  22.617  0.00  0.00    +0.012 C 
ATOM     16  C   UNL     1      10.911   8.333  20.129  0.00  0.00    +0.012 C 
ENDBRANCH  10  12
ENDBRANCH   2  10
ENDBRANCH  13   7
TORSDOF 5
ENDMDL
MODEL 2
REMARK VINA RESULT:      -6.1      2.065      3.423
REMARK  Name = 45783778
REMARK  9 active torsions:
REMARK  status: ('A' for Active; 'I' for Inactive)
REMARK    1  A    between atoms: N_2  and  C_10
REMARK    2  A    between atoms: N_6  and  C_22
REMARK    3  A    between atoms: N_6  and  C_23
REMARK    4  A    between atoms: C_7  and  C_13
REMARK    5  A    between atoms: C_10  and  C_12
REMARK    6  A    between atoms: C_12  and  C_14
REMARK    7  A    between atoms: C_12  and  C_15
REMARK    8  A    between atoms: C_12  and  C_16
REMARK    9  A    between atoms: C_17  and  C_18
REMARK                            x       y       z     vdW  Elec       q    Type
REMARK                         _______ _______ _______ _____ _____    ______ ____
ROOT
ATOM      1  O   UNL     1      14.214   8.243  21.747  0.00  0.00    -0.336 OA
ATOM      3  N   UNL     1      15.485   8.374  19.908  0.00  0.00    -0.190 NA
ATOM      4  N   UNL     1      15.308   7.396  21.968  0.00  0.00    -0.056 NA
ATOM     13  C   UNL     1      14.396   8.779  20.511  0.00  0.00    +0.245 A 
ATOM     17  C   UNL     1      16.012   7.528  20.839  0.00  0.00    +0.204 A 
ENDROOT
BRANCH  17  18
ATOM      5  N   UNL     1      19.513   6.364  21.302  0.00  0.00    -0.240 NA
ATOM     18  C   UNL     1      17.242   6.828  20.611  0.00  0.00    +0.041 A 
ATOM     19  C   UNL     1      17.386   5.963  19.533  0.00  0.00    +0.016 A 
ATOM     20  C   UNL     1      18.326   6.993  21.459  0.00  0.00    +0.124 A 
ATOM     21  C   UNL     1      18.592   5.298  19.337  0.00  0.00    +0.044 A 
ATOM     22  C   UNL     1      19.615   5.531  20.241  0.00  0.00    +0.118 A 
BRANCH  22   6
ATOM      6  N   UNL     1      20.837   4.845  20.030  0.00  0.00    -0.332 N 
ATOM     23  C   UNL     1      22.102   5.399  20.386  0.00  0.00    +0.127 C 
ATOM     24  H   UNL     1      20.815   4.044  19.409  0.00  0.00    +0.147 HD
ENDBRANCH  22   6
ENDBRANCH  17  18
BRANCH  13   7
ATOM      2  N   UNL     1      12.437   9.270  18.957  0.00  0.00    -0.291 NA
ATOM      7  C   UNL     1      13.327   9.748  20.029  0.00  0.00    +0.146 C 
ATOM      8  C   UNL     1      12.312  10.163  21.104  0.00  0.00    +0.030 C 
ATOM      9  C   UNL     1      11.350   8.527  19.583  0.00  0.00    +0.085 C 
ATOM     11  C   UNL     1      11.067   9.312  20.855  0.00  0.00    +0.017 C 
BRANCH   2  10
ATOM     10  C   UNL     1      13.065   8.567  17.854  0.00  0.00    +0.091 C 
BRANCH  10  12
ATOM     12  C   UNL     1      13.105   9.376  16.532  0.00  0.00    -0.025 C 
ATOM     14  C   UNL     1      11.723   9.385  15.853  0.00  0.00    +0.012 C 
ATOM     15  C   UNL     1      13.558  10.826  16.778  0.00  0.00    +0.012 C 
ATOM     16  C   UNL     1      14.115   8.703  15.583  0.00  0.00    +0.012 C 
ENDBRANCH  10  12
ENDBRANCH   2  10
ENDBRANCH  13   7
TORSDOF 5
ENDMDL
MODEL 3
REMARK VINA RESULT:      -5.8      4.759      7.652
REMARK  Name = 45783778
REMARK  9 active torsions:
REMARK  status: ('A' for Active; 'I' for Inactive)
REMARK    1  A    between atoms: N_2  and  C_10
REMARK    2  A    between atoms: N_6  and  C_22
REMARK    3  A    between atoms: N_6  and  C_23
REMARK    4  A    between atoms: C_7  and  C_13
REMARK    5  A    between atoms: C_10  and  C_12
REMARK    6  A    between atoms: C_12  and  C_14
REMARK    7  A    between atoms: C_12  and  C_15
REMARK    8  A    between atoms: C_12  and  C_16
REMARK    9  A    between atoms: C_17  and  C_18
REMARK                            x       y       z     vdW  Elec       q    Type
REMARK                         _______ _______ _______ _____ _____    ______ ____
ROOT
ATOM      1  O   UNL     1      14.595   9.499  14.661  0.00  0.00    -0.336 OA
ATOM      3  N   UNL     1      14.681  10.206  16.784  0.00  0.00    -0.190 NA
ATOM      4  N   UNL     1      14.100   8.447  15.443  0.00  0.00    -0.056 NA
ATOM     13  C   UNL     1      14.914  10.495  15.529  0.00  0.00    +0.245 A 
ATOM     17  C   UNL     1      14.182   8.941  16.682  0.00  0.00    +0.204 A 
ENDROOT
BRANCH  17  18
ATOM      5  N   UNL     1      12.013   7.078  19.059  0.00  0.00    -0.240 NA
ATOM     18  C   UNL     1      13.775   8.196  17.838  0.00  0.00    +0.041 A 
ATOM     19  C   UNL     1      14.685   7.865  18.835  0.00  0.00    +0.016 A 
ATOM     20  C   UNL     1      12.462   7.782  17.996  0.00  0.00    +0.124 A 
ATOM     21  C   UNL     1      14.261   7.142  19.944  0.00  0.00    +0.044 A 
ATOM     22  C   UNL     1      12.927   6.776  20.008  0.00  0.00    +0.118 A 
BRANCH  22   6
ATOM      6  N   UNL     1      12.511   6.037  21.144  0.00  0.00    -0.332 N 
ATOM     23  C   UNL     1      11.148   5.971  21.562  0.00  0.00    +0.127 C 
ATOM     24  H   UNL     1      13.232   5.740  21.791  0.00  0.00    +0.147 HD
ENDBRANCH  22   6
ENDBRANCH  17  18
BRANCH  13   7
ATOM      2  N   UNL     1      14.522  12.845  14.623  0.00  0.00    -0.291 NA
ATOM      7  C   UNL     1      15.483  11.769  14.920  0.00  0.00    +0.146 C 
ATOM      8  C   UNL     1      16.495  12.503  15.811  0.00  0.00    +0.030 C 
ATOM      9  C   UNL     1      14.335  13.621  15.842  0.00  0.00    +0.085 C 
ATOM     11  C   UNL     1      15.724  13.651  16.462  0.00  0.00    +0.017 C 
BRANCH   2  10
ATOM     10  C   UNL     1      13.279  12.450  13.984  0.00  0.00    +0.091 C 
BRANCH  10  12
ATOM     12  C   UNL     1      12.901  13.311  12.753  0.00  0.00    -0.025 C 
ATOM     14  C   UNL     1      11.844  14.366  13.126  0.00  0.00    +0.012 C 
ATOM     15  C   UNL     1      14.136  14.017  12.165  0.00  0.00    +0.012 C 
ATOM     16  C   UNL     1      12.310  12.382  11.676  0.00  0.00    +0.012 C 
ENDBRANCH  10  12
ENDBRANCH   2  10
ENDBRANCH  13   7
TORSDOF 5
ENDMDL
MODEL 4
REMARK VINA RESULT:      -5.8      2.062      2.847
REMARK  Name = 45783778
REMARK  9 active torsions:
REMARK  status: ('A' for Active; 'I' for Inactive)
REMARK    1  A    between atoms: N_2  and  C_10
REMARK    2  A    between atoms: N_6  and  C_22
REMARK    3  A    between atoms: N_6  and  C_23
REMARK    4  A    between atoms: C_7  and  C_13
REMARK    5  A    between atoms: C_10  and  C_12
REMARK    6  A    between atoms: C_12  and  C_14
REMARK    7  A    between atoms: C_12  and  C_15
REMARK    8  A    between atoms: C_12  and  C_16
REMARK    9  A    between atoms: C_17  and  C_18
REMARK                            x       y       z     vdW  Elec       q    Type
REMARK                         _______ _______ _______ _____ _____    ______ ____
ROOT
ATOM      1  O   UNL     1      13.391   7.814  20.677  0.00  0.00    -0.336 OA
ATOM      3  N   UNL     1      15.138   8.490  19.449  0.00  0.00    -0.190 NA
ATOM      4  N   UNL     1      14.426   6.908  20.939  0.00  0.00    -0.056 NA
ATOM     13  C   UNL     1      13.893   8.713  19.790  0.00  0.00    +0.245 A 
ATOM     17  C   UNL     1      15.422   7.373  20.178  0.00  0.00    +0.204 A 
ENDROOT
BRANCH  17  18
ATOM      5  N   UNL     1      18.872   6.380  21.144  0.00  0.00    -0.240 NA
ATOM     18  C   UNL     1      16.710   6.746  20.125  0.00  0.00    +0.041 A 
ATOM     19  C   UNL     1      17.064   5.924  19.062  0.00  0.00    +0.016 A 
ATOM     20  C   UNL     1      17.642   6.940  21.132  0.00  0.00    +0.124 A 
ATOM     21  C   UNL     1      18.321   5.330  19.037  0.00  0.00    +0.044 A 
ATOM     22  C   UNL     1      19.181   5.587  20.092  0.00  0.00    +0.118 A 
BRANCH  22   6
ATOM      6  N   UNL     1      20.457   4.973  20.054  0.00  0.00    -0.332 N 
ATOM     23  C   UNL     1      21.648   5.644  20.464  0.00  0.00    +0.127 C 
ATOM     24  H   UNL     1      20.543   4.120  19.513  0.00  0.00    +0.147 HD
ENDBRANCH  22   6
ENDBRANCH  17  18
BRANCH  13   7
ATOM      2  N   UNL     1      13.107  11.128  19.994  0.00  0.00    -0.291 NA
ATOM      7  C   UNL     1      12.951   9.819  19.338  0.00  0.00    +0.146 C 
ATOM      8  C   UNL     1      13.085  10.204  17.858  0.00  0.00    +0.030 C 
ATOM      9  C   UNL     1      14.152  11.857  19.287  0.00  0.00    +0.085 C 
ATOM     11  C   UNL     1      13.928  11.478  17.830  0.00  0.00    +0.017 C 
BRANCH   2  10
ATOM     10  C   UNL     1      13.275  11.118  21.436  0.00  0.00    +0.091 C 
BRANCH  10  12
ATOM     12  C   UNL     1      12.030  11.606  22.220  0.00  0.00    -0.025 C 
ATOM     14  C   UNL     1      12.414  12.036  23.647  0.00  0.00    +0.012 C 
ATOM     15  C   UNL     1      11.345  12.783  21.503  0.00  0.00    +0.012 C 
ATOM     16  C   UNL     1      11.028  10.439  22.311  0.00  0.00    +0.012 C 
ENDBRANCH  10  12
ENDBRANCH   2  10
ENDBRANCH  13   7
TORSDOF 5
ENDMDL
MODEL 5
REMARK VINA RESULT:      -5.7     27.114     29.179
REMARK  Name = 45783778
REMARK  9 active torsions:
REMARK  status: ('A' for Active; 'I' for Inactive)
REMARK    1  A    between atoms: N_2  and  C_10
REMARK    2  A    between atoms: N_6  and  C_22
REMARK    3  A    between atoms: N_6  and  C_23
REMARK    4  A    between atoms: C_7  and  C_13
REMARK    5  A    between atoms: C_10  and  C_12
REMARK    6  A    between atoms: C_12  and  C_14
REMARK    7  A    between atoms: C_12  and  C_15
REMARK    8  A    between atoms: C_12  and  C_16
REMARK    9  A    between atoms: C_17  and  C_18
REMARK                            x       y       z     vdW  Elec       q    Type
REMARK                         _______ _______ _______ _____ _____    ______ ____
ROOT
ATOM      1  O   UNL     1      -1.500 -11.063  15.631  0.00  0.00    -0.336 OA
ATOM      3  N   UNL     1      -3.597 -11.666  15.127  0.00  0.00    -0.190 NA
ATOM      4  N   UNL     1      -2.288 -10.685  16.725  0.00  0.00    -0.056 NA
ATOM     13  C   UNL     1      -2.349 -11.633  14.735  0.00  0.00    +0.245 A 
ATOM     17  C   UNL     1      -3.511 -11.074  16.353  0.00  0.00    +0.204 A 
ENDROOT
BRANCH  17  18
ATOM      5  N   UNL     1      -6.918 -10.037  17.422  0.00  0.00    -0.240 NA
ATOM     18  C   UNL     1      -4.667 -10.884  17.181  0.00  0.00    +0.041 A 
ATOM     19  C   UNL     1      -4.688 -11.336  18.496  0.00  0.00    +0.016 A 
ATOM     20  C   UNL     1      -5.797 -10.247  16.696  0.00  0.00    +0.124 A 
ATOM     21  C   UNL     1      -5.823 -11.137  19.275  0.00  0.00    +0.044 A 
ATOM     22  C   UNL     1      -6.901 -10.489  18.697  0.00  0.00    +0.118 A 
BRANCH  22   6
ATOM      6  N   UNL     1      -8.051 -10.296  19.502  0.00  0.00    -0.332 N 
ATOM     23  C   UNL     1      -9.134 -11.225  19.534  0.00  0.00    +0.127 C 
ATOM     24  H   UNL     1      -8.195  -9.369  19.887  0.00  0.00    +0.147 HD
ENDBRANCH  22   6
ENDBRANCH  17  18
BRANCH  13   7
ATOM      2  N   UNL     1      -2.193 -13.446  12.950  0.00  0.00    -0.291 NA
ATOM      7  C   UNL     1      -1.729 -12.136  13.439  0.00  0.00    +0.146 C 
ATOM      8  C   UNL     1      -1.997 -11.244  12.218  0.00  0.00    +0.030 C 
ATOM      9  C   UNL     1      -3.407 -13.225  12.175  0.00  0.00    +0.085 C 
ATOM     11  C   UNL     1      -3.135 -11.915  11.451  0.00  0.00    +0.017 C 
BRANCH   2  10
ATOM     10  C   UNL     1      -2.313 -14.504  13.937  0.00  0.00    +0.091 C 
BRANCH  10  12
ATOM     12  C   UNL     1      -1.424 -15.740  13.647  0.00  0.00    -0.025 C 
ATOM     14  C   UNL     1      -1.364 -16.671  14.872  0.00  0.00    +0.012 C 
ATOM     15  C   UNL     1      -1.946 -16.531  12.435  0.00  0.00    +0.012 C 
ATOM     16  C   UNL     1       0.002 -15.249  13.333  0.00  0.00    +0.012 C 
ENDBRANCH  10  12
ENDBRANCH   2  10
ENDBRANCH  13   7
TORSDOF 5
ENDMDL
MODEL 6
REMARK VINA RESULT:      -5.5      4.293      7.718
REMARK  Name = 45783778
REMARK  9 active torsions:
REMARK  status: ('A' for Active; 'I' for Inactive)
REMARK    1  A    between atoms: N_2  and  C_10
REMARK    2  A    between atoms: N_6  and  C_22
REMARK    3  A    between atoms: N_6  and  C_23
REMARK    4  A    between atoms: C_7  and  C_13
REMARK    5  A    between atoms: C_10  and  C_12
REMARK    6  A    between atoms: C_12  and  C_14
REMARK    7  A    between atoms: C_12  and  C_15
REMARK    8  A    between atoms: C_12  and  C_16
REMARK    9  A    between atoms: C_17  and  C_18
REMARK                            x       y       z     vdW  Elec       q    Type
REMARK                         _______ _______ _______ _____ _____    ______ ____
ROOT
ATOM      1  O   UNL     1      13.653   7.801  16.379  0.00  0.00    -0.336 OA
ATOM      3  N   UNL     1      14.073   9.872  17.121  0.00  0.00    -0.190 NA
ATOM      4  N   UNL     1      14.018   8.551  15.254  0.00  0.00    -0.056 NA
ATOM     13  C   UNL     1      13.711   8.653  17.435  0.00  0.00    +0.245 A 
ATOM     17  C   UNL     1      14.251   9.761  15.773  0.00  0.00    +0.204 A 
ENDROOT
BRANCH  17  18
ATOM      5  N   UNL     1      16.431  12.048  13.812  0.00  0.00    -0.240 NA
ATOM     18  C   UNL     1      14.661  10.878  14.973  0.00  0.00    +0.041 A 
ATOM     19  C   UNL     1      13.750  11.852  14.579  0.00  0.00    +0.016 A 
ATOM     20  C   UNL     1      15.978  11.021  14.567  0.00  0.00    +0.124 A 
ATOM     21  C   UNL     1      14.177  12.924  13.804  0.00  0.00    +0.044 A 
ATOM     22  C   UNL     1      15.515  12.976  13.450  0.00  0.00    +0.118 A 
BRANCH  22   6
ATOM      6  N   UNL     1      15.935  14.073  12.658  0.00  0.00    -0.332 N 
ATOM     23  C   UNL     1      17.238  14.154  12.083  0.00  0.00    +0.127 C 
ATOM     24  H   UNL     1      15.368  14.913  12.695  0.00  0.00    +0.147 HD
ENDBRANCH  22   6
ENDBRANCH  17  18
BRANCH  13   7
ATOM      2  N   UNL     1      14.217   8.455  19.925  0.00  0.00    -0.291 NA
ATOM      7  C   UNL     1      13.353   8.072  18.796  0.00  0.00    +0.146 C 
ATOM      8  C   UNL     1      11.969   8.484  19.319  0.00  0.00    +0.030 C 
ATOM      9  C   UNL     1      13.731   9.727  20.444  0.00  0.00    +0.085 C 
ATOM     11  C   UNL     1      12.219   9.607  20.325  0.00  0.00    +0.017 C 
BRANCH   2  10
ATOM     10  C   UNL     1      15.649   8.429  19.688  0.00  0.00    +0.091 C 
BRANCH  10  12
ATOM     12  C   UNL     1      16.355   7.160  20.228  0.00  0.00    -0.025 C 
ATOM     14  C   UNL     1      15.531   6.512  21.356  0.00  0.00    +0.012 C 
ATOM     15  C   UNL     1      16.582   6.128  19.109  0.00  0.00    +0.012 C 
ATOM     16  C   UNL     1      17.725   7.573  20.797  0.00  0.00    +0.012 C 
ENDBRANCH  10  12
ENDBRANCH   2  10
ENDBRANCH  13   7
TORSDOF 5
ENDMDL
MODEL 7
REMARK VINA RESULT:      -5.4     27.097     30.517
REMARK  Name = 45783778
REMARK  9 active torsions:
REMARK  status: ('A' for Active; 'I' for Inactive)
REMARK    1  A    between atoms: N_2  and  C_10
REMARK    2  A    between atoms: N_6  and  C_22
REMARK    3  A    between atoms: N_6  and  C_23
REMARK    4  A    between atoms: C_7  and  C_13
REMARK    5  A    between atoms: C_10  and  C_12
REMARK    6  A    between atoms: C_12  and  C_14
REMARK    7  A    between atoms: C_12  and  C_15
REMARK    8  A    between atoms: C_12  and  C_16
REMARK    9  A    between atoms: C_17  and  C_18
REMARK                            x       y       z     vdW  Elec       q    Type
REMARK                         _______ _______ _______ _____ _____    ______ ____
ROOT
ATOM      1  O   UNL     1      -9.269 -11.142  20.076  0.00  0.00    -0.336 OA
ATOM      3  N   UNL     1      -8.502 -10.113  18.241  0.00  0.00    -0.190 NA
ATOM      4  N   UNL     1      -7.926 -11.519  19.950  0.00  0.00    -0.056 NA
ATOM     13  C   UNL     1      -9.527 -10.314  19.030  0.00  0.00    +0.245 A 
ATOM     17  C   UNL     1      -7.543 -10.872  18.845  0.00  0.00    +0.204 A 
ENDROOT
BRANCH  17  18
ATOM      5  N   UNL     1      -4.634 -10.383  16.582  0.00  0.00    -0.240 NA
ATOM     18  C   UNL     1      -6.212 -10.964  18.319  0.00  0.00    +0.041 A 
ATOM     19  C   UNL     1      -5.226 -11.683  18.984  0.00  0.00    +0.016 A 
ATOM     20  C   UNL     1      -5.868 -10.337  17.132  0.00  0.00    +0.124 A 
ATOM     21  C   UNL     1      -3.944 -11.754  18.449  0.00  0.00    +0.044 A 
ATOM     22  C   UNL     1      -3.701 -11.093  17.257  0.00  0.00    +0.118 A 
BRANCH  22   6
ATOM      6  N   UNL     1      -2.390 -11.173  16.726  0.00  0.00    -0.332 N 
ATOM     23  C   UNL     1      -2.066 -10.739  15.406  0.00  0.00    +0.127 C 
ATOM     24  H   UNL     1      -1.726 -11.757  17.221  0.00  0.00    +0.147 HD
ENDBRANCH  22   6
ENDBRANCH  17  18
BRANCH  13   7
ATOM      2  N   UNL     1     -11.668 -10.008  17.682  0.00  0.00    -0.291 NA
ATOM      7  C   UNL     1     -10.941  -9.758  18.938  0.00  0.00    +0.146 C 
ATOM      8  C   UNL     1     -11.918 -10.332  19.974  0.00  0.00    +0.030 C 
ATOM      9  C   UNL     1     -12.291 -11.322  17.783  0.00  0.00    +0.085 C 
ATOM     11  C   UNL     1     -12.732 -11.396  19.238  0.00  0.00    +0.017 C 
BRANCH   2  10
ATOM     10  C   UNL     1     -10.928  -9.805  16.450  0.00  0.00    +0.091 C 
BRANCH  10  12
ATOM     12  C   UNL     1     -11.205  -8.443  15.764  0.00  0.00    -0.025 C 
ATOM     14  C   UNL     1     -11.214  -8.592  14.232  0.00  0.00    +0.012 C 
ATOM     15  C   UNL     1     -12.548  -7.849  16.224  0.00  0.00    +0.012 C 
ATOM     16  C   UNL     1     -10.080  -7.466  16.156  0.00  0.00    +0.012 C 
ENDBRANCH  10  12
ENDBRANCH   2  10
ENDBRANCH  13   7
TORSDOF 5
ENDMDL
MODEL 8
REMARK VINA RESULT:      -5.4     27.938     29.289
REMARK  Name = 45783778
REMARK  9 active torsions:
REMARK  status: ('A' for Active; 'I' for Inactive)
REMARK    1  A    between atoms: N_2  and  C_10
REMARK    2  A    between atoms: N_6  and  C_22
REMARK    3  A    between atoms: N_6  and  C_23
REMARK    4  A    between atoms: C_7  and  C_13
REMARK    5  A    between atoms: C_10  and  C_12
REMARK    6  A    between atoms: C_12  and  C_14
REMARK    7  A    between atoms: C_12  and  C_15
REMARK    8  A    between atoms: C_12  and  C_16
REMARK    9  A    between atoms: C_17  and  C_18
REMARK                            x       y       z     vdW  Elec       q    Type
REMARK                         _______ _______ _______ _____ _____    ______ ____
ROOT
ATOM      1  O   UNL     1      -3.586 -11.729  15.550  0.00  0.00    -0.336 OA
ATOM      3  N   UNL     1      -5.027 -10.198  14.778  0.00  0.00    -0.190 NA
ATOM      4  N   UNL     1      -3.333 -11.612  14.178  0.00  0.00    -0.056 NA
ATOM     13  C   UNL     1      -4.597 -10.863  15.821  0.00  0.00    +0.245 A 
ATOM     17  C   UNL     1      -4.222 -10.691  13.794  0.00  0.00    +0.204 A 
ENDROOT
BRANCH  17  18
ATOM      5  N   UNL     1      -5.687  -9.271  10.685  0.00  0.00    -0.240 NA
ATOM     18  C   UNL     1      -4.332 -10.243  12.436  0.00  0.00    +0.041 A 
ATOM     19  C   UNL     1      -3.252 -10.326  11.564  0.00  0.00    +0.016 A 
ATOM     20  C   UNL     1      -5.517  -9.712  11.952  0.00  0.00    +0.124 A 
ATOM     21  C   UNL     1      -3.389  -9.883  10.253  0.00  0.00    +0.044 A 
ATOM     22  C   UNL     1      -4.615  -9.369   9.866  0.00  0.00    +0.118 A 
BRANCH  22   6
ATOM      6  N   UNL     1      -4.738  -8.921   8.528  0.00  0.00    -0.332 N 
ATOM     23  C   UNL     1      -5.493  -9.628   7.545  0.00  0.00    +0.127 C 
ATOM     24  H   UNL     1      -4.091  -8.204   8.220  0.00  0.00    +0.147 HD
ENDBRANCH  22   6
ENDBRANCH  17  18
BRANCH  13   7
ATOM      2  N   UNL     1      -6.302 -11.529  17.595  0.00  0.00    -0.291 NA
ATOM      7  C   UNL     1      -5.066 -10.799  17.268  0.00  0.00    +0.146 C 
ATOM      8  C   UNL     1      -4.081 -11.400  18.282  0.00  0.00    +0.030 C 
ATOM      9  C   UNL     1      -5.940 -12.914  17.870  0.00  0.00    +0.085 C 
ATOM     11  C   UNL     1      -4.613 -12.797  18.605  0.00  0.00    +0.017 C 
BRANCH   2  10
ATOM     10  C   UNL     1      -7.407 -11.388  16.664  0.00  0.00    +0.091 C 
BRANCH  10  12
ATOM     12  C   UNL     1      -8.560 -10.493  17.184  0.00  0.00    -0.025 C 
ATOM     14  C   UNL     1      -8.792 -10.718  18.690  0.00  0.00    +0.012 C 
ATOM     15  C   UNL     1      -8.266  -9.003  16.934  0.00  0.00    +0.012 C 
ATOM     16  C   UNL     1      -9.846 -10.871  16.427  0.00  0.00    +0.012 C 
ENDBRANCH  10  12
ENDBRANCH   2  10
ENDBRANCH  13   7
TORSDOF 5
ENDMDL
MODEL 9
REMARK VINA RESULT:      -5.4      5.628      8.435
REMARK  Name = 45783778
REMARK  9 active torsions:
REMARK  status: ('A' for Active; 'I' for Inactive)
REMARK    1  A    between atoms: N_2  and  C_10
REMARK    2  A    between atoms: N_6  and  C_22
REMARK    3  A    between atoms: N_6  and  C_23
REMARK    4  A    between atoms: C_7  and  C_13
REMARK    5  A    between atoms: C_10  and  C_12
REMARK    6  A    between atoms: C_12  and  C_14
REMARK    7  A    between atoms: C_12  and  C_15
REMARK    8  A    between atoms: C_12  and  C_16
REMARK    9  A    between atoms: C_17  and  C_18
REMARK                            x       y       z     vdW  Elec       q    Type
REMARK                         _______ _______ _______ _____ _____    ______ ____
ROOT
ATOM      1  O   UNL     1      10.596  11.137  24.316  0.00  0.00    -0.336 OA
ATOM      3  N   UNL     1      11.097  12.017  22.318  0.00  0.00    -0.190 NA
ATOM      4  N   UNL     1      10.905  10.056  23.480  0.00  0.00    -0.056 NA
ATOM     13  C   UNL     1      10.734  12.254  23.554  0.00  0.00    +0.245 A 
ATOM     17  C   UNL     1      11.190  10.656  22.320  0.00  0.00    +0.204 A 
ENDROOT
BRANCH  17  18
ATOM      5  N   UNL     1      11.256   7.996  19.723  0.00  0.00    -0.240 NA
ATOM     18  C   UNL     1      11.570   9.926  21.146  0.00  0.00    +0.041 A 
ATOM     19  C   UNL     1      12.574  10.392  20.305  0.00  0.00    +0.016 A 
ATOM     20  C   UNL     1      10.947   8.733  20.814  0.00  0.00    +0.124 A 
ATOM     21  C   UNL     1      12.921   9.661  19.174  0.00  0.00    +0.044 A 
ATOM     22  C   UNL     1      12.239   8.481  18.929  0.00  0.00    +0.118 A 
BRANCH  22   6
ATOM      6  N   UNL     1      12.602   7.749  17.772  0.00  0.00    -0.332 N 
ATOM     23  C   UNL     1      13.939   7.706  17.276  0.00  0.00    +0.127 C 
ATOM     24  H   UNL     1      11.850   7.438  17.168  0.00  0.00    +0.147 HD
ENDBRANCH  22   6
ENDBRANCH  17  18
BRANCH  13   7
ATOM      2  N   UNL     1      11.608  14.457  24.491  0.00  0.00    -0.291 NA
ATOM      7  C   UNL     1      10.450  13.582  24.240  0.00  0.00    +0.146 C 
ATOM      8  C   UNL     1       9.526  14.521  23.451  0.00  0.00    +0.030 C 
ATOM      9  C   UNL     1      11.844  15.237  23.282  0.00  0.00    +0.085 C 
ATOM     11  C   UNL     1      10.443  15.539  22.773  0.00  0.00    +0.017 C 
BRANCH   2  10
ATOM     10  C   UNL     1      12.802  13.821  25.019  0.00  0.00    +0.091 C 
BRANCH  10  12
ATOM     12  C   UNL     1      13.361  14.493  26.298  0.00  0.00    -0.025 C 
ATOM     14  C   UNL     1      14.011  13.450  27.226  0.00  0.00    +0.012 C 
ATOM     15  C   UNL     1      14.395  15.578  25.953  0.00  0.00    +0.012 C 
ATOM     16  C   UNL     1      12.190  15.155  27.049  0.00  0.00    +0.012 C 
ENDBRANCH  10  12
ENDBRANCH   2  10
ENDBRANCH  13   7
TORSDOF 5
ENDMDL
MODEL 10
REMARK VINA RESULT:      -5.3     27.225     29.283
REMARK  Name = 45783778
REMARK  9 active torsions:
REMARK  status: ('A' for Active; 'I' for Inactive)
REMARK    1  A    between atoms: N_2  and  C_10
REMARK    2  A    between atoms: N_6  and  C_22
REMARK    3  A    between atoms: N_6  and  C_23
REMARK    4  A    between atoms: C_7  and  C_13
REMARK    5  A    between atoms: C_10  and  C_12
REMARK    6  A    between atoms: C_12  and  C_14
REMARK    7  A    between atoms: C_12  and  C_15
REMARK    8  A    between atoms: C_12  and  C_16
REMARK    9  A    between atoms: C_17  and  C_18
REMARK                            x       y       z     vdW  Elec       q    Type
REMARK                         _______ _______ _______ _____ _____    ______ ____
ROOT
ATOM      1  O   UNL     1     -11.971  10.339  18.978  0.00  0.00    -0.336 OA
ATOM      3  N   UNL     1     -11.640   8.156  18.602  0.00  0.00    -0.190 NA
ATOM      4  N   UNL     1     -12.693   9.659  19.967  0.00  0.00    -0.056 NA
ATOM     13  C   UNL     1     -11.381   9.380  18.217  0.00  0.00    +0.245 A 
ATOM     17  C   UNL     1     -12.448   8.377  19.679  0.00  0.00    +0.204 A 
ENDROOT
BRANCH  17  18
ATOM      5  N   UNL     1     -14.941   6.068  21.190  0.00  0.00    -0.240 NA
ATOM     18  C   UNL     1     -12.995   7.295  20.446  0.00  0.00    +0.041 A 
ATOM     19  C   UNL     1     -12.171   6.441  21.169  0.00  0.00    +0.016 A 
ATOM     20  C   UNL     1     -14.361   7.069  20.488  0.00  0.00    +0.124 A 
ATOM     21  C   UNL     1     -12.730   5.401  21.903  0.00  0.00    +0.044 A 
ATOM     22  C   UNL     1     -14.107   5.258  21.881  0.00  0.00    +0.118 A 
BRANCH  22   6
ATOM      6  N   UNL     1     -14.661   4.193  22.633  0.00  0.00    -0.332 N 
ATOM     23  C   UNL     1     -15.957   4.261  23.225  0.00  0.00    +0.127 C 
ATOM     24  H   UNL     1     -14.027   3.463  22.936  0.00  0.00    +0.147 HD
ENDBRANCH  22   6
ENDBRANCH  17  18
BRANCH  13   7
ATOM      2  N   UNL     1     -11.224  10.123  15.784  0.00  0.00    -0.291 NA
ATOM      7  C   UNL     1     -10.527   9.867  17.055  0.00  0.00    +0.146 C 
ATOM      8  C   UNL     1      -9.833  11.216  17.298  0.00  0.00    +0.030 C 
ATOM      9  C   UNL     1     -11.760  11.477  15.836  0.00  0.00    +0.085 C 
ATOM     11  C   UNL     1     -10.682  12.259  16.572  0.00  0.00    +0.017 C 
BRANCH   2  10
ATOM     10  C   UNL     1     -12.192   9.127  15.360  0.00  0.00    +0.091 C 
BRANCH  10  12
ATOM     12  C   UNL     1     -11.881   8.492  13.981  0.00  0.00    -0.025 C 
ATOM     14  C   UNL     1     -11.888   9.559  12.872  0.00  0.00    +0.012 C 
ATOM     15  C   UNL     1     -10.518   7.779  13.990  0.00  0.00    +0.012 C 
ATOM     16  C   UNL     1     -12.974   7.452  13.670  0.00  0.00    +0.012 C 
ENDBRANCH  10  12
ENDBRANCH   2  10
ENDBRANCH  13   7
TORSDOF 5
ENDMDL
