MODEL 1
REMARK VINA RESULT:      -7.5      0.000      0.000
REMARK  Name = 44716137
REMARK  10 active torsions:
REMARK  status: ('A' for Active; 'I' for Inactive)
REMARK    1  A    between atoms: O_2  and  C_26
REMARK    2  A    between atoms: O_3  and  C_27
REMARK    3  A    between atoms: O_3  and  C_34
REMARK    4  A    between atoms: N_6  and  C_17
REMARK    5  A    between atoms: N_7  and  C_25
REMARK    6  A    between atoms: C_11  and  C_18
REMARK    7  A    between atoms: C_12  and  C_17
REMARK    8  A    between atoms: C_24  and  C_26
REMARK    9  A    between atoms: C_26  and  C_29
REMARK   10  A    between atoms: C_26  and  C_30
REMARK                            x       y       z     vdW  Elec       q    Type
REMARK                         _______ _______ _______ _____ _____    ______ ____
ROOT
ATOM      4  N   UNL     1     -18.259   3.894  25.085  0.00  0.00    -0.297 NA
ATOM     10  C   UNL     1     -16.281   3.299  23.503  0.00  0.00    +0.005 C 
ATOM     11  C   UNL     1     -16.599   4.806  23.460  0.00  0.00    +0.092 C 
ATOM     12  C   UNL     1     -17.077   3.464  25.881  0.00  0.00    +0.078 C 
ATOM     13  C   UNL     1     -15.944   2.945  24.964  0.00  0.00    +0.025 C 
ATOM     14  C   UNL     1     -17.544   2.498  23.141  0.00  0.00    +0.020 C 
ATOM     15  C   UNL     1     -17.873   5.083  24.281  0.00  0.00    +0.097 C 
ATOM     16  C   UNL     1     -18.664   2.830  24.139  0.00  0.00    +0.085 C 
ENDROOT
BRANCH  11  18
ATOM      1  O   UNL     1     -17.818   5.167  21.454  0.00  0.00    -0.275 OA
ATOM      5  N   UNL     1     -15.611   5.895  21.480  0.00  0.00    -0.298 N 
ATOM      7  N   UNL     1     -13.397   7.332  20.291  0.00  0.00    -0.324 N 
ATOM     18  C   UNL     1     -16.742   5.303  22.042  0.00  0.00    +0.220 C 
ATOM     19  C   UNL     1     -14.335   6.055  22.179  0.00  0.00    +0.126 C 
ATOM     20  C   UNL     1     -15.671   6.406  20.112  0.00  0.00    +0.126 C 
ATOM     21  C   UNL     1     -13.153   6.228  21.224  0.00  0.00    +0.124 C 
ATOM     22  C   UNL     1     -14.783   7.634  19.923  0.00  0.00    +0.124 C 
BRANCH   7  25
ATOM     25  C   UNL     1     -12.341   8.053  19.740  0.00  0.00    +0.072 A 
ATOM     27  C   UNL     1     -11.886   9.224  20.347  0.00  0.00    +0.141 A 
ATOM     28  C   UNL     1     -11.737   7.596  18.568  0.00  0.00    +0.027 A 
ATOM     31  C   UNL     1     -10.828   9.937  19.785  0.00  0.00    +0.047 A 
ATOM     32  C   UNL     1     -10.678   8.310  18.005  0.00  0.00    +0.002 A 
ATOM     33  C   UNL     1     -10.224   9.479  18.613  0.00  0.00    +0.004 A 
BRANCH  27   3
ATOM      3  O   UNL     1     -12.463   9.687  21.492  0.00  0.00    -0.493 OA
ATOM     34  C   UNL     1     -12.249  11.059  21.815  0.00  0.00    +0.277 C 
ENDBRANCH  27   3
ENDBRANCH   7  25
ENDBRANCH  11  18
BRANCH  12  17
ATOM     17  C   UNL     1     -17.446   2.442  26.958  0.00  0.00    +0.164 C 
BRANCH  17   6
ATOM      6  N   UNL     1     -16.408   2.385  28.043  0.00  0.00    -0.250 N 
ATOM      8  N   UNL     1     -15.754   3.493  28.426  0.00  0.00    -0.065 NA
ATOM      9  N   UNL     1     -14.906   3.139  29.386  0.00  0.00    -0.132 NA
ATOM     23  C   UNL     1     -15.999   1.293  28.745  0.00  0.00    +0.136 A 
ATOM     24  C   UNL     1     -15.044   1.794  29.593  0.00  0.00    +0.114 A 
BRANCH  24  26
ATOM     26  C   UNL     1     -14.238   1.091  30.599  0.00  0.00    +0.105 C 
ATOM     29  C   UNL     1     -14.996  -0.095  31.263  0.00  0.00    +0.048 C 
ATOM     30  C   UNL     1     -13.716   2.031  31.725  0.00  0.00    +0.048 C 
BRANCH  26   2
ATOM      2  O   UNL     1     -13.039   0.493  30.033  0.00  0.00    -0.383 OA
ATOM     35  H   UNL     1     -12.275   1.038  30.290  0.00  0.00    +0.211 HD
ENDBRANCH  26   2
ENDBRANCH  24  26
ENDBRANCH  17   6
ENDBRANCH  12  17
TORSDOF 7
ENDMDL
MODEL 2
REMARK VINA RESULT:      -7.2     32.932     35.277
REMARK  Name = 44716137
REMARK  10 active torsions:
REMARK  status: ('A' for Active; 'I' for Inactive)
REMARK    1  A    between atoms: O_2  and  C_26
REMARK    2  A    between atoms: O_3  and  C_27
REMARK    3  A    between atoms: O_3  and  C_34
REMARK    4  A    between atoms: N_6  and  C_17
REMARK    5  A    between atoms: N_7  and  C_25
REMARK    6  A    between atoms: C_11  and  C_18
REMARK    7  A    between atoms: C_12  and  C_17
REMARK    8  A    between atoms: C_24  and  C_26
REMARK    9  A    between atoms: C_26  and  C_29
REMARK   10  A    between atoms: C_26  and  C_30
REMARK                            x       y       z     vdW  Elec       q    Type
REMARK                         _______ _______ _______ _____ _____    ______ ____
ROOT
ATOM      4  N   UNL     1       4.513   7.335  -3.880  0.00  0.00    -0.297 NA
ATOM     10  C   UNL     1       6.901   6.522  -4.518  0.00  0.00    +0.005 C 
ATOM     11  C   UNL     1       6.766   6.724  -2.996  0.00  0.00    +0.092 C 
ATOM     12  C   UNL     1       4.460   5.940  -4.396  0.00  0.00    +0.078 C 
ATOM     13  C   UNL     1       5.837   5.491  -4.939  0.00  0.00    +0.025 C 
ATOM     14  C   UNL     1       6.547   7.834  -5.242  0.00  0.00    +0.020 C 
ATOM     15  C   UNL     1       5.397   7.358  -2.685  0.00  0.00    +0.097 C 
ATOM     16  C   UNL     1       5.108   8.240  -4.889  0.00  0.00    +0.085 C 
ENDROOT
BRANCH  11  18
ATOM      1  O   UNL     1       7.803   8.789  -2.451  0.00  0.00    -0.275 OA
ATOM      5  N   UNL     1       8.998   6.858  -1.955  0.00  0.00    -0.298 N 
ATOM      7  N   UNL     1      11.239   5.506  -0.718  0.00  0.00    -0.324 N 
ATOM     18  C   UNL     1       7.895   7.559  -2.445  0.00  0.00    +0.220 C 
ATOM     19  C   UNL     1       9.106   5.398  -1.948  0.00  0.00    +0.126 C 
ATOM     20  C   UNL     1      10.130   7.596  -1.399  0.00  0.00    +0.126 C 
ATOM     21  C   UNL     1      10.553   4.912  -1.868  0.00  0.00    +0.124 C 
ATOM     22  C   UNL     1      10.807   6.831  -0.264  0.00  0.00    +0.124 C 
BRANCH   7  25
ATOM     25  C   UNL     1      12.295   4.848  -0.093  0.00  0.00    +0.072 A 
ATOM     27  C   UNL     1      12.072   4.062   1.038  0.00  0.00    +0.141 A 
ATOM     28  C   UNL     1      13.585   4.983  -0.606  0.00  0.00    +0.027 A 
ATOM     31  C   UNL     1      13.140   3.409   1.655  0.00  0.00    +0.047 A 
ATOM     32  C   UNL     1      14.653   4.330   0.012  0.00  0.00    +0.002 A 
ATOM     33  C   UNL     1      14.430   3.544   1.142  0.00  0.00    +0.004 A 
BRANCH  27   3
ATOM      3  O   UNL     1      10.819   3.918   1.554  0.00  0.00    -0.493 OA
ATOM     34  C   UNL     1      10.555   4.561   2.800  0.00  0.00    +0.277 C 
ENDBRANCH  27   3
ENDBRANCH   7  25
ENDBRANCH  11  18
BRANCH  12  17
ATOM     17  C   UNL     1       3.353   5.750  -5.434  0.00  0.00    +0.164 C 
BRANCH  17   6
ATOM      6  N   UNL     1       2.388   4.674  -5.022  0.00  0.00    -0.250 N 
ATOM      8  N   UNL     1       1.541   4.868  -3.999  0.00  0.00    -0.065 NA
ATOM      9  N   UNL     1       0.823   3.758  -3.865  0.00  0.00    -0.132 NA
ATOM     23  C   UNL     1       2.237   3.439  -5.571  0.00  0.00    +0.136 A 
ATOM     24  C   UNL     1       1.238   2.872  -4.821  0.00  0.00    +0.114 A 
BRANCH  24  26
ATOM     26  C   UNL     1       0.635   1.538  -4.936  0.00  0.00    +0.105 C 
ATOM     29  C   UNL     1       1.684   0.390  -4.855  0.00  0.00    +0.048 C 
ATOM     30  C   UNL     1      -0.190   1.355  -6.243  0.00  0.00    +0.048 C 
BRANCH  26   2
ATOM      2  O   UNL     1      -0.305   1.256  -3.863  0.00  0.00    -0.383 OA
ATOM     35  H   UNL     1      -1.097   1.803  -4.001  0.00  0.00    +0.211 HD
ENDBRANCH  26   2
ENDBRANCH  24  26
ENDBRANCH  17   6
ENDBRANCH  12  17
TORSDOF 7
ENDMDL
MODEL 3
REMARK VINA RESULT:      -6.9     17.033     19.067
REMARK  Name = 44716137
REMARK  10 active torsions:
REMARK  status: ('A' for Active; 'I' for Inactive)
REMARK    1  A    between atoms: O_2  and  C_26
REMARK    2  A    between atoms: O_3  and  C_27
REMARK    3  A    between atoms: O_3  and  C_34
REMARK    4  A    between atoms: N_6  and  C_17
REMARK    5  A    between atoms: N_7  and  C_25
REMARK    6  A    between atoms: C_11  and  C_18
REMARK    7  A    between atoms: C_12  and  C_17
REMARK    8  A    between atoms: C_24  and  C_26
REMARK    9  A    between atoms: C_26  and  C_29
REMARK   10  A    between atoms: C_26  and  C_30
REMARK                            x       y       z     vdW  Elec       q    Type
REMARK                         _______ _______ _______ _____ _____    ______ ____
ROOT
ATOM      4  N   UNL     1     -12.716  -9.696  16.341  0.00  0.00    -0.297 NA
ATOM     10  C   UNL     1     -10.522  -8.855  17.459  0.00  0.00    +0.005 C 
ATOM     11  C   UNL     1     -10.231  -9.927  16.390  0.00  0.00    +0.092 C 
ATOM     12  C   UNL     1     -12.466  -8.275  15.975  0.00  0.00    +0.078 C 
ATOM     13  C   UNL     1     -11.262  -7.699  16.758  0.00  0.00    +0.025 C 
ATOM     14  C   UNL     1     -11.497  -9.425  18.504  0.00  0.00    +0.020 C 
ATOM     15  C   UNL     1     -11.562 -10.509  15.875  0.00  0.00    +0.097 C 
ATOM     16  C   UNL     1     -12.802  -9.847  17.811  0.00  0.00    +0.085 C 
ENDROOT
BRANCH  11  18
ATOM      1  O   UNL     1      -9.816 -11.960  17.544  0.00  0.00    -0.275 OA
ATOM      5  N   UNL     1      -7.965 -10.858  16.671  0.00  0.00    -0.298 N 
ATOM      7  N   UNL     1      -5.146 -10.751  16.020  0.00  0.00    -0.324 N 
ATOM     18  C   UNL     1      -9.329 -11.011  16.923  0.00  0.00    +0.220 C 
ATOM     19  C   UNL     1      -7.388  -9.732  15.933  0.00  0.00    +0.126 C 
ATOM     20  C   UNL     1      -7.026 -11.870  17.150  0.00  0.00    +0.126 C 
ATOM     21  C   UNL     1      -5.906  -9.518  16.242  0.00  0.00    +0.124 C 
ATOM     22  C   UNL     1      -5.833 -12.031  16.210  0.00  0.00    +0.124 C 
BRANCH   7  25
ATOM     25  C   UNL     1      -3.798 -10.711  15.672  0.00  0.00    +0.072 A 
ATOM     27  C   UNL     1      -3.411 -10.673  14.332  0.00  0.00    +0.141 A 
ATOM     28  C   UNL     1      -2.831 -10.711  16.677  0.00  0.00    +0.027 A 
ATOM     31  C   UNL     1      -2.058 -10.634  13.997  0.00  0.00    +0.047 A 
ATOM     32  C   UNL     1      -1.477 -10.672  16.342  0.00  0.00    +0.002 A 
ATOM     33  C   UNL     1      -1.090 -10.634  15.003  0.00  0.00    +0.004 A 
BRANCH  27   3
ATOM      3  O   UNL     1      -4.341 -10.673  13.335  0.00  0.00    -0.493 OA
ATOM     34  C   UNL     1      -3.909 -11.108  12.048  0.00  0.00    +0.277 C 
ENDBRANCH  27   3
ENDBRANCH   7  25
ENDBRANCH  11  18
BRANCH  12  17
ATOM     17  C   UNL     1     -13.714  -7.407  16.140  0.00  0.00    +0.164 C 
BRANCH  17   6
ATOM      6  N   UNL     1     -13.865  -6.435  15.003  0.00  0.00    -0.250 N 
ATOM      8  N   UNL     1     -15.076  -6.152  14.498  0.00  0.00    -0.065 NA
ATOM      9  N   UNL     1     -14.899  -5.277  13.514  0.00  0.00    -0.132 NA
ATOM     23  C   UNL     1     -12.881  -5.752  14.358  0.00  0.00    +0.136 A 
ATOM     24  C   UNL     1     -13.559  -5.023  13.415  0.00  0.00    +0.114 A 
BRANCH  24  26
ATOM     26  C   UNL     1     -13.033  -4.089  12.411  0.00  0.00    +0.105 C 
ATOM     29  C   UNL     1     -14.131  -3.168  11.805  0.00  0.00    +0.048 C 
ATOM     30  C   UNL     1     -12.295  -4.806  11.243  0.00  0.00    +0.048 C 
BRANCH  26   2
ATOM      2  O   UNL     1     -12.047  -3.174  12.964  0.00  0.00    -0.383 OA
ATOM     35  H   UNL     1     -12.498  -2.342  13.191  0.00  0.00    +0.211 HD
ENDBRANCH  26   2
ENDBRANCH  24  26
ENDBRANCH  17   6
ENDBRANCH  12  17
TORSDOF 7
ENDMDL
MODEL 4
REMARK VINA RESULT:      -6.8     19.864     22.886
REMARK  Name = 44716137
REMARK  10 active torsions:
REMARK  status: ('A' for Active; 'I' for Inactive)
REMARK    1  A    between atoms: O_2  and  C_26
REMARK    2  A    between atoms: O_3  and  C_27
REMARK    3  A    between atoms: O_3  and  C_34
REMARK    4  A    between atoms: N_6  and  C_17
REMARK    5  A    between atoms: N_7  and  C_25
REMARK    6  A    between atoms: C_11  and  C_18
REMARK    7  A    between atoms: C_12  and  C_17
REMARK    8  A    between atoms: C_24  and  C_26
REMARK    9  A    between atoms: C_26  and  C_29
REMARK   10  A    between atoms: C_26  and  C_30
REMARK                            x       y       z     vdW  Elec       q    Type
REMARK                         _______ _______ _______ _____ _____    ______ ____
ROOT
ATOM      4  N   UNL     1      -1.842 -10.955  14.326  0.00  0.00    -0.297 NA
ATOM     10  C   UNL     1      -4.295 -11.726  14.725  0.00  0.00    +0.005 C 
ATOM     11  C   UNL     1      -3.869 -10.658  15.752  0.00  0.00    +0.092 C 
ATOM     12  C   UNL     1      -2.707 -10.517  13.197  0.00  0.00    +0.078 C 
ATOM     13  C   UNL     1      -4.133 -11.104  13.325  0.00  0.00    +0.025 C 
ATOM     14  C   UNL     1      -3.320 -12.915  14.789  0.00  0.00    +0.020 C 
ATOM     15  C   UNL     1      -2.368 -10.354  15.579  0.00  0.00    +0.097 C 
ATOM     16  C   UNL     1      -1.896 -12.426  14.482  0.00  0.00    +0.085 C 
ENDROOT
BRANCH  11  18
ATOM      1  O   UNL     1      -3.265 -11.422  17.917  0.00  0.00    -0.275 OA
ATOM      5  N   UNL     1      -5.530 -11.081  17.524  0.00  0.00    -0.298 N 
ATOM      7  N   UNL     1      -8.268 -10.899  18.446  0.00  0.00    -0.324 N 
ATOM     18  C   UNL     1      -4.183 -11.088  17.163  0.00  0.00    +0.220 C 
ATOM     19  C   UNL     1      -6.618 -10.685  16.628  0.00  0.00    +0.126 C 
ATOM     20  C   UNL     1      -5.915 -11.480  18.877  0.00  0.00    +0.126 C 
ATOM     21  C   UNL     1      -7.973 -11.251  17.055  0.00  0.00    +0.124 C 
ATOM     22  C   UNL     1      -7.144 -10.718  19.368  0.00  0.00    +0.124 C 
BRANCH   7  25
ATOM     25  C   UNL     1      -9.581 -10.774  18.892  0.00  0.00    +0.072 A 
ATOM     27  C   UNL     1     -10.136 -11.728  19.746  0.00  0.00    +0.141 A 
ATOM     28  C   UNL     1     -10.345  -9.683  18.476  0.00  0.00    +0.027 A 
ATOM     31  C   UNL     1     -11.452 -11.591  20.185  0.00  0.00    +0.047 A 
ATOM     32  C   UNL     1     -11.663  -9.546  18.915  0.00  0.00    +0.002 A 
ATOM     33  C   UNL     1     -12.216 -10.500  19.769  0.00  0.00    +0.004 A 
BRANCH  27   3
ATOM      3  O   UNL     1      -9.406 -12.801  20.164  0.00  0.00    -0.493 OA
ATOM     34  C   UNL     1     -10.113 -13.842  20.835  0.00  0.00    +0.277 C 
ENDBRANCH  27   3
ENDBRANCH   7  25
ENDBRANCH  11  18
BRANCH  12  17
ATOM     17  C   UNL     1      -2.086 -10.833  11.836  0.00  0.00    +0.164 C 
BRANCH  17   6
ATOM      6  N   UNL     1      -2.958 -10.360  10.708  0.00  0.00    -0.250 N 
ATOM      8  N   UNL     1      -2.984  -9.065  10.356  0.00  0.00    -0.065 NA
ATOM      9  N   UNL     1      -3.838  -8.947   9.345  0.00  0.00    -0.132 NA
ATOM     23  C   UNL     1      -3.793 -11.106   9.935  0.00  0.00    +0.136 A 
ATOM     24  C   UNL     1      -4.343 -10.188   9.075  0.00  0.00    +0.114 A 
BRANCH  24  26
ATOM     26  C   UNL     1      -5.324 -10.396   8.003  0.00  0.00    +0.105 C 
ATOM     29  C   UNL     1      -6.704 -10.888   8.530  0.00  0.00    +0.048 C 
ATOM     30  C   UNL     1      -4.833 -11.392   6.913  0.00  0.00    +0.048 C 
BRANCH  26   2
ATOM      2  O   UNL     1      -5.623  -9.172   7.276  0.00  0.00    -0.383 OA
ATOM     35  H   UNL     1      -4.973  -8.496   7.537  0.00  0.00    +0.211 HD
ENDBRANCH  26   2
ENDBRANCH  24  26
ENDBRANCH  17   6
ENDBRANCH  12  17
TORSDOF 7
ENDMDL
MODEL 5
REMARK VINA RESULT:      -6.6      3.149     11.328
REMARK  Name = 44716137
REMARK  10 active torsions:
REMARK  status: ('A' for Active; 'I' for Inactive)
REMARK    1  A    between atoms: O_2  and  C_26
REMARK    2  A    between atoms: O_3  and  C_27
REMARK    3  A    between atoms: O_3  and  C_34
REMARK    4  A    between atoms: N_6  and  C_17
REMARK    5  A    between atoms: N_7  and  C_25
REMARK    6  A    between atoms: C_11  and  C_18
REMARK    7  A    between atoms: C_12  and  C_17
REMARK    8  A    between atoms: C_24  and  C_26
REMARK    9  A    between atoms: C_26  and  C_29
REMARK   10  A    between atoms: C_26  and  C_30
REMARK                            x       y       z     vdW  Elec       q    Type
REMARK                         _______ _______ _______ _____ _____    ______ ____
ROOT
ATOM      4  N   UNL     1     -12.936   8.666  19.112  0.00  0.00    -0.297 NA
ATOM     10  C   UNL     1     -12.834   7.661  21.510  0.00  0.00    +0.005 C 
ATOM     11  C   UNL     1     -14.042   7.115  20.724  0.00  0.00    +0.092 C 
ATOM     12  C   UNL     1     -11.747   7.782  19.247  0.00  0.00    +0.078 C 
ATOM     13  C   UNL     1     -11.567   7.304  20.708  0.00  0.00    +0.025 C 
ATOM     14  C   UNL     1     -12.904   9.198  21.553  0.00  0.00    +0.020 C 
ATOM     15  C   UNL     1     -14.154   7.857  19.379  0.00  0.00    +0.097 C 
ATOM     16  C   UNL     1     -12.895   9.751  20.119  0.00  0.00    +0.085 C 
ENDROOT
BRANCH  11  18
ATOM      1  O   UNL     1     -16.074   8.183  21.328  0.00  0.00    -0.275 OA
ATOM      5  N   UNL     1     -15.559   6.212  22.446  0.00  0.00    -0.298 N 
ATOM      7  N   UNL     1     -16.262   4.052  24.241  0.00  0.00    -0.324 N 
ATOM     18  C   UNL     1     -15.318   7.227  21.520  0.00  0.00    +0.220 C 
ATOM     19  C   UNL     1     -14.661   5.078  22.673  0.00  0.00    +0.126 C 
ATOM     20  C   UNL     1     -16.777   6.247  23.252  0.00  0.00    +0.126 C 
ATOM     21  C   UNL     1     -14.860   4.429  24.043  0.00  0.00    +0.124 C 
ATOM     22  C   UNL     1     -17.293   4.844  23.566  0.00  0.00    +0.124 C 
BRANCH   7  25
ATOM     25  C   UNL     1     -16.609   2.992  25.074  0.00  0.00    +0.072 A 
ATOM     27  C   UNL     1     -16.703   3.174  26.454  0.00  0.00    +0.141 A 
ATOM     28  C   UNL     1     -16.864   1.738  24.517  0.00  0.00    +0.027 A 
ATOM     31  C   UNL     1     -17.052   2.103  27.277  0.00  0.00    +0.047 A 
ATOM     32  C   UNL     1     -17.213   0.667  25.341  0.00  0.00    +0.002 A 
ATOM     33  C   UNL     1     -17.307   0.849  26.720  0.00  0.00    +0.004 A 
BRANCH  27   3
ATOM      3  O   UNL     1     -16.458   4.391  27.017  0.00  0.00    -0.493 OA
ATOM     34  C   UNL     1     -17.277   4.769  28.121  0.00  0.00    +0.277 C 
ENDBRANCH  27   3
ENDBRANCH   7  25
ENDBRANCH  11  18
BRANCH  12  17
ATOM     17  C   UNL     1     -10.474   8.437  18.707  0.00  0.00    +0.164 C 
BRANCH  17   6
ATOM      6  N   UNL     1     -10.601   8.765  17.246  0.00  0.00    -0.250 N 
ATOM      8  N   UNL     1     -10.393  10.015  16.803  0.00  0.00    -0.065 NA
ATOM      9  N   UNL     1     -10.578  10.003  15.487  0.00  0.00    -0.132 NA
ATOM     23  C   UNL     1     -10.924   7.920  16.229  0.00  0.00    +0.136 A 
ATOM     24  C   UNL     1     -10.904   8.727  15.120  0.00  0.00    +0.114 A 
BRANCH  24  26
ATOM     26  C   UNL     1     -11.174   8.383  13.719  0.00  0.00    +0.105 C 
ATOM     29  C   UNL     1     -12.561   7.704  13.518  0.00  0.00    +0.048 C 
ATOM     30  C   UNL     1     -10.083   7.462  13.098  0.00  0.00    +0.048 C 
BRANCH  26   2
ATOM      2  O   UNL     1     -11.207   9.551  12.854  0.00  0.00    -0.383 OA
ATOM     35  H   UNL     1     -11.071   9.255  11.937  0.00  0.00    +0.211 HD
ENDBRANCH  26   2
ENDBRANCH  24  26
ENDBRANCH  17   6
ENDBRANCH  12  17
TORSDOF 7
ENDMDL
MODEL 6
REMARK VINA RESULT:      -6.6     16.276     19.154
REMARK  Name = 44716137
REMARK  10 active torsions:
REMARK  status: ('A' for Active; 'I' for Inactive)
REMARK    1  A    between atoms: O_2  and  C_26
REMARK    2  A    between atoms: O_3  and  C_27
REMARK    3  A    between atoms: O_3  and  C_34
REMARK    4  A    between atoms: N_6  and  C_17
REMARK    5  A    between atoms: N_7  and  C_25
REMARK    6  A    between atoms: C_11  and  C_18
REMARK    7  A    between atoms: C_12  and  C_17
REMARK    8  A    between atoms: C_24  and  C_26
REMARK    9  A    between atoms: C_26  and  C_29
REMARK   10  A    between atoms: C_26  and  C_30
REMARK                            x       y       z     vdW  Elec       q    Type
REMARK                         _______ _______ _______ _____ _____    ______ ____
ROOT
ATOM      4  N   UNL     1     -13.194  -6.899  13.395  0.00  0.00    -0.297 NA
ATOM     10  C   UNL     1     -11.960  -7.075  15.678  0.00  0.00    +0.005 C 
ATOM     11  C   UNL     1     -11.378  -8.064  14.648  0.00  0.00    +0.092 C 
ATOM     12  C   UNL     1     -12.427  -5.652  13.660  0.00  0.00    +0.078 C 
ATOM     13  C   UNL     1     -11.820  -5.661  15.083  0.00  0.00    +0.025 C 
ATOM     14  C   UNL     1     -13.468  -7.333  15.839  0.00  0.00    +0.020 C 
ATOM     15  C   UNL     1     -12.241  -8.039  13.373  0.00  0.00    +0.097 C 
ATOM     16  C   UNL     1     -14.166  -7.154  14.482  0.00  0.00    +0.085 C 
ENDROOT
BRANCH  11  18
ATOM      1  O   UNL     1     -12.212 -10.247  15.067  0.00  0.00    -0.275 OA
ATOM      5  N   UNL     1     -10.092  -9.764  15.888  0.00  0.00    -0.298 N 
ATOM      7  N   UNL     1      -7.599 -10.575  17.115  0.00  0.00    -0.324 N 
ATOM     18  C   UNL     1     -11.275  -9.458  15.214  0.00  0.00    +0.220 C 
ATOM     19  C   UNL     1      -8.980  -8.827  16.062  0.00  0.00    +0.126 C 
ATOM     20  C   UNL     1      -9.914 -11.097  16.460  0.00  0.00    +0.126 C 
ATOM     21  C   UNL     1      -8.074  -9.195  17.238  0.00  0.00    +0.124 C 
ATOM     22  C   UNL     1      -8.454 -11.543  16.423  0.00  0.00    +0.124 C 
BRANCH   7  25
ATOM     25  C   UNL     1      -6.384 -10.969  17.671  0.00  0.00    +0.072 A 
ATOM     27  C   UNL     1      -5.203 -10.879  16.934  0.00  0.00    +0.141 A 
ATOM     28  C   UNL     1      -6.355 -11.457  18.978  0.00  0.00    +0.027 A 
ATOM     31  C   UNL     1      -3.993 -11.277  17.503  0.00  0.00    +0.047 A 
ATOM     32  C   UNL     1      -5.145 -11.856  19.547  0.00  0.00    +0.002 A 
ATOM     33  C   UNL     1      -3.964 -11.766  18.810  0.00  0.00    +0.004 A 
BRANCH  27   3
ATOM      3  O   UNL     1      -5.211 -10.405  15.656  0.00  0.00    -0.493 OA
ATOM     34  C   UNL     1      -4.220 -10.921  14.769  0.00  0.00    +0.277 C 
ENDBRANCH  27   3
ENDBRANCH   7  25
ENDBRANCH  11  18
BRANCH  12  17
ATOM     17  C   UNL     1     -13.262  -4.395  13.409  0.00  0.00    +0.164 C 
BRANCH  17   6
ATOM      6  N   UNL     1     -13.246  -4.003  11.958  0.00  0.00    -0.250 N 
ATOM      8  N   UNL     1     -12.096  -3.981  11.266  0.00  0.00    -0.065 NA
ATOM      9  N   UNL     1     -12.389  -3.597  10.028  0.00  0.00    -0.132 NA
ATOM     23  C   UNL     1     -14.304  -3.635  11.186  0.00  0.00    +0.136 A 
ATOM     24  C   UNL     1     -13.738  -3.381   9.963  0.00  0.00    +0.114 A 
BRANCH  24  26
ATOM     26  C   UNL     1     -14.380  -2.941   8.718  0.00  0.00    +0.105 C 
ATOM     29  C   UNL     1     -15.381  -1.769   8.933  0.00  0.00    +0.048 C 
ATOM     30  C   UNL     1     -15.125  -4.092   7.979  0.00  0.00    +0.048 C 
BRANCH  26   2
ATOM      2  O   UNL     1     -13.424  -2.437   7.745  0.00  0.00    -0.383 OA
ATOM     35  H   UNL     1     -13.583  -1.484   7.628  0.00  0.00    +0.211 HD
ENDBRANCH  26   2
ENDBRANCH  24  26
ENDBRANCH  17   6
ENDBRANCH  12  17
TORSDOF 7
ENDMDL
MODEL 7
REMARK VINA RESULT:      -6.5     20.082     23.045
REMARK  Name = 44716137
REMARK  10 active torsions:
REMARK  status: ('A' for Active; 'I' for Inactive)
REMARK    1  A    between atoms: O_2  and  C_26
REMARK    2  A    between atoms: O_3  and  C_27
REMARK    3  A    between atoms: O_3  and  C_34
REMARK    4  A    between atoms: N_6  and  C_17
REMARK    5  A    between atoms: N_7  and  C_25
REMARK    6  A    between atoms: C_11  and  C_18
REMARK    7  A    between atoms: C_12  and  C_17
REMARK    8  A    between atoms: C_24  and  C_26
REMARK    9  A    between atoms: C_26  and  C_29
REMARK   10  A    between atoms: C_26  and  C_30
REMARK                            x       y       z     vdW  Elec       q    Type
REMARK                         _______ _______ _______ _____ _____    ______ ____
ROOT
ATOM      4  N   UNL     1      -4.617  -9.698   8.439  0.00  0.00    -0.297 NA
ATOM     10  C   UNL     1      -5.547 -10.870  10.568  0.00  0.00    +0.005 C 
ATOM     11  C   UNL     1      -4.549  -9.753  10.933  0.00  0.00    +0.092 C 
ATOM     12  C   UNL     1      -6.067  -9.402   8.595  0.00  0.00    +0.078 C 
ATOM     13  C   UNL     1      -6.683 -10.221   9.755  0.00  0.00    +0.025 C 
ATOM     14  C   UNL     1      -4.863 -11.880   9.629  0.00  0.00    +0.020 C 
ATOM     15  C   UNL     1      -3.906  -9.202   9.646  0.00  0.00    +0.097 C 
ATOM     16  C   UNL     1      -4.390 -11.158   8.358  0.00  0.00    +0.085 C 
ENDROOT
BRANCH  11  18
ATOM      1  O   UNL     1      -2.339 -10.391  11.522  0.00  0.00    -0.275 OA
ATOM      5  N   UNL     1      -3.939 -10.495  13.204  0.00  0.00    -0.298 N 
ATOM      7  N   UNL     1      -4.688 -10.848  15.979  0.00  0.00    -0.324 N 
ATOM     18  C   UNL     1      -3.503 -10.240  11.904  0.00  0.00    +0.220 C 
ATOM     19  C   UNL     1      -5.320 -10.315  13.657  0.00  0.00    +0.126 C 
ATOM     20  C   UNL     1      -2.984 -10.964  14.206  0.00  0.00    +0.126 C 
ATOM     21  C   UNL     1      -5.646 -11.133  14.907  0.00  0.00    +0.124 C 
ATOM     22  C   UNL     1      -3.327 -10.455  15.604  0.00  0.00    +0.124 C 
BRANCH   7  25
ATOM     25  C   UNL     1      -5.048 -10.981  17.317  0.00  0.00    +0.072 A 
ATOM     27  C   UNL     1      -6.133 -10.273  17.835  0.00  0.00    +0.141 A 
ATOM     28  C   UNL     1      -4.312 -11.831  18.143  0.00  0.00    +0.027 A 
ATOM     31  C   UNL     1      -6.482 -10.414  19.178  0.00  0.00    +0.047 A 
ATOM     32  C   UNL     1      -4.661 -11.972  19.487  0.00  0.00    +0.002 A 
ATOM     33  C   UNL     1      -5.745 -11.264  20.004  0.00  0.00    +0.004 A 
BRANCH  27   3
ATOM      3  O   UNL     1      -6.864  -9.437  17.044  0.00  0.00    -0.493 OA
ATOM     34  C   UNL     1      -8.250  -9.304  17.353  0.00  0.00    +0.277 C 
ENDBRANCH  27   3
ENDBRANCH   7  25
ENDBRANCH  11  18
BRANCH  12  17
ATOM     17  C   UNL     1      -6.842  -9.600   7.291  0.00  0.00    +0.164 C 
BRANCH  17   6
ATOM      6  N   UNL     1      -7.967  -8.613   7.162  0.00  0.00    -0.250 N 
ATOM      8  N   UNL     1      -7.797  -7.464   6.488  0.00  0.00    -0.065 NA
ATOM      9  N   UNL     1      -8.947  -6.800   6.546  0.00  0.00    -0.132 NA
ATOM     23  C   UNL     1      -9.225  -8.716   7.669  0.00  0.00    +0.136 A 
ATOM     24  C   UNL     1      -9.832  -7.553   7.266  0.00  0.00    +0.114 A 
BRANCH  24  26
ATOM     26  C   UNL     1     -11.203  -7.090   7.513  0.00  0.00    +0.105 C 
ATOM     29  C   UNL     1     -11.274  -5.933   8.553  0.00  0.00    +0.048 C 
ATOM     30  C   UNL     1     -12.154  -8.229   7.982  0.00  0.00    +0.048 C 
BRANCH  26   2
ATOM      2  O   UNL     1     -11.833  -6.551   6.319  0.00  0.00    -0.383 OA
ATOM     35  H   UNL     1     -12.222  -5.687   6.542  0.00  0.00    +0.211 HD
ENDBRANCH  26   2
ENDBRANCH  24  26
ENDBRANCH  17   6
ENDBRANCH  12  17
TORSDOF 7
ENDMDL
MODEL 8
REMARK VINA RESULT:      -6.2     30.574     34.473
REMARK  Name = 44716137
REMARK  10 active torsions:
REMARK  status: ('A' for Active; 'I' for Inactive)
REMARK    1  A    between atoms: O_2  and  C_26
REMARK    2  A    between atoms: O_3  and  C_27
REMARK    3  A    between atoms: O_3  and  C_34
REMARK    4  A    between atoms: N_6  and  C_17
REMARK    5  A    between atoms: N_7  and  C_25
REMARK    6  A    between atoms: C_11  and  C_18
REMARK    7  A    between atoms: C_12  and  C_17
REMARK    8  A    between atoms: C_24  and  C_26
REMARK    9  A    between atoms: C_26  and  C_29
REMARK   10  A    between atoms: C_26  and  C_30
REMARK                            x       y       z     vdW  Elec       q    Type
REMARK                         _______ _______ _______ _____ _____    ______ ____
ROOT
ATOM      4  N   UNL     1      21.472   5.424  20.964  0.00  0.00    -0.297 NA
ATOM     10  C   UNL     1      19.522   7.022  21.609  0.00  0.00    +0.005 C 
ATOM     11  C   UNL     1      18.994   5.723  20.968  0.00  0.00    +0.092 C 
ATOM     12  C   UNL     1      21.378   5.547  22.444  0.00  0.00    +0.078 C 
ATOM     13  C   UNL     1      20.339   6.619  22.852  0.00  0.00    +0.025 C 
ATOM     14  C   UNL     1      20.506   7.705  20.644  0.00  0.00    +0.020 C 
ATOM     15  C   UNL     1      20.182   4.886  20.457  0.00  0.00    +0.097 C 
ATOM     16  C   UNL     1      21.673   6.753  20.343  0.00  0.00    +0.085 C 
ENDROOT
BRANCH  11  18
ATOM      1  O   UNL     1      18.271   5.662  18.708  0.00  0.00    -0.275 OA
ATOM      5  N   UNL     1      16.840   6.673  20.235  0.00  0.00    -0.298 N 
ATOM      7  N   UNL     1      14.287   7.848  20.930  0.00  0.00    -0.324 N 
ATOM     18  C   UNL     1      18.010   6.011  19.862  0.00  0.00    +0.220 C 
ATOM     19  C   UNL     1      16.531   7.085  21.606  0.00  0.00    +0.126 C 
ATOM     20  C   UNL     1      15.833   6.982  19.221  0.00  0.00    +0.126 C 
ATOM     21  C   UNL     1      15.499   8.212  21.667  0.00  0.00    +0.124 C 
ATOM     22  C   UNL     1      14.417   6.935  19.791  0.00  0.00    +0.124 C 
BRANCH   7  25
ATOM     25  C   UNL     1      13.048   8.380  21.278  0.00  0.00    +0.072 A 
ATOM     27  C   UNL     1      12.704   9.681  20.910  0.00  0.00    +0.141 A 
ATOM     28  C   UNL     1      12.147   7.599  22.003  0.00  0.00    +0.027 A 
ATOM     31  C   UNL     1      11.460  10.201  21.265  0.00  0.00    +0.047 A 
ATOM     32  C   UNL     1      10.902   8.121  22.359  0.00  0.00    +0.002 A 
ATOM     33  C   UNL     1      10.559   9.421  21.990  0.00  0.00    +0.004 A 
BRANCH  27   3
ATOM      3  O   UNL     1      13.571  10.459  20.201  0.00  0.00    -0.493 OA
ATOM     34  C   UNL     1      13.309  10.615  18.808  0.00  0.00    +0.277 C 
ENDBRANCH  27   3
ENDBRANCH   7  25
ENDBRANCH  11  18
BRANCH  12  17
ATOM     17  C   UNL     1      22.741   5.807  23.090  0.00  0.00    +0.164 C 
BRANCH  17   6
ATOM      6  N   UNL     1      23.664   4.633  22.920  0.00  0.00    -0.250 N 
ATOM      8  N   UNL     1      24.805   4.753  22.224  0.00  0.00    -0.065 NA
ATOM      9  N   UNL     1      25.404   3.567  22.241  0.00  0.00    -0.132 NA
ATOM     23  C   UNL     1      23.499   3.371  23.401  0.00  0.00    +0.136 A 
ATOM     24  C   UNL     1      24.616   2.709  22.957  0.00  0.00    +0.114 A 
BRANCH  24  26
ATOM     26  C   UNL     1      25.003   1.307  23.159  0.00  0.00    +0.105 C 
ATOM     29  C   UNL     1      26.324   1.153  23.968  0.00  0.00    +0.048 C 
ATOM     30  C   UNL     1      25.152   0.519  21.825  0.00  0.00    +0.048 C 
BRANCH  26   2
ATOM      2  O   UNL     1      24.015   0.560  23.921  0.00  0.00    -0.383 OA
ATOM     35  H   UNL     1      23.135   0.764  23.561  0.00  0.00    +0.211 HD
ENDBRANCH  26   2
ENDBRANCH  24  26
ENDBRANCH  17   6
ENDBRANCH  12  17
TORSDOF 7
ENDMDL
MODEL 9
REMARK VINA RESULT:      -6.2     33.711     35.778
REMARK  Name = 44716137
REMARK  10 active torsions:
REMARK  status: ('A' for Active; 'I' for Inactive)
REMARK    1  A    between atoms: O_2  and  C_26
REMARK    2  A    between atoms: O_3  and  C_27
REMARK    3  A    between atoms: O_3  and  C_34
REMARK    4  A    between atoms: N_6  and  C_17
REMARK    5  A    between atoms: N_7  and  C_25
REMARK    6  A    between atoms: C_11  and  C_18
REMARK    7  A    between atoms: C_12  and  C_17
REMARK    8  A    between atoms: C_24  and  C_26
REMARK    9  A    between atoms: C_26  and  C_29
REMARK   10  A    between atoms: C_26  and  C_30
REMARK                            x       y       z     vdW  Elec       q    Type
REMARK                         _______ _______ _______ _____ _____    ______ ____
ROOT
ATOM      4  N   UNL     1       4.128   7.091  -4.249  0.00  0.00    -0.297 NA
ATOM     10  C   UNL     1       6.527   6.947  -5.247  0.00  0.00    +0.005 C 
ATOM     11  C   UNL     1       6.527   6.634  -3.737  0.00  0.00    +0.092 C 
ATOM     12  C   UNL     1       4.224   5.941  -5.190  0.00  0.00    +0.078 C 
ATOM     13  C   UNL     1       5.586   5.931  -5.924  0.00  0.00    +0.025 C 
ATOM     14  C   UNL     1       5.909   8.336  -5.481  0.00  0.00    +0.020 C 
ATOM     15  C   UNL     1       5.121   6.890  -3.162  0.00  0.00    +0.097 C 
ATOM     16  C   UNL     1       4.472   8.356  -4.937  0.00  0.00    +0.085 C 
ENDROOT
BRANCH  11  18
ATOM      1  O   UNL     1       7.497   8.667  -2.988  0.00  0.00    -0.275 OA
ATOM      5  N   UNL     1       8.586   6.705  -2.382  0.00  0.00    -0.298 N 
ATOM      7  N   UNL     1      10.610   5.285  -0.875  0.00  0.00    -0.324 N 
ATOM     18  C   UNL     1       7.574   7.436  -3.005  0.00  0.00    +0.220 C 
ATOM     19  C   UNL     1       8.676   5.244  -2.402  0.00  0.00    +0.126 C 
ATOM     20  C   UNL     1       9.635   7.410  -1.647  0.00  0.00    +0.126 C 
ATOM     21  C   UNL     1      10.091   4.733  -2.129  0.00  0.00    +0.124 C 
ATOM     22  C   UNL     1      10.132   6.603  -0.449  0.00  0.00    +0.124 C 
BRANCH   7  25
ATOM     25  C   UNL     1      11.557   4.595  -0.124  0.00  0.00    +0.072 A 
ATOM     27  C   UNL     1      12.842   4.380  -0.624  0.00  0.00    +0.141 A 
ATOM     28  C   UNL     1      11.212   4.114   1.140  0.00  0.00    +0.027 A 
ATOM     31  C   UNL     1      13.781   3.686   0.139  0.00  0.00    +0.047 A 
ATOM     32  C   UNL     1      12.151   3.420   1.903  0.00  0.00    +0.002 A 
ATOM     33  C   UNL     1      13.435   3.206   1.403  0.00  0.00    +0.004 A 
BRANCH  27   3
ATOM      3  O   UNL     1      13.198   4.841  -1.856  0.00  0.00    -0.493 OA
ATOM     34  C   UNL     1      14.526   4.558  -2.293  0.00  0.00    +0.277 C 
ENDBRANCH  27   3
ENDBRANCH   7  25
ENDBRANCH  11  18
BRANCH  12  17
ATOM     17  C   UNL     1       3.052   5.898  -6.172  0.00  0.00    +0.164 C 
BRANCH  17   6
ATOM      6  N   UNL     1       2.437   4.529  -6.237  0.00  0.00    -0.250 N 
ATOM      8  N   UNL     1       2.504   3.798  -7.361  0.00  0.00    -0.065 NA
ATOM      9  N   UNL     1       1.877   2.651  -7.124  0.00  0.00    -0.132 NA
ATOM     23  C   UNL     1       1.767   3.872  -5.251  0.00  0.00    +0.136 A 
ATOM     24  C   UNL     1       1.420   2.680  -5.836  0.00  0.00    +0.114 A 
BRANCH  24  26
ATOM     26  C   UNL     1       0.676   1.550  -5.265  0.00  0.00    +0.105 C 
ATOM     29  C   UNL     1       1.602   0.388  -4.800  0.00  0.00    +0.048 C 
ATOM     30  C   UNL     1      -0.388   0.968  -6.241  0.00  0.00    +0.048 C 
BRANCH  26   2
ATOM      2  O   UNL     1      -0.076   1.921  -4.077  0.00  0.00    -0.383 OA
ATOM     35  H   UNL     1       0.290   2.754  -3.733  0.00  0.00    +0.211 HD
ENDBRANCH  26   2
ENDBRANCH  24  26
ENDBRANCH  17   6
ENDBRANCH  12  17
TORSDOF 7
ENDMDL
MODEL 10
REMARK VINA RESULT:      -6.2     10.893     15.599
REMARK  Name = 44716137
REMARK  10 active torsions:
REMARK  status: ('A' for Active; 'I' for Inactive)
REMARK    1  A    between atoms: O_2  and  C_26
REMARK    2  A    between atoms: O_3  and  C_27
REMARK    3  A    between atoms: O_3  and  C_34
REMARK    4  A    between atoms: N_6  and  C_17
REMARK    5  A    between atoms: N_7  and  C_25
REMARK    6  A    between atoms: C_11  and  C_18
REMARK    7  A    between atoms: C_12  and  C_17
REMARK    8  A    between atoms: C_24  and  C_26
REMARK    9  A    between atoms: C_26  and  C_29
REMARK   10  A    between atoms: C_26  and  C_30
REMARK                            x       y       z     vdW  Elec       q    Type
REMARK                         _______ _______ _______ _____ _____    ______ ____
ROOT
ATOM      4  N   UNL     1     -11.919   8.057  37.011  0.00  0.00    -0.297 NA
ATOM     10  C   UNL     1     -10.242   9.968  36.461  0.00  0.00    +0.005 C 
ATOM     11  C   UNL     1      -9.516   8.729  37.021  0.00  0.00    +0.092 C 
ATOM     12  C   UNL     1     -11.861   8.280  35.541  0.00  0.00    +0.078 C 
ATOM     13  C   UNL     1     -11.002   9.520  35.197  0.00  0.00    +0.025 C 
ATOM     14  C   UNL     1     -11.308  10.435  37.467  0.00  0.00    +0.020 C 
ATOM     15  C   UNL     1     -10.557   7.692  37.483  0.00  0.00    +0.097 C 
ATOM     16  C   UNL     1     -12.313   9.299  37.712  0.00  0.00    +0.085 C 
ENDROOT
BRANCH  11  18
ATOM      1  O   UNL     1      -8.988   9.119  39.303  0.00  0.00    -0.275 OA
ATOM      5  N   UNL     1      -7.264   9.400  37.770  0.00  0.00    -0.298 N 
ATOM      7  N   UNL     1      -4.472   9.836  37.140  0.00  0.00    -0.324 N 
ATOM     18  C   UNL     1      -8.574   9.098  38.141  0.00  0.00    +0.220 C 
ATOM     19  C   UNL     1      -6.774   9.375  36.391  0.00  0.00    +0.126 C 
ATOM     20  C   UNL     1      -6.290   9.761  38.799  0.00  0.00    +0.126 C 
ATOM     21  C   UNL     1      -5.519  10.225  36.192  0.00  0.00    +0.124 C 
ATOM     22  C   UNL     1      -4.881   9.294  38.439  0.00  0.00    +0.124 C 
BRANCH   7  25
ATOM     25  C   UNL     1      -3.125  10.009  36.834  0.00  0.00    +0.072 A 
ATOM     27  C   UNL     1      -2.230   8.943  36.938  0.00  0.00    +0.141 A 
ATOM     28  C   UNL     1      -2.671  11.262  36.421  0.00  0.00    +0.027 A 
ATOM     31  C   UNL     1      -0.883   9.130  36.628  0.00  0.00    +0.047 A 
ATOM     32  C   UNL     1      -1.323  11.448  36.111  0.00  0.00    +0.002 A 
ATOM     33  C   UNL     1      -0.430  10.383  36.215  0.00  0.00    +0.004 A 
BRANCH  27   3
ATOM      3  O   UNL     1      -2.654   7.711  37.339  0.00  0.00    -0.493 OA
ATOM     34  C   UNL     1      -1.834   7.021  38.280  0.00  0.00    +0.277 C 
ENDBRANCH  27   3
ENDBRANCH   7  25
ENDBRANCH  11  18
BRANCH  12  17
ATOM     17  C   UNL     1     -13.254   8.367  34.914  0.00  0.00    +0.164 C 
BRANCH  17   6
ATOM      6  N   UNL     1     -13.596   7.117  34.154  0.00  0.00    -0.250 N 
ATOM      8  N   UNL     1     -13.474   7.071  32.818  0.00  0.00    -0.065 NA
ATOM      9  N   UNL     1     -13.847   5.856  32.430  0.00  0.00    -0.132 NA
ATOM     23  C   UNL     1     -14.048   5.936  34.658  0.00  0.00    +0.136 A 
ATOM     24  C   UNL     1     -14.202   5.149  33.545  0.00  0.00    +0.114 A 
BRANCH  24  26
ATOM     26  C   UNL     1     -14.666   3.759  33.450  0.00  0.00    +0.105 C 
ATOM     29  C   UNL     1     -13.817   2.901  32.467  0.00  0.00    +0.048 C 
ATOM     30  C   UNL     1     -16.162   3.645  33.033  0.00  0.00    +0.048 C 
BRANCH  26   2
ATOM      2  O   UNL     1     -14.583   3.056  34.720  0.00  0.00    -0.383 OA
ATOM     35  H   UNL     1     -15.470   3.039  35.119  0.00  0.00    +0.211 HD
ENDBRANCH  26   2
ENDBRANCH  24  26
ENDBRANCH  17   6
ENDBRANCH  12  17
TORSDOF 7
ENDMDL
