MODEL 1
REMARK VINA RESULT:      -7.9      0.000      0.000
REMARK  Name = 11885887
REMARK  5 active torsions:
REMARK  status: ('A' for Active; 'I' for Inactive)
REMARK    1  A    between atoms: O_5  and  C_30
REMARK    2  A    between atoms: O_5  and  C_35
REMARK    3  A    between atoms: N_8  and  C_20
REMARK    4  A    between atoms: N_9  and  C_29
REMARK    5  A    between atoms: C_19  and  C_22
REMARK                            x       y       z     vdW  Elec       q    Type
REMARK                         _______ _______ _______ _____ _____    ______ ____
ROOT
ATOM      2  O   UNL     1      15.573   5.924  19.232  0.00  0.00    -0.266 OA
ATOM      3  O   UNL     1      12.743   9.814  17.327  0.00  0.00    -0.270 OA
ATOM      6  N   UNL     1      12.375   9.732  19.637  0.00  0.00    -0.297 N 
ATOM      7  N   UNL     1      14.340   7.413  20.544  0.00  0.00    -0.310 N 
ATOM     10  C   UNL     1      11.778   7.485  20.521  0.00  0.00    +0.027 C 
ATOM     11  C   UNL     1      13.036   9.061  21.934  0.00  0.00    +0.054 C 
ATOM     12  C   UNL     1      11.922   8.014  21.944  0.00  0.00    +0.018 C 
ATOM     13  C   UNL     1      11.419   8.628  19.555  0.00  0.00    +0.113 C 
ATOM     14  C   UNL     1      13.081   6.780  20.123  0.00  0.00    +0.130 C 
ATOM     15  C   UNL     1      12.645  10.222  20.998  0.00  0.00    +0.117 C 
ATOM     16  C   UNL     1      14.349   8.456  21.476  0.00  0.00    +0.027 A 
ATOM     17  C   UNL     1      15.515   8.942  21.934  0.00  0.00    +0.024 A 
ATOM     18  C   UNL     1      15.531   6.852  20.040  0.00  0.00    +0.273 A 
ATOM     19  C   UNL     1      12.965  10.219  18.467  0.00  0.00    +0.247 C 
ATOM     20  C   UNL     1      16.808   7.440  20.555  0.00  0.00    +0.100 A 
ATOM     21  C   UNL     1      16.767   8.423  21.461  0.00  0.00    +0.030 A 
ENDROOT
BRANCH  19  22
ATOM      1  F   UNL     1      16.727  14.327  18.948  0.00  0.00    -0.205 F 
ATOM     22  C   UNL     1      13.952  11.296  18.592  0.00  0.00    +0.037 A 
ATOM     23  C   UNL     1      13.547  12.623  18.473  0.00  0.00    +0.016 A 
ATOM     24  C   UNL     1      15.289  10.986  18.831  0.00  0.00    +0.016 A 
ATOM     26  C   UNL     1      14.486  13.648  18.594  0.00  0.00    +0.039 A 
ATOM     27  C   UNL     1      16.227  12.011  18.951  0.00  0.00    +0.039 A 
ATOM     28  C   UNL     1      15.825  13.343  18.833  0.00  0.00    +0.123 A 
ENDBRANCH  19  22
BRANCH  20   8
ATOM      4  O   UNL     1      18.893   6.291  22.111  0.00  0.00    -0.252 OA
ATOM      8  N   UNL     1      17.982   6.937  20.078  0.00  0.00    -0.265 N 
ATOM      9  N   UNL     1      20.057   5.957  20.100  0.00  0.00    -0.266 N 
ATOM     25  C   UNL     1      18.981   6.380  20.887  0.00  0.00    +0.308 C 
ATOM     36  H   UNL     1      18.245   7.200  19.132  0.00  0.00    +0.157 HD
ATOM     37  H   UNL     1      19.974   6.104  19.097  0.00  0.00    +0.156 HD
BRANCH   9  29
ATOM     29  C   UNL     1      21.258   5.344  20.527  0.00  0.00    +0.077 A 
ATOM     30  C   UNL     1      22.434   6.078  20.567  0.00  0.00    +0.141 A 
ATOM     31  C   UNL     1      21.229   4.010  20.900  0.00  0.00    +0.027 A 
ATOM     32  C   UNL     1      23.611   5.460  20.991  0.00  0.00    +0.047 A 
ATOM     33  C   UNL     1      22.406   3.393  21.324  0.00  0.00    +0.002 A 
ATOM     34  C   UNL     1      23.597   4.118  21.370  0.00  0.00    +0.004 A 
BRANCH  30   5
ATOM      5  O   UNL     1      22.468   7.390  20.201  0.00  0.00    -0.493 OA
ATOM     35  C   UNL     1      22.596   8.350  21.247  0.00  0.00    +0.277 C 
ENDBRANCH  30   5
ENDBRANCH   9  29
ENDBRANCH  20   8
TORSDOF 4
ENDMDL
MODEL 2
REMARK VINA RESULT:      -7.8      4.632      8.603
REMARK  Name = 11885887
REMARK  5 active torsions:
REMARK  status: ('A' for Active; 'I' for Inactive)
REMARK    1  A    between atoms: O_5  and  C_30
REMARK    2  A    between atoms: O_5  and  C_35
REMARK    3  A    between atoms: N_8  and  C_20
REMARK    4  A    between atoms: N_9  and  C_29
REMARK    5  A    between atoms: C_19  and  C_22
REMARK                            x       y       z     vdW  Elec       q    Type
REMARK                         _______ _______ _______ _____ _____    ______ ____
ROOT
ATOM      2  O   UNL     1      13.035   9.054  16.727  0.00  0.00    -0.266 OA
ATOM      3  O   UNL     1      10.573   8.197  21.197  0.00  0.00    -0.270 OA
ATOM      6  N   UNL     1      12.872   8.164  21.634  0.00  0.00    -0.297 N 
ATOM      7  N   UNL     1      14.101   8.883  18.800  0.00  0.00    -0.310 N 
ATOM     10  C   UNL     1      14.201   6.695  20.129  0.00  0.00    +0.027 C 
ATOM     11  C   UNL     1      15.217   8.738  21.053  0.00  0.00    +0.054 C 
ATOM     12  C   UNL     1      15.486   7.273  20.711  0.00  0.00    +0.018 C 
ATOM     13  C   UNL     1      13.055   6.795  21.151  0.00  0.00    +0.113 C 
ATOM     14  C   UNL     1      13.876   7.430  18.823  0.00  0.00    +0.130 C 
ATOM     15  C   UNL     1      14.098   8.823  22.111  0.00  0.00    +0.117 C 
ATOM     16  C   UNL     1      14.815   9.522  19.819  0.00  0.00    +0.027 A 
ATOM     17  C   UNL     1      15.108  10.829  19.721  0.00  0.00    +0.024 A 
ATOM     18  C   UNL     1      13.651   9.575  17.657  0.00  0.00    +0.273 A 
ATOM     19  C   UNL     1      11.601   8.743  21.594  0.00  0.00    +0.247 C 
ATOM     20  C   UNL     1      13.975  11.037  17.600  0.00  0.00    +0.100 A 
ATOM     21  C   UNL     1      14.678  11.599  18.589  0.00  0.00    +0.030 A 
ENDROOT
BRANCH  19  22
ATOM      1  F   UNL     1      11.078  14.039  23.308  0.00  0.00    -0.205 F 
ATOM     22  C   UNL     1      11.465  10.132  22.044  0.00  0.00    +0.037 A 
ATOM     23  C   UNL     1      11.750  11.175  21.166  0.00  0.00    +0.016 A 
ATOM     24  C   UNL     1      11.050  10.401  23.346  0.00  0.00    +0.016 A 
ATOM     26  C   UNL     1      11.618  12.497  21.594  0.00  0.00    +0.039 A 
ATOM     27  C   UNL     1      10.919  11.722  23.773  0.00  0.00    +0.039 A 
ATOM     28  C   UNL     1      11.204  12.770  22.897  0.00  0.00    +0.123 A 
ENDBRANCH  19  22
BRANCH  20   8
ATOM      4  O   UNL     1      15.341  11.315  15.121  0.00  0.00    -0.252 OA
ATOM      8  N   UNL     1      13.542  11.746  16.519  0.00  0.00    -0.265 N 
ATOM      9  N   UNL     1      13.544  12.647  14.408  0.00  0.00    -0.266 N 
ATOM     25  C   UNL     1      14.253  11.853  15.317  0.00  0.00    +0.308 C 
ATOM     36  H   UNL     1      12.797  12.419  16.679  0.00  0.00    +0.157 HD
ATOM     37  H   UNL     1      12.654  13.021  14.728  0.00  0.00    +0.156 HD
BRANCH   9  29
ATOM     29  C   UNL     1      13.914  12.998  13.089  0.00  0.00    +0.077 A 
ATOM     30  C   UNL     1      13.140  12.579  12.017  0.00  0.00    +0.141 A 
ATOM     31  C   UNL     1      15.054  13.763  12.899  0.00  0.00    +0.027 A 
ATOM     32  C   UNL     1      13.518  12.935  10.722  0.00  0.00    +0.047 A 
ATOM     33  C   UNL     1      15.430  14.119  11.603  0.00  0.00    +0.002 A 
ATOM     34  C   UNL     1      14.662  13.705  10.515  0.00  0.00    +0.004 A 
BRANCH  30   5
ATOM      5  O   UNL     1      12.019  11.827  12.199  0.00  0.00    -0.493 OA
ATOM     35  C   UNL     1      10.890  12.142  11.387  0.00  0.00    +0.277 C 
ENDBRANCH  30   5
ENDBRANCH   9  29
ENDBRANCH  20   8
TORSDOF 4
ENDMDL
MODEL 3
REMARK VINA RESULT:      -7.8      1.839      2.107
REMARK  Name = 11885887
REMARK  5 active torsions:
REMARK  status: ('A' for Active; 'I' for Inactive)
REMARK    1  A    between atoms: O_5  and  C_30
REMARK    2  A    between atoms: O_5  and  C_35
REMARK    3  A    between atoms: N_8  and  C_20
REMARK    4  A    between atoms: N_9  and  C_29
REMARK    5  A    between atoms: C_19  and  C_22
REMARK                            x       y       z     vdW  Elec       q    Type
REMARK                         _______ _______ _______ _____ _____    ______ ____
ROOT
ATOM      2  O   UNL     1      15.482   5.914  20.876  0.00  0.00    -0.266 OA
ATOM      3  O   UNL     1      11.676   7.355  17.680  0.00  0.00    -0.270 OA
ATOM      6  N   UNL     1      11.807   8.944  19.393  0.00  0.00    -0.297 N 
ATOM      7  N   UNL     1      14.296   7.917  21.068  0.00  0.00    -0.310 N 
ATOM     10  C   UNL     1      11.813   8.002  21.695  0.00  0.00    +0.027 C 
ATOM     11  C   UNL     1      13.030  10.090  21.225  0.00  0.00    +0.054 C 
ATOM     12  C   UNL     1      12.146   9.382  22.252  0.00  0.00    +0.018 C 
ATOM     13  C   UNL     1      11.067   8.128  20.355  0.00  0.00    +0.113 C 
ATOM     14  C   UNL     1      13.112   7.198  21.560  0.00  0.00    +0.130 C 
ATOM     15  C   UNL     1      12.256  10.250  19.901  0.00  0.00    +0.117 C 
ATOM     16  C   UNL     1      14.309   9.313  20.978  0.00  0.00    +0.027 A 
ATOM     17  C   UNL     1      15.438   9.958  20.637  0.00  0.00    +0.024 A 
ATOM     18  C   UNL     1      15.440   7.141  20.793  0.00  0.00    +0.273 A 
ATOM     19  C   UNL     1      12.049   8.445  18.110  0.00  0.00    +0.247 C 
ATOM     20  C   UNL     1      16.670   7.896  20.391  0.00  0.00    +0.100 A 
ATOM     21  C   UNL     1      16.639   9.232  20.338  0.00  0.00    +0.030 A 
ENDROOT
BRANCH  19  22
ATOM      1  F   UNL     1      15.034  11.604  14.593  0.00  0.00    -0.205 F 
ATOM     22  C   UNL     1      12.833   9.272  17.188  0.00  0.00    +0.037 A 
ATOM     23  C   UNL     1      12.291   9.641  15.958  0.00  0.00    +0.016 A 
ATOM     24  C   UNL     1      14.113   9.687  17.546  0.00  0.00    +0.016 A 
ATOM     26  C   UNL     1      13.036  10.430  15.081  0.00  0.00    +0.039 A 
ATOM     27  C   UNL     1      14.857  10.476  16.669  0.00  0.00    +0.039 A 
ATOM     28  C   UNL     1      14.318  10.847  15.436  0.00  0.00    +0.123 A 
ENDBRANCH  19  22
BRANCH  20   8
ATOM      4  O   UNL     1      18.970   7.640  22.043  0.00  0.00    -0.252 OA
ATOM      8  N   UNL     1      17.792   7.180  20.098  0.00  0.00    -0.265 N 
ATOM      9  N   UNL     1      19.887   6.281  20.363  0.00  0.00    -0.266 N 
ATOM     25  C   UNL     1      18.903   7.085  20.948  0.00  0.00    +0.308 C 
ATOM     36  H   UNL     1      17.927   6.911  19.128  0.00  0.00    +0.157 HD
ATOM     37  H   UNL     1      19.676   5.896  19.446  0.00  0.00    +0.156 HD
BRANCH   9  29
ATOM     29  C   UNL     1      21.153   5.935  20.891  0.00  0.00    +0.077 A 
ATOM     30  C   UNL     1      22.261   6.717  20.603  0.00  0.00    +0.141 A 
ATOM     31  C   UNL     1      21.255   4.809  21.692  0.00  0.00    +0.027 A 
ATOM     32  C   UNL     1      23.503   6.363  21.132  0.00  0.00    +0.047 A 
ATOM     33  C   UNL     1      22.497   4.456  22.221  0.00  0.00    +0.002 A 
ATOM     34  C   UNL     1      23.621   5.233  21.941  0.00  0.00    +0.004 A 
BRANCH  30   5
ATOM      5  O   UNL     1      22.167   7.825  19.815  0.00  0.00    -0.493 OA
ATOM     35  C   UNL     1      22.196   9.090  20.472  0.00  0.00    +0.277 C 
ENDBRANCH  30   5
ENDBRANCH   9  29
ENDBRANCH  20   8
TORSDOF 4
ENDMDL
MODEL 4
REMARK VINA RESULT:      -7.6     28.750     31.718
REMARK  Name = 11885887
REMARK  5 active torsions:
REMARK  status: ('A' for Active; 'I' for Inactive)
REMARK    1  A    between atoms: O_5  and  C_30
REMARK    2  A    between atoms: O_5  and  C_35
REMARK    3  A    between atoms: N_8  and  C_20
REMARK    4  A    between atoms: N_9  and  C_29
REMARK    5  A    between atoms: C_19  and  C_22
REMARK                            x       y       z     vdW  Elec       q    Type
REMARK                         _______ _______ _______ _____ _____    ______ ____
ROOT
ATOM      2  O   UNL     1      -6.363  -9.574  13.945  0.00  0.00    -0.266 OA
ATOM      3  O   UNL     1      -5.449 -14.391  12.292  0.00  0.00    -0.270 OA
ATOM      6  N   UNL     1      -3.382 -13.326  12.555  0.00  0.00    -0.297 N 
ATOM      7  N   UNL     1      -4.230 -10.503  13.727  0.00  0.00    -0.310 N 
ATOM     10  C   UNL     1      -3.206 -11.101  11.456  0.00  0.00    +0.027 C 
ATOM     11  C   UNL     1      -1.946 -11.547  13.523  0.00  0.00    +0.054 C 
ATOM     12  C   UNL     1      -1.871 -10.868  12.156  0.00  0.00    +0.018 C 
ATOM     13  C   UNL     1      -3.468 -12.608  11.284  0.00  0.00    +0.113 C 
ATOM     14  C   UNL     1      -4.313 -10.411  12.262  0.00  0.00    +0.130 C 
ATOM     15  C   UNL     1      -2.164 -13.062  13.337  0.00  0.00    +0.117 C 
ATOM     16  C   UNL     1      -3.072 -10.968  14.359  0.00  0.00    +0.027 A 
ATOM     17  C   UNL     1      -2.974 -10.935  15.698  0.00  0.00    +0.024 A 
ATOM     18  C   UNL     1      -5.330 -10.008  14.456  0.00  0.00    +0.273 A 
ATOM     19  C   UNL     1      -4.429 -14.167  12.942  0.00  0.00    +0.247 C 
ATOM     20  C   UNL     1      -5.191 -10.015  15.947  0.00  0.00    +0.100 A 
ATOM     21  C   UNL     1      -4.056 -10.450  16.506  0.00  0.00    +0.030 A 
ENDROOT
BRANCH  19  22
ATOM      1  F   UNL     1      -4.051 -16.714  17.905  0.00  0.00    -0.205 F 
ATOM     22  C   UNL     1      -4.329 -14.834  14.243  0.00  0.00    +0.037 A 
ATOM     23  C   UNL     1      -4.884 -14.237  15.373  0.00  0.00    +0.016 A 
ATOM     24  C   UNL     1      -3.681 -16.063  14.344  0.00  0.00    +0.016 A 
ATOM     26  C   UNL     1      -4.790 -14.873  16.611  0.00  0.00    +0.039 A 
ATOM     27  C   UNL     1      -3.587 -16.698  15.582  0.00  0.00    +0.039 A 
ATOM     28  C   UNL     1      -4.142 -16.103  16.716  0.00  0.00    +0.123 A 
ENDBRANCH  19  22
BRANCH  20   8
ATOM      4  O   UNL     1      -7.444 -11.543  16.770  0.00  0.00    -0.252 OA
ATOM      8  N   UNL     1      -6.241  -9.562  16.690  0.00  0.00    -0.265 N 
ATOM      9  N   UNL     1      -8.237  -9.601  17.822  0.00  0.00    -0.266 N 
ATOM     25  C   UNL     1      -7.331 -10.356  17.070  0.00  0.00    +0.308 C 
ATOM     36  H   UNL     1      -6.356  -8.554  16.758  0.00  0.00    +0.157 HD
ATOM     37  H   UNL     1      -7.996  -8.626  17.982  0.00  0.00    +0.156 HD
BRANCH   9  29
ATOM     29  C   UNL     1      -9.459 -10.026  18.393  0.00  0.00    +0.077 A 
ATOM     30  C   UNL     1      -9.455 -10.884  19.482  0.00  0.00    +0.141 A 
ATOM     31  C   UNL     1     -10.646  -9.567  17.843  0.00  0.00    +0.027 A 
ATOM     32  C   UNL     1     -10.669 -11.294  20.034  0.00  0.00    +0.047 A 
ATOM     33  C   UNL     1     -11.859  -9.977  18.397  0.00  0.00    +0.002 A 
ATOM     34  C   UNL     1     -11.870 -10.840  19.492  0.00  0.00    +0.004 A 
BRANCH  30   5
ATOM      5  O   UNL     1      -8.291 -11.339  20.026  0.00  0.00    -0.493 OA
ATOM     35  C   UNL     1      -8.041 -12.740  19.941  0.00  0.00    +0.277 C 
ENDBRANCH  30   5
ENDBRANCH   9  29
ENDBRANCH  20   8
TORSDOF 4
ENDMDL
MODEL 5
REMARK VINA RESULT:      -7.5      2.875      4.689
REMARK  Name = 11885887
REMARK  5 active torsions:
REMARK  status: ('A' for Active; 'I' for Inactive)
REMARK    1  A    between atoms: O_5  and  C_30
REMARK    2  A    between atoms: O_5  and  C_35
REMARK    3  A    between atoms: N_8  and  C_20
REMARK    4  A    between atoms: N_9  and  C_29
REMARK    5  A    between atoms: C_19  and  C_22
REMARK                            x       y       z     vdW  Elec       q    Type
REMARK                         _______ _______ _______ _____ _____    ______ ____
ROOT
ATOM      2  O   UNL     1      17.339   9.983  21.812  0.00  0.00    -0.266 OA
ATOM      3  O   UNL     1      12.258  10.903  22.142  0.00  0.00    -0.270 OA
ATOM      6  N   UNL     1      12.770  10.539  19.887  0.00  0.00    -0.297 N 
ATOM      7  N   UNL     1      15.860   9.835  20.010  0.00  0.00    -0.310 N 
ATOM     10  C   UNL     1      14.676  11.880  19.018  0.00  0.00    +0.027 C 
ATOM     11  C   UNL     1      14.234   9.642  18.095  0.00  0.00    +0.054 C 
ATOM     12  C   UNL     1      14.654  11.065  17.730  0.00  0.00    +0.018 C 
ATOM     13  C   UNL     1      13.283  11.892  19.673  0.00  0.00    +0.113 C 
ATOM     14  C   UNL     1      15.747  11.300  19.950  0.00  0.00    +0.130 C 
ATOM     15  C   UNL     1      12.820   9.661  18.708  0.00  0.00    +0.117 C 
ATOM     16  C   UNL     1      15.209   9.021  19.077  0.00  0.00    +0.027 A 
ATOM     17  C   UNL     1      15.417   7.694  19.078  0.00  0.00    +0.024 A 
ATOM     18  C   UNL     1      16.731   9.306  20.983  0.00  0.00    +0.273 A 
ATOM     19  C   UNL     1      12.303  10.174  21.153  0.00  0.00    +0.247 C 
ATOM     20  C   UNL     1      16.915   7.820  20.967  0.00  0.00    +0.100 A 
ATOM     21  C   UNL     1      16.287   7.084  20.043  0.00  0.00    +0.030 A 
ENDROOT
BRANCH  19  22
ATOM      1  F   UNL     1      10.526   4.921  21.869  0.00  0.00    -0.205 F 
ATOM     22  C   UNL     1      11.838   8.796  21.342  0.00  0.00    +0.037 A 
ATOM     23  C   UNL     1      10.542   8.559  21.794  0.00  0.00    +0.016 A 
ATOM     24  C   UNL     1      12.693   7.732  21.066  0.00  0.00    +0.016 A 
ATOM     26  C   UNL     1      10.098   7.248  21.972  0.00  0.00    +0.039 A 
ATOM     27  C   UNL     1      12.249   6.422  21.245  0.00  0.00    +0.039 A 
ATOM     28  C   UNL     1      10.951   6.180  21.698  0.00  0.00    +0.123 A 
ENDBRANCH  19  22
BRANCH  20   8
ATOM      4  O   UNL     1      19.755   7.726  20.861  0.00  0.00    -0.252 OA
ATOM      8  N   UNL     1      17.736   7.267  21.905  0.00  0.00    -0.265 N 
ATOM      9  N   UNL     1      19.684   6.609  22.924  0.00  0.00    -0.266 N 
ATOM     25  C   UNL     1      19.133   7.245  21.806  0.00  0.00    +0.308 C 
ATOM     36  H   UNL     1      17.308   6.632  22.574  0.00  0.00    +0.157 HD
ATOM     37  H   UNL     1      19.029   6.263  23.620  0.00  0.00    +0.156 HD
BRANCH   9  29
ATOM     29  C   UNL     1      21.051   6.381  23.209  0.00  0.00    +0.077 A 
ATOM     30  C   UNL     1      21.742   5.383  22.540  0.00  0.00    +0.141 A 
ATOM     31  C   UNL     1      21.673   7.172  24.162  0.00  0.00    +0.027 A 
ATOM     32  C   UNL     1      23.090   5.171  22.831  0.00  0.00    +0.047 A 
ATOM     33  C   UNL     1      23.020   6.960  24.452  0.00  0.00    +0.002 A 
ATOM     34  C   UNL     1      23.729   5.960  23.787  0.00  0.00    +0.004 A 
BRANCH  30   5
ATOM      5  O   UNL     1      21.135   4.601  21.602  0.00  0.00    -0.493 OA
ATOM     35  C   UNL     1      21.830   3.426  21.192  0.00  0.00    +0.277 C 
ENDBRANCH  30   5
ENDBRANCH   9  29
ENDBRANCH  20   8
TORSDOF 4
ENDMDL
MODEL 6
REMARK VINA RESULT:      -7.1     28.719     31.662
REMARK  Name = 11885887
REMARK  5 active torsions:
REMARK  status: ('A' for Active; 'I' for Inactive)
REMARK    1  A    between atoms: O_5  and  C_30
REMARK    2  A    between atoms: O_5  and  C_35
REMARK    3  A    between atoms: N_8  and  C_20
REMARK    4  A    between atoms: N_9  and  C_29
REMARK    5  A    between atoms: C_19  and  C_22
REMARK                            x       y       z     vdW  Elec       q    Type
REMARK                         _______ _______ _______ _____ _____    ______ ____
ROOT
ATOM      2  O   UNL     1      -5.014 -11.504  16.555  0.00  0.00    -0.266 OA
ATOM      3  O   UNL     1      -1.810 -10.092  12.745  0.00  0.00    -0.270 OA
ATOM      6  N   UNL     1      -2.784 -12.131  12.136  0.00  0.00    -0.297 N 
ATOM      7  N   UNL     1      -4.797 -12.651  14.531  0.00  0.00    -0.310 N 
ATOM     10  C   UNL     1      -2.663 -13.907  13.874  0.00  0.00    +0.027 C 
ATOM     11  C   UNL     1      -4.573 -13.842  12.322  0.00  0.00    +0.054 C 
ATOM     12  C   UNL     1      -3.600 -14.776  13.041  0.00  0.00    +0.018 C 
ATOM     13  C   UNL     1      -1.888 -12.932  12.969  0.00  0.00    +0.113 C 
ATOM     14  C   UNL     1      -3.486 -13.175  14.941  0.00  0.00    +0.130 C 
ATOM     15  C   UNL     1      -3.789 -12.901  11.386  0.00  0.00    +0.117 C 
ATOM     16  C   UNL     1      -5.377 -13.023  13.313  0.00  0.00    +0.027 A 
ATOM     17  C   UNL     1      -6.625 -12.626  13.011  0.00  0.00    +0.024 A 
ATOM     18  C   UNL     1      -5.476 -11.843  15.465  0.00  0.00    +0.273 A 
ATOM     19  C   UNL     1      -2.649 -10.740  12.121  0.00  0.00    +0.247 C 
ATOM     20  C   UNL     1      -6.853 -11.399  15.077  0.00  0.00    +0.100 A 
ATOM     21  C   UNL     1      -7.374 -11.797  13.911  0.00  0.00    +0.030 A 
ENDROOT
BRANCH  19  22
ATOM      1  F   UNL     1      -6.251  -7.788   9.028  0.00  0.00    -0.205 F 
ATOM     22  C   UNL     1      -3.593  -9.967  11.309  0.00  0.00    +0.037 A 
ATOM     23  C   UNL     1      -4.850  -9.653  11.821  0.00  0.00    +0.016 A 
ATOM     24  C   UNL     1      -3.229  -9.549  10.032  0.00  0.00    +0.016 A 
ATOM     26  C   UNL     1      -5.749  -8.915  11.049  0.00  0.00    +0.039 A 
ATOM     27  C   UNL     1      -4.127  -8.812   9.260  0.00  0.00    +0.039 A 
ATOM     28  C   UNL     1      -5.388  -8.496   9.769  0.00  0.00    +0.123 A 
ENDBRANCH  19  22
BRANCH  20   8
ATOM      4  O   UNL     1      -9.254 -12.078  16.441  0.00  0.00    -0.252 OA
ATOM      8  N   UNL     1      -7.536 -10.600  15.945  0.00  0.00    -0.265 N 
ATOM      9  N   UNL     1      -9.171  -9.944  17.416  0.00  0.00    -0.266 N 
ATOM     25  C   UNL     1      -8.719 -10.982  16.593  0.00  0.00    +0.308 C 
ATOM     36  H   UNL     1      -7.315  -9.609  15.931  0.00  0.00    +0.157 HD
ATOM     37  H   UNL     1      -8.611  -9.096  17.429  0.00  0.00    +0.156 HD
BRANCH   9  29
ATOM     29  C   UNL     1     -10.323  -9.925  18.237  0.00  0.00    +0.077 A 
ATOM     30  C   UNL     1     -10.274 -10.467  19.512  0.00  0.00    +0.141 A 
ATOM     31  C   UNL     1     -11.486  -9.359  17.740  0.00  0.00    +0.027 A 
ATOM     32  C   UNL     1     -11.418 -10.441  20.311  0.00  0.00    +0.047 A 
ATOM     33  C   UNL     1     -12.629  -9.332  18.539  0.00  0.00    +0.002 A 
ATOM     34  C   UNL     1     -12.595  -9.873  19.824  0.00  0.00    +0.004 A 
BRANCH  30   5
ATOM      5  O   UNL     1      -9.133 -11.026  20.006  0.00  0.00    -0.493 OA
ATOM     35  C   UNL     1      -9.060 -12.450  20.010  0.00  0.00    +0.277 C 
ENDBRANCH  30   5
ENDBRANCH   9  29
ENDBRANCH  20   8
TORSDOF 4
ENDMDL
MODEL 7
REMARK VINA RESULT:      -7.0     16.920     19.514
REMARK  Name = 11885887
REMARK  5 active torsions:
REMARK  status: ('A' for Active; 'I' for Inactive)
REMARK    1  A    between atoms: O_5  and  C_30
REMARK    2  A    between atoms: O_5  and  C_35
REMARK    3  A    between atoms: N_8  and  C_20
REMARK    4  A    between atoms: N_9  and  C_29
REMARK    5  A    between atoms: C_19  and  C_22
REMARK                            x       y       z     vdW  Elec       q    Type
REMARK                         _______ _______ _______ _____ _____    ______ ____
ROOT
ATOM      2  O   UNL     1       8.662   7.951   2.261  0.00  0.00    -0.266 OA
ATOM      3  O   UNL     1      11.302  10.818   5.664  0.00  0.00    -0.270 OA
ATOM      6  N   UNL     1      10.713   8.817   6.726  0.00  0.00    -0.297 N 
ATOM      7  N   UNL     1       9.289   7.215   4.389  0.00  0.00    -0.310 N 
ATOM     10  C   UNL     1       8.309   8.204   6.540  0.00  0.00    +0.027 C 
ATOM     11  C   UNL     1      10.016   6.435   6.671  0.00  0.00    +0.054 C 
ATOM     12  C   UNL     1       8.618   6.837   7.140  0.00  0.00    +0.018 C 
ATOM     13  C   UNL     1       9.343   9.244   7.008  0.00  0.00    +0.113 C 
ATOM     14  C   UNL     1       8.272   8.075   5.012  0.00  0.00    +0.130 C 
ATOM     15  C   UNL     1      11.048   7.459   7.184  0.00  0.00    +0.117 C 
ATOM     16  C   UNL     1      10.082   6.357   5.158  0.00  0.00    +0.027 A 
ATOM     17  C   UNL     1      10.923   5.497   4.559  0.00  0.00    +0.024 A 
ATOM     18  C   UNL     1       9.351   7.227   2.980  0.00  0.00    +0.273 A 
ATOM     19  C   UNL     1      11.577   9.682   6.049  0.00  0.00    +0.247 C 
ATOM     20  C   UNL     1      10.321   6.273   2.354  0.00  0.00    +0.100 A 
ATOM     21  C   UNL     1      11.044   5.458   3.130  0.00  0.00    +0.030 A 
ENDROOT
BRANCH  19  22
ATOM      1  F   UNL     1      16.732   7.858   4.882  0.00  0.00    -0.205 F 
ATOM     22  C   UNL     1      12.928   9.203   5.744  0.00  0.00    +0.037 A 
ATOM     23  C   UNL     1      13.149   8.432   4.605  0.00  0.00    +0.016 A 
ATOM     24  C   UNL     1      13.985   9.522   6.593  0.00  0.00    +0.016 A 
ATOM     26  C   UNL     1      14.436   7.977   4.314  0.00  0.00    +0.039 A 
ATOM     27  C   UNL     1      15.271   9.068   6.302  0.00  0.00    +0.039 A 
ATOM     28  C   UNL     1      15.496   8.295   5.162  0.00  0.00    +0.123 A 
ENDBRANCH  19  22
BRANCH  20   8
ATOM      4  O   UNL     1       9.627   4.120   0.631  0.00  0.00    -0.252 OA
ATOM      8  N   UNL     1      10.425   6.267   0.995  0.00  0.00    -0.265 N 
ATOM      9  N   UNL     1      10.293   5.484  -1.159  0.00  0.00    -0.266 N 
ATOM     25  C   UNL     1      10.069   5.178   0.188  0.00  0.00    +0.308 C 
ATOM     36  H   UNL     1      11.010   6.983   0.574  0.00  0.00    +0.157 HD
ATOM     37  H   UNL     1      10.666   6.408  -1.360  0.00  0.00    +0.156 HD
BRANCH   9  29
ATOM     29  C   UNL     1      10.064   4.662  -2.287  0.00  0.00    +0.077 A 
ATOM     30  C   UNL     1      10.904   3.590  -2.545  0.00  0.00    +0.141 A 
ATOM     31  C   UNL     1       8.991   4.952  -3.115  0.00  0.00    +0.027 A 
ATOM     32  C   UNL     1      10.665   2.788  -3.661  0.00  0.00    +0.047 A 
ATOM     33  C   UNL     1       8.753   4.148  -4.231  0.00  0.00    +0.002 A 
ATOM     34  C   UNL     1       9.590   3.067  -4.503  0.00  0.00    +0.004 A 
BRANCH  30   5
ATOM      5  O   UNL     1      11.961   3.301  -1.734  0.00  0.00    -0.493 OA
ATOM     35  C   UNL     1      13.255   3.681  -2.197  0.00  0.00    +0.277 C 
ENDBRANCH  30   5
ENDBRANCH   9  29
ENDBRANCH  20   8
TORSDOF 4
ENDMDL
MODEL 8
REMARK VINA RESULT:      -6.9     29.530     31.499
REMARK  Name = 11885887
REMARK  5 active torsions:
REMARK  status: ('A' for Active; 'I' for Inactive)
REMARK    1  A    between atoms: O_5  and  C_30
REMARK    2  A    between atoms: O_5  and  C_35
REMARK    3  A    between atoms: N_8  and  C_20
REMARK    4  A    between atoms: N_9  and  C_29
REMARK    5  A    between atoms: C_19  and  C_22
REMARK                            x       y       z     vdW  Elec       q    Type
REMARK                         _______ _______ _______ _____ _____    ______ ____
ROOT
ATOM      2  O   UNL     1      -6.223 -13.164  15.430  0.00  0.00    -0.266 OA
ATOM      3  O   UNL     1     -11.251 -12.142  16.103  0.00  0.00    -0.270 OA
ATOM      6  N   UNL     1     -10.196 -11.919  18.180  0.00  0.00    -0.297 N 
ATOM      7  N   UNL     1      -7.152 -12.417  17.440  0.00  0.00    -0.310 N 
ATOM     10  C   UNL     1      -8.761 -13.843  18.836  0.00  0.00    +0.027 C 
ATOM     11  C   UNL     1      -8.176 -11.570  19.581  0.00  0.00    +0.054 C 
ATOM     12  C   UNL     1      -8.228 -13.035  20.014  0.00  0.00    +0.018 C 
ATOM     13  C   UNL     1     -10.168 -13.358  18.443  0.00  0.00    +0.113 C 
ATOM     14  C   UNL     1      -7.767 -13.733  17.673  0.00  0.00    +0.130 C 
ATOM     15  C   UNL     1      -9.596 -11.084  19.233  0.00  0.00    +0.117 C 
ATOM     16  C   UNL     1      -7.265 -11.389  18.381  0.00  0.00    +0.027 A 
ATOM     17  C   UNL     1      -6.601 -10.235  18.203  0.00  0.00    +0.024 A 
ATOM     18  C   UNL     1      -6.367 -12.282  16.277  0.00  0.00    +0.273 A 
ATOM     19  C   UNL     1     -10.748 -11.448  16.986  0.00  0.00    +0.247 C 
ATOM     20  C   UNL     1      -5.665 -10.970  16.104  0.00  0.00    +0.100 A 
ATOM     21  C   UNL     1      -5.787 -10.024  17.041  0.00  0.00    +0.030 A 
ENDROOT
BRANCH  19  22
ATOM      1  F   UNL     1     -10.634  -5.940  16.034  0.00  0.00    -0.205 F 
ATOM     22  C   UNL     1     -10.718 -10.004  16.738  0.00  0.00    +0.037 A 
ATOM     23  C   UNL     1      -9.586  -9.422  16.173  0.00  0.00    +0.016 A 
ATOM     24  C   UNL     1     -11.822  -9.221  17.066  0.00  0.00    +0.016 A 
ATOM     26  C   UNL     1      -9.558  -8.047  15.934  0.00  0.00    +0.039 A 
ATOM     27  C   UNL     1     -11.794  -7.847  16.828  0.00  0.00    +0.039 A 
ATOM     28  C   UNL     1     -10.661  -7.260  16.262  0.00  0.00    +0.123 A 
ENDBRANCH  19  22
BRANCH  20   8
ATOM      4  O   UNL     1      -6.616 -10.127  13.560  0.00  0.00    -0.252 OA
ATOM      8  N   UNL     1      -4.910 -10.793  14.982  0.00  0.00    -0.265 N 
ATOM      9  N   UNL     1      -4.401 -10.289  12.802  0.00  0.00    -0.266 N 
ATOM     25  C   UNL     1      -5.427 -10.375  13.749  0.00  0.00    +0.308 C 
ATOM     36  H   UNL     1      -3.985 -11.214  14.978  0.00  0.00    +0.157 HD
ATOM     37  H   UNL     1      -3.466 -10.531  13.120  0.00  0.00    +0.156 HD
BRANCH   9  29
ATOM     29  C   UNL     1      -4.501  -9.906  11.444  0.00  0.00    +0.077 A 
ATOM     30  C   UNL     1      -3.948 -10.705  10.455  0.00  0.00    +0.141 A 
ATOM     31  C   UNL     1      -5.160  -8.727  11.132  0.00  0.00    +0.027 A 
ATOM     32  C   UNL     1      -4.056 -10.314   9.120  0.00  0.00    +0.047 A 
ATOM     33  C   UNL     1      -5.268  -8.337   9.797  0.00  0.00    +0.002 A 
ATOM     34  C   UNL     1      -4.716  -9.131   8.791  0.00  0.00    +0.004 A 
BRANCH  30   5
ATOM      5  O   UNL     1      -3.298 -11.865  10.757  0.00  0.00    -0.493 OA
ATOM     35  C   UNL     1      -3.937 -13.081  10.376  0.00  0.00    +0.277 C 
ENDBRANCH  30   5
ENDBRANCH   9  29
ENDBRANCH  20   8
TORSDOF 4
ENDMDL
MODEL 9
REMARK VINA RESULT:      -6.9     14.658     16.201
REMARK  Name = 11885887
REMARK  5 active torsions:
REMARK  status: ('A' for Active; 'I' for Inactive)
REMARK    1  A    between atoms: O_5  and  C_30
REMARK    2  A    between atoms: O_5  and  C_35
REMARK    3  A    between atoms: N_8  and  C_20
REMARK    4  A    between atoms: N_9  and  C_29
REMARK    5  A    between atoms: C_19  and  C_22
REMARK                            x       y       z     vdW  Elec       q    Type
REMARK                         _______ _______ _______ _____ _____    ______ ____
ROOT
ATOM      2  O   UNL     1      13.935   6.556   7.341  0.00  0.00    -0.266 OA
ATOM      3  O   UNL     1      10.949   4.352   3.735  0.00  0.00    -0.270 OA
ATOM      6  N   UNL     1       9.636   5.905   4.893  0.00  0.00    -0.297 N 
ATOM      7  N   UNL     1      11.738   7.204   6.882  0.00  0.00    -0.310 N 
ATOM     10  C   UNL     1       9.720   5.703   7.372  0.00  0.00    +0.027 C 
ATOM     11  C   UNL     1       9.382   7.910   6.335  0.00  0.00    +0.054 C 
ATOM     12  C   UNL     1       8.954   7.015   7.498  0.00  0.00    +0.018 C 
ATOM     13  C   UNL     1       9.397   5.018   6.031  0.00  0.00    +0.113 C 
ATOM     14  C   UNL     1      11.218   5.989   7.528  0.00  0.00    +0.130 C 
ATOM     15  C   UNL     1       9.013   7.234   5.000  0.00  0.00    +0.117 C 
ATOM     16  C   UNL     1      10.874   8.181   6.376  0.00  0.00    +0.027 A 
ATOM     17  C   UNL     1      11.366   9.335   5.896  0.00  0.00    +0.024 A 
ATOM     18  C   UNL     1      13.137   7.378   6.892  0.00  0.00    +0.273 A 
ATOM     19  C   UNL     1      10.427   5.462   3.830  0.00  0.00    +0.247 C 
ATOM     20  C   UNL     1      13.646   8.666   6.323  0.00  0.00    +0.100 A 
ATOM     21  C   UNL     1      12.780   9.579   5.869  0.00  0.00    +0.030 A 
ENDROOT
BRANCH  19  22
ATOM      1  F   UNL     1      11.403   9.017  -0.374  0.00  0.00    -0.205 F 
ATOM     22  C   UNL     1      10.682   6.394   2.728  0.00  0.00    +0.037 A 
ATOM     23  C   UNL     1      11.749   7.285   2.808  0.00  0.00    +0.016 A 
ATOM     24  C   UNL     1       9.857   6.384   1.606  0.00  0.00    +0.016 A 
ATOM     26  C   UNL     1      11.993   8.172   1.758  0.00  0.00    +0.039 A 
ATOM     27  C   UNL     1      10.101   7.270   0.557  0.00  0.00    +0.039 A 
ATOM     28  C   UNL     1      11.169   8.165   0.634  0.00  0.00    +0.123 A 
ENDBRANCH  19  22
BRANCH  20   8
ATOM      4  O   UNL     1      15.452   7.645   4.378  0.00  0.00    -0.252 OA
ATOM      8  N   UNL     1      14.995   8.865   6.297  0.00  0.00    -0.265 N 
ATOM      9  N   UNL     1      17.166   8.721   5.567  0.00  0.00    -0.266 N 
ATOM     25  C   UNL     1      15.844   8.338   5.314  0.00  0.00    +0.308 C 
ATOM     36  H   UNL     1      15.428   9.198   7.153  0.00  0.00    +0.157 HD
ATOM     37  H   UNL     1      17.324   9.298   6.389  0.00  0.00    +0.156 HD
BRANCH   9  29
ATOM     29  C   UNL     1      18.322   8.401   4.817  0.00  0.00    +0.077 A 
ATOM     30  C   UNL     1      19.507   8.093   5.467  0.00  0.00    +0.141 A 
ATOM     31  C   UNL     1      18.239   8.402   3.433  0.00  0.00    +0.027 A 
ATOM     32  C   UNL     1      20.638   7.778   4.713  0.00  0.00    +0.047 A 
ATOM     33  C   UNL     1      19.371   8.087   2.681  0.00  0.00    +0.002 A 
ATOM     34  C   UNL     1      20.570   7.775   3.320  0.00  0.00    +0.004 A 
BRANCH  30   5
ATOM      5  O   UNL     1      19.594   8.090   6.827  0.00  0.00    -0.493 OA
ATOM     35  C   UNL     1      20.306   9.168   7.432  0.00  0.00    +0.277 C 
ENDBRANCH  30   5
ENDBRANCH   9  29
ENDBRANCH  20   8
TORSDOF 4
ENDMDL
MODEL 10
REMARK VINA RESULT:      -6.7     24.558     29.218
REMARK  Name = 11885887
REMARK  5 active torsions:
REMARK  status: ('A' for Active; 'I' for Inactive)
REMARK    1  A    between atoms: O_5  and  C_30
REMARK    2  A    between atoms: O_5  and  C_35
REMARK    3  A    between atoms: N_8  and  C_20
REMARK    4  A    between atoms: N_9  and  C_29
REMARK    5  A    between atoms: C_19  and  C_22
REMARK                            x       y       z     vdW  Elec       q    Type
REMARK                         _______ _______ _______ _____ _____    ______ ____
ROOT
ATOM      2  O   UNL     1      -4.678   9.431  35.552  0.00  0.00    -0.266 OA
ATOM      3  O   UNL     1      -0.290   7.069  36.946  0.00  0.00    -0.270 OA
ATOM      6  N   UNL     1      -0.451   9.054  38.175  0.00  0.00    -0.297 N 
ATOM      7  N   UNL     1      -3.272  10.178  37.262  0.00  0.00    -0.310 N 
ATOM     10  C   UNL     1      -0.918  11.088  36.821  0.00  0.00    +0.027 C 
ATOM     11  C   UNL     1      -1.760  10.936  39.129  0.00  0.00    +0.054 C 
ATOM     12  C   UNL     1      -1.138  11.883  38.103  0.00  0.00    +0.018 C 
ATOM     13  C   UNL     1       0.025   9.899  37.080  0.00  0.00    +0.113 C 
ATOM     14  C   UNL     1      -2.280  10.637  36.279  0.00  0.00    +0.130 C 
ATOM     15  C   UNL     1      -0.788   9.774  39.414  0.00  0.00    +0.117 C 
ATOM     16  C   UNL     1      -3.083  10.385  38.632  0.00  0.00    +0.027 A 
ATOM     17  C   UNL     1      -4.053  10.064  39.504  0.00  0.00    +0.024 A 
ATOM     18  C   UNL     1      -4.459   9.616  36.749  0.00  0.00    +0.273 A 
ATOM     19  C   UNL     1      -0.571   7.676  37.978  0.00  0.00    +0.247 C 
ATOM     20  C   UNL     1      -5.504   9.246  37.757  0.00  0.00    +0.100 A 
ATOM     21  C   UNL     1      -5.286   9.482  39.055  0.00  0.00    +0.030 A 
ENDROOT
BRANCH  19  22
ATOM      1  F   UNL     1      -2.567   4.589  42.191  0.00  0.00    -0.205 F 
ATOM     22  C   UNL     1      -1.094   6.867  39.084  0.00  0.00    +0.037 A 
ATOM     23  C   UNL     1      -2.435   6.973  39.446  0.00  0.00    +0.016 A 
ATOM     24  C   UNL     1      -0.248   5.995  39.765  0.00  0.00    +0.016 A 
ATOM     26  C   UNL     1      -2.933   6.202  40.497  0.00  0.00    +0.039 A 
ATOM     27  C   UNL     1      -0.746   5.225  40.816  0.00  0.00    +0.039 A 
ATOM     28  C   UNL     1      -2.089   5.329  41.181  0.00  0.00    +0.123 A 
ENDBRANCH  19  22
BRANCH  20   8
ATOM      4  O   UNL     1      -7.992  10.578  37.404  0.00  0.00    -0.252 OA
ATOM      8  N   UNL     1      -6.659   8.682  37.302  0.00  0.00    -0.265 N 
ATOM      9  N   UNL     1      -8.858   8.525  36.664  0.00  0.00    -0.266 N 
ATOM     25  C   UNL     1      -7.863   9.383  37.146  0.00  0.00    +0.308 C 
ATOM     36  H   UNL     1      -6.711   7.668  37.313  0.00  0.00    +0.157 HD
ATOM     37  H   UNL     1      -8.587   7.559  36.502  0.00  0.00    +0.156 HD
BRANCH   9  29
ATOM     29  C   UNL     1     -10.206   8.837  36.372  0.00  0.00    +0.077 A 
ATOM     30  C   UNL     1     -10.530   9.464  35.178  0.00  0.00    +0.141 A 
ATOM     31  C   UNL     1     -11.182   8.503  37.297  0.00  0.00    +0.027 A 
ATOM     32  C   UNL     1     -11.865   9.765  34.904  0.00  0.00    +0.047 A 
ATOM     33  C   UNL     1     -12.517   8.803  37.022  0.00  0.00    +0.002 A 
ATOM     34  C   UNL     1     -12.858   9.434  35.826  0.00  0.00    +0.004 A 
BRANCH  30   5
ATOM      5  O   UNL     1      -9.574   9.796  34.265  0.00  0.00    -0.493 OA
ATOM     35  C   UNL     1     -10.004   9.983  32.918  0.00  0.00    +0.277 C 
ENDBRANCH  30   5
ENDBRANCH   9  29
ENDBRANCH  20   8
TORSDOF 4
ENDMDL
