MODEL 1
REMARK VINA RESULT:      -5.6      0.000      0.000
REMARK  Name = 26742993
REMARK  10 active torsions:
REMARK  status: ('A' for Active; 'I' for Inactive)
REMARK    1  A    between atoms: N_4  and  C_19
REMARK    2  A    between atoms: C_7  and  C_13
REMARK    3  A    between atoms: C_8  and  C_11
REMARK    4  A    between atoms: C_11  and  C_14
REMARK    5  A    between atoms: C_13  and  C_15
REMARK    6  A    between atoms: C_17  and  C_18
REMARK    7  A    between atoms: C_18  and  C_20
REMARK    8  A    between atoms: C_19  and  C_22
REMARK    9  A    between atoms: C_20  and  C_21
REMARK   10  A    between atoms: C_21  and  C_23
REMARK                            x       y       z     vdW  Elec       q    Type
REMARK                         _______ _______ _______ _____ _____    ______ ____
ROOT
ATOM      3  N   UNL     1      21.053   5.138  21.653  0.00  0.00    -0.316 NA
ATOM      7  C   UNL     1      18.981   7.221  21.926  0.00  0.00    +0.004 C 
ATOM      8  C   UNL     1      18.868   6.057  20.912  0.00  0.00    +0.012 C 
ATOM      9  C   UNL     1      19.903   6.795  23.080  0.00  0.00    +0.019 C 
ATOM     10  C   UNL     1      20.252   5.533  20.493  0.00  0.00    +0.085 C 
ATOM     12  C   UNL     1      21.241   6.247  22.586  0.00  0.00    +0.081 C 
ATOM     28  H   UNL     1      21.963   4.805  21.336  0.00  0.00    +0.122 HD
ENDROOT
BRANCH   8  11
ATOM     11  C   UNL     1      18.033   6.412  19.682  0.00  0.00    +0.064 C 
BRANCH  11  14
ATOM      1  O   UNL     1      14.802   6.591  21.260  0.00  0.00    -0.359 OA
ATOM      5  N   UNL     1      16.182   6.440  21.298  0.00  0.00    -0.083 NA
ATOM     14  C   UNL     1      16.576   6.531  20.025  0.00  0.00    +0.084 A 
ATOM     16  C   UNL     1      15.499   6.738  19.146  0.00  0.00    +0.071 A 
ATOM     17  C   UNL     1      14.406   6.769  19.973  0.00  0.00    +0.138 A 
BRANCH  17  18
ATOM     18  C   UNL     1      12.967   6.947  19.749  0.00  0.00    +0.077 C 
BRANCH  18  20
ATOM     20  C   UNL     1      12.147   6.960  21.057  0.00  0.00    +0.007 C 
BRANCH  20  21
ATOM     21  C   UNL     1      10.899   7.838  20.961  0.00  0.00    -0.003 C 
ATOM     23  C   UNL     1      10.577   8.497  22.293  0.00  0.00    +0.004 C 
ENDBRANCH  20  21
ENDBRANCH  18  20
ENDBRANCH  17  18
ENDBRANCH  11  14
ENDBRANCH   8  11
BRANCH   7  13
ATOM     13  C   UNL     1      19.456   8.541  21.308  0.00  0.00    +0.099 C 
BRANCH  13  15
ATOM      2  O   UNL     1      18.953  10.850  21.829  0.00  0.00    -0.276 OA
ATOM      4  N   UNL     1      17.231   9.290  21.785  0.00  0.00    -0.311 N 
ATOM     15  C   UNL     1      18.550   9.701  21.667  0.00  0.00    +0.214 C 
ATOM     29  H   UNL     1      17.003   8.309  21.647  0.00  0.00    +0.149 HD
BRANCH   4  19
ATOM     19  C   UNL     1      16.151  10.189  22.123  0.00  0.00    +0.141 C 
BRANCH  19  22
ATOM      6  N   UNL     1      14.750  10.433  18.619  0.00  0.00    -0.263 NA
ATOM     22  C   UNL     1      15.167  10.332  20.998  0.00  0.00    -0.012 A 
ATOM     24  C   UNL     1      13.809  10.494  21.250  0.00  0.00    +0.008 A 
ATOM     25  C   UNL     1      15.583  10.308  19.677  0.00  0.00    +0.115 A 
ATOM     26  C   UNL     1      12.921  10.626  20.189  0.00  0.00    +0.020 A 
ATOM     27  C   UNL     1      13.439  10.589  18.903  0.00  0.00    +0.111 A 
ENDBRANCH  19  22
ENDBRANCH   4  19
ENDBRANCH  13  15
ENDBRANCH   7  13
TORSDOF 9
ENDMDL
MODEL 2
REMARK VINA RESULT:      -5.4     29.310     32.690
REMARK  Name = 26742993
REMARK  10 active torsions:
REMARK  status: ('A' for Active; 'I' for Inactive)
REMARK    1  A    between atoms: N_4  and  C_19
REMARK    2  A    between atoms: C_7  and  C_13
REMARK    3  A    between atoms: C_8  and  C_11
REMARK    4  A    between atoms: C_11  and  C_14
REMARK    5  A    between atoms: C_13  and  C_15
REMARK    6  A    between atoms: C_17  and  C_18
REMARK    7  A    between atoms: C_18  and  C_20
REMARK    8  A    between atoms: C_19  and  C_22
REMARK    9  A    between atoms: C_20  and  C_21
REMARK   10  A    between atoms: C_21  and  C_23
REMARK                            x       y       z     vdW  Elec       q    Type
REMARK                         _______ _______ _______ _____ _____    ______ ____
ROOT
ATOM      3  N   UNL     1     -13.935   5.116  35.144  0.00  0.00    -0.316 NA
ATOM      7  C   UNL     1     -14.300   5.699  32.275  0.00  0.00    +0.004 C 
ATOM      8  C   UNL     1     -13.795   6.757  33.285  0.00  0.00    +0.012 C 
ATOM      9  C   UNL     1     -13.980   4.295  32.814  0.00  0.00    +0.019 C 
ATOM     10  C   UNL     1     -14.297   6.466  34.709  0.00  0.00    +0.085 C 
ATOM     12  C   UNL     1     -14.472   4.095  34.247  0.00  0.00    +0.081 C 
ATOM     28  H   UNL     1     -14.291   4.959  36.086  0.00  0.00    +0.122 HD
ENDROOT
BRANCH   8  11
ATOM     11  C   UNL     1     -14.139   8.189  32.876  0.00  0.00    +0.064 C 
BRANCH  11  14
ATOM      1  O   UNL     1     -11.125   9.100  31.130  0.00  0.00    -0.359 OA
ATOM      5  N   UNL     1     -11.814   8.390  32.105  0.00  0.00    -0.083 NA
ATOM     14  C   UNL     1     -13.088   8.767  31.971  0.00  0.00    +0.084 A 
ATOM     16  C   UNL     1     -13.263   9.704  30.938  0.00  0.00    +0.071 A 
ATOM     17  C   UNL     1     -11.998   9.879  30.441  0.00  0.00    +0.138 A 
BRANCH  17  18
ATOM     18  C   UNL     1     -11.434  10.702  29.365  0.00  0.00    +0.077 C 
BRANCH  18  20
ATOM     20  C   UNL     1     -11.660  10.101  27.960  0.00  0.00    +0.007 C 
BRANCH  20  21
ATOM     21  C   UNL     1     -12.887  10.685  27.260  0.00  0.00    -0.003 C 
ATOM     23  C   UNL     1     -12.911  10.326  25.783  0.00  0.00    +0.004 C 
ENDBRANCH  20  21
ENDBRANCH  18  20
ENDBRANCH  17  18
ENDBRANCH  11  14
ENDBRANCH   8  11
BRANCH   7  13
ATOM     13  C   UNL     1     -15.789   5.825  31.933  0.00  0.00    +0.099 C 
BRANCH  13  15
ATOM      2  O   UNL     1     -17.241   3.956  31.432  0.00  0.00    -0.276 OA
ATOM      4  N   UNL     1     -15.534   4.502  29.952  0.00  0.00    -0.311 N 
ATOM     15  C   UNL     1     -16.289   4.660  31.105  0.00  0.00    +0.214 C 
ATOM     29  H   UNL     1     -14.752   5.130  29.782  0.00  0.00    +0.149 HD
BRANCH   4  19
ATOM     19  C   UNL     1     -15.787   3.465  28.978  0.00  0.00    +0.141 C 
BRANCH  19  22
ATOM      6  N   UNL     1     -15.872  -0.202  29.894  0.00  0.00    -0.263 NA
ATOM     22  C   UNL     1     -15.342   2.117  29.465  0.00  0.00    -0.012 A 
ATOM     24  C   UNL     1     -14.046   1.914  29.928  0.00  0.00    +0.008 A 
ATOM     25  C   UNL     1     -16.208   1.036  29.468  0.00  0.00    +0.115 A 
ATOM     26  C   UNL     1     -13.663   0.655  30.375  0.00  0.00    +0.020 A 
ATOM     27  C   UNL     1     -14.606  -0.361  30.337  0.00  0.00    +0.111 A 
ENDBRANCH  19  22
ENDBRANCH   4  19
ENDBRANCH  13  15
ENDBRANCH   7  13
TORSDOF 9
ENDMDL
MODEL 3
REMARK VINA RESULT:      -5.4     28.899     32.598
REMARK  Name = 26742993
REMARK  10 active torsions:
REMARK  status: ('A' for Active; 'I' for Inactive)
REMARK    1  A    between atoms: N_4  and  C_19
REMARK    2  A    between atoms: C_7  and  C_13
REMARK    3  A    between atoms: C_8  and  C_11
REMARK    4  A    between atoms: C_11  and  C_14
REMARK    5  A    between atoms: C_13  and  C_15
REMARK    6  A    between atoms: C_17  and  C_18
REMARK    7  A    between atoms: C_18  and  C_20
REMARK    8  A    between atoms: C_19  and  C_22
REMARK    9  A    between atoms: C_20  and  C_21
REMARK   10  A    between atoms: C_21  and  C_23
REMARK                            x       y       z     vdW  Elec       q    Type
REMARK                         _______ _______ _______ _____ _____    ______ ____
ROOT
ATOM      3  N   UNL     1     -13.866   5.366  35.389  0.00  0.00    -0.316 NA
ATOM      7  C   UNL     1     -14.073   5.490  32.448  0.00  0.00    +0.004 C 
ATOM      8  C   UNL     1     -13.392   6.598  33.286  0.00  0.00    +0.012 C 
ATOM      9  C   UNL     1     -14.031   4.169  33.234  0.00  0.00    +0.019 C 
ATOM     10  C   UNL     1     -13.960   6.661  34.714  0.00  0.00    +0.085 C 
ATOM     12  C   UNL     1     -14.573   4.318  34.655  0.00  0.00    +0.081 C 
ATOM     28  H   UNL     1     -14.259   5.445  36.326  0.00  0.00    +0.122 HD
ENDROOT
BRANCH   8  11
ATOM     11  C   UNL     1     -13.454   7.974  32.623  0.00  0.00    +0.064 C 
BRANCH  11  14
ATOM      1  O   UNL     1     -10.196   9.455  32.228  0.00  0.00    -0.359 OA
ATOM      5  N   UNL     1     -11.261   8.687  31.774  0.00  0.00    -0.083 NA
ATOM     14  C   UNL     1     -12.153   8.711  32.767  0.00  0.00    +0.084 A 
ATOM     16  C   UNL     1     -11.711   9.470  33.864  0.00  0.00    +0.071 A 
ATOM     17  C   UNL     1     -10.476   9.916  33.474  0.00  0.00    +0.138 A 
BRANCH  17  18
ATOM     18  C   UNL     1      -9.450  10.752  34.109  0.00  0.00    +0.077 C 
BRANCH  18  20
ATOM     20  C   UNL     1      -8.434   9.938  34.940  0.00  0.00    +0.007 C 
BRANCH  20  21
ATOM     21  C   UNL     1      -8.961   9.586  36.332  0.00  0.00    -0.003 C 
ATOM     23  C   UNL     1      -8.356   8.289  36.846  0.00  0.00    +0.004 C 
ENDBRANCH  20  21
ENDBRANCH  18  20
ENDBRANCH  17  18
ENDBRANCH  11  14
ENDBRANCH   8  11
BRANCH   7  13
ATOM     13  C   UNL     1     -15.507   5.824  32.020  0.00  0.00    +0.099 C 
BRANCH  13  15
ATOM      2  O   UNL     1     -17.158   4.112  31.581  0.00  0.00    -0.276 OA
ATOM      4  N   UNL     1     -15.433   4.448  30.061  0.00  0.00    -0.311 N 
ATOM     15  C   UNL     1     -16.144   4.704  31.224  0.00  0.00    +0.214 C 
ATOM     29  H   UNL     1     -14.592   4.985  29.864  0.00  0.00    +0.149 HD
BRANCH   4  19
ATOM     19  C   UNL     1     -15.814   3.427  29.112  0.00  0.00    +0.141 C 
BRANCH  19  22
ATOM      6  N   UNL     1     -15.882  -0.271  29.897  0.00  0.00    -0.263 NA
ATOM     22  C   UNL     1     -15.360   2.062  29.542  0.00  0.00    -0.012 A 
ATOM     24  C   UNL     1     -14.056   1.844  29.974  0.00  0.00    +0.008 A 
ATOM     25  C   UNL     1     -16.226   0.981  29.521  0.00  0.00    +0.115 A 
ATOM     26  C   UNL     1     -13.664   0.570  30.369  0.00  0.00    +0.020 A 
ATOM     27  C   UNL     1     -14.608  -0.445  30.312  0.00  0.00    +0.111 A 
ENDBRANCH  19  22
ENDBRANCH   4  19
ENDBRANCH  13  15
ENDBRANCH   7  13
TORSDOF 9
ENDMDL
MODEL 4
REMARK VINA RESULT:      -5.2      3.787      6.255
REMARK  Name = 26742993
REMARK  10 active torsions:
REMARK  status: ('A' for Active; 'I' for Inactive)
REMARK    1  A    between atoms: N_4  and  C_19
REMARK    2  A    between atoms: C_7  and  C_13
REMARK    3  A    between atoms: C_8  and  C_11
REMARK    4  A    between atoms: C_11  and  C_14
REMARK    5  A    between atoms: C_13  and  C_15
REMARK    6  A    between atoms: C_17  and  C_18
REMARK    7  A    between atoms: C_18  and  C_20
REMARK    8  A    between atoms: C_19  and  C_22
REMARK    9  A    between atoms: C_20  and  C_21
REMARK   10  A    between atoms: C_21  and  C_23
REMARK                            x       y       z     vdW  Elec       q    Type
REMARK                         _______ _______ _______ _____ _____    ______ ____
ROOT
ATOM      3  N   UNL     1      14.708   6.214  21.002  0.00  0.00    -0.316 NA
ATOM      7  C   UNL     1      14.516   8.303  18.927  0.00  0.00    +0.004 C 
ATOM      8  C   UNL     1      13.524   8.207  20.111  0.00  0.00    +0.012 C 
ATOM      9  C   UNL     1      15.841   7.632  19.325  0.00  0.00    +0.019 C 
ATOM     10  C   UNL     1      13.403   6.765  20.634  0.00  0.00    +0.085 C 
ATOM     12  C   UNL     1      15.637   6.220  19.873  0.00  0.00    +0.081 C 
ATOM     28  H   UNL     1      14.588   5.258  21.335  0.00  0.00    +0.122 HD
ENDROOT
BRANCH   8  11
ATOM     11  C   UNL     1      12.144   8.777  19.784  0.00  0.00    +0.064 C 
BRANCH  11  14
ATOM      1  O   UNL     1      10.648  10.404  22.626  0.00  0.00    -0.359 OA
ATOM      5  N   UNL     1      10.881   9.291  21.828  0.00  0.00    -0.083 NA
ATOM     14  C   UNL     1      11.678   9.728  20.850  0.00  0.00    +0.084 A 
ATOM     16  C   UNL     1      11.980  11.095  20.976  0.00  0.00    +0.071 A 
ATOM     17  C   UNL     1      11.308  11.472  22.109  0.00  0.00    +0.138 A 
BRANCH  17  18
ATOM     18  C   UNL     1      11.171  12.741  22.833  0.00  0.00    +0.077 C 
BRANCH  18  20
ATOM     20  C   UNL     1      11.980  12.779  24.148  0.00  0.00    +0.007 C 
BRANCH  20  21
ATOM     21  C   UNL     1      11.722  14.047  24.962  0.00  0.00    -0.003 C 
ATOM     23  C   UNL     1      10.559  13.866  25.924  0.00  0.00    +0.004 C 
ENDBRANCH  20  21
ENDBRANCH  18  20
ENDBRANCH  17  18
ENDBRANCH  11  14
ENDBRANCH   8  11
BRANCH   7  13
ATOM     13  C   UNL     1      13.980   7.717  17.615  0.00  0.00    +0.099 C 
BRANCH  13  15
ATOM      2  O   UNL     1      13.774   8.449  15.319  0.00  0.00    -0.276 OA
ATOM      4  N   UNL     1      14.157  10.021  16.986  0.00  0.00    -0.311 N 
ATOM     15  C   UNL     1      13.953   8.739  16.498  0.00  0.00    +0.214 C 
ATOM     29  H   UNL     1      14.314  10.154  17.982  0.00  0.00    +0.149 HD
BRANCH   4  19
ATOM     19  C   UNL     1      14.184  11.193  16.141  0.00  0.00    +0.141 C 
BRANCH  19  22
ATOM      6  N   UNL     1      17.526  11.771  14.469  0.00  0.00    -0.263 NA
ATOM     22  C   UNL     1      15.583  11.684  15.904  0.00  0.00    -0.012 A 
ATOM     24  C   UNL     1      16.233  12.474  16.845  0.00  0.00    +0.008 A 
ATOM     25  C   UNL     1      16.266  11.363  14.743  0.00  0.00    +0.115 A 
ATOM     26  C   UNL     1      17.530  12.913  16.600  0.00  0.00    +0.020 A 
ATOM     27  C   UNL     1      18.126  12.536  15.407  0.00  0.00    +0.111 A 
ENDBRANCH  19  22
ENDBRANCH   4  19
ENDBRANCH  13  15
ENDBRANCH   7  13
TORSDOF 9
ENDMDL
MODEL 5
REMARK VINA RESULT:      -5.2     27.738     30.196
REMARK  Name = 26742993
REMARK  10 active torsions:
REMARK  status: ('A' for Active; 'I' for Inactive)
REMARK    1  A    between atoms: N_4  and  C_19
REMARK    2  A    between atoms: C_7  and  C_13
REMARK    3  A    between atoms: C_8  and  C_11
REMARK    4  A    between atoms: C_11  and  C_14
REMARK    5  A    between atoms: C_13  and  C_15
REMARK    6  A    between atoms: C_17  and  C_18
REMARK    7  A    between atoms: C_18  and  C_20
REMARK    8  A    between atoms: C_19  and  C_22
REMARK    9  A    between atoms: C_20  and  C_21
REMARK   10  A    between atoms: C_21  and  C_23
REMARK                            x       y       z     vdW  Elec       q    Type
REMARK                         _______ _______ _______ _____ _____    ______ ____
ROOT
ATOM      3  N   UNL     1      -5.015 -12.799  18.975  0.00  0.00    -0.316 NA
ATOM      7  C   UNL     1      -5.700 -11.298  16.529  0.00  0.00    +0.004 C 
ATOM      8  C   UNL     1      -4.244 -11.656  16.910  0.00  0.00    +0.012 C 
ATOM      9  C   UNL     1      -6.655 -12.302  17.195  0.00  0.00    +0.019 C 
ATOM     10  C   UNL     1      -4.078 -11.816  18.431  0.00  0.00    +0.085 C 
ATOM     12  C   UNL     1      -6.404 -12.438  18.696  0.00  0.00    +0.081 C 
ATOM     28  H   UNL     1      -4.881 -12.871  19.983  0.00  0.00    +0.122 HD
ENDROOT
BRANCH   8  11
ATOM     11  C   UNL     1      -3.219 -10.664  16.360  0.00  0.00    +0.064 C 
BRANCH  11  14
ATOM      1  O   UNL     1      -1.787 -12.044  13.358  0.00  0.00    -0.359 OA
ATOM      5  N   UNL     1      -1.922 -11.980  14.739  0.00  0.00    -0.083 NA
ATOM     14  C   UNL     1      -2.819 -11.013  14.955  0.00  0.00    +0.084 A 
ATOM     16  C   UNL     1      -3.280 -10.436  13.759  0.00  0.00    +0.071 A 
ATOM     17  C   UNL     1      -2.601 -11.120  12.785  0.00  0.00    +0.138 A 
BRANCH  17  18
ATOM     18  C   UNL     1      -2.583 -11.050  11.319  0.00  0.00    +0.077 C 
BRANCH  18  20
ATOM     20  C   UNL     1      -3.907 -10.523  10.723  0.00  0.00    +0.007 C 
BRANCH  20  21
ATOM     21  C   UNL     1      -3.732  -9.195   9.984  0.00  0.00    -0.003 C 
ATOM     23  C   UNL     1      -4.843  -8.216  10.325  0.00  0.00    +0.004 C 
ENDBRANCH  20  21
ENDBRANCH  18  20
ENDBRANCH  17  18
ENDBRANCH  11  14
ENDBRANCH   8  11
BRANCH   7  13
ATOM     13  C   UNL     1      -6.098  -9.857  16.871  0.00  0.00    +0.099 C 
BRANCH  13  15
ATOM      2  O   UNL     1      -7.981  -9.740  15.357  0.00  0.00    -0.276 OA
ATOM      4  N   UNL     1      -8.239  -9.031  17.555  0.00  0.00    -0.311 N 
ATOM     15  C   UNL     1      -7.529  -9.549  16.483  0.00  0.00    +0.214 C 
ATOM     29  H   UNL     1      -7.766  -8.896  18.445  0.00  0.00    +0.149 HD
BRANCH   4  19
ATOM     19  C   UNL     1      -9.629  -8.646  17.469  0.00  0.00    +0.141 C 
BRANCH  19  22
ATOM      6  N   UNL     1     -10.677 -11.161  20.091  0.00  0.00    -0.263 NA
ATOM     22  C   UNL     1     -10.501  -9.482  18.360  0.00  0.00    -0.012 A 
ATOM     24  C   UNL     1     -11.887  -9.382  18.306  0.00  0.00    +0.008 A 
ATOM     25  C   UNL     1      -9.950 -10.378  19.262  0.00  0.00    +0.115 A 
ATOM     26  C   UNL     1     -12.669 -10.171  19.142  0.00  0.00    +0.020 A 
ATOM     27  C   UNL     1     -12.020 -11.037  20.009  0.00  0.00    +0.111 A 
ENDBRANCH  19  22
ENDBRANCH   4  19
ENDBRANCH  13  15
ENDBRANCH   7  13
TORSDOF 9
ENDMDL
MODEL 6
REMARK VINA RESULT:      -5.1      2.840      7.314
REMARK  Name = 26742993
REMARK  10 active torsions:
REMARK  status: ('A' for Active; 'I' for Inactive)
REMARK    1  A    between atoms: N_4  and  C_19
REMARK    2  A    between atoms: C_7  and  C_13
REMARK    3  A    between atoms: C_8  and  C_11
REMARK    4  A    between atoms: C_11  and  C_14
REMARK    5  A    between atoms: C_13  and  C_15
REMARK    6  A    between atoms: C_17  and  C_18
REMARK    7  A    between atoms: C_18  and  C_20
REMARK    8  A    between atoms: C_19  and  C_22
REMARK    9  A    between atoms: C_20  and  C_21
REMARK   10  A    between atoms: C_21  and  C_23
REMARK                            x       y       z     vdW  Elec       q    Type
REMARK                         _______ _______ _______ _____ _____    ______ ____
ROOT
ATOM      3  N   UNL     1      11.813  13.876  24.472  0.00  0.00    -0.316 NA
ATOM      7  C   UNL     1      12.015  11.092  23.515  0.00  0.00    +0.004 C 
ATOM      8  C   UNL     1      12.804  12.257  22.871  0.00  0.00    +0.012 C 
ATOM      9  C   UNL     1      11.674  11.460  24.969  0.00  0.00    +0.019 C 
ATOM     10  C   UNL     1      12.084  13.603  23.060  0.00  0.00    +0.085 C 
ATOM     12  C   UNL     1      10.999  12.826  25.082  0.00  0.00    +0.081 C 
ATOM     28  H   UNL     1      11.330  14.769  24.556  0.00  0.00    +0.122 HD
ENDROOT
BRANCH   8  11
ATOM     11  C   UNL     1      13.121  12.021  21.394  0.00  0.00    +0.064 C 
BRANCH  11  14
ATOM      1  O   UNL     1      16.217  10.493  20.372  0.00  0.00    -0.359 OA
ATOM      5  N   UNL     1      15.211  11.442  20.240  0.00  0.00    -0.083 NA
ATOM     14  C   UNL     1      14.352  11.177  21.227  0.00  0.00    +0.084 A 
ATOM     16  C   UNL     1      14.758  10.081  22.008  0.00  0.00    +0.071 A 
ATOM     17  C   UNL     1      15.936   9.688  21.429  0.00  0.00    +0.138 A 
BRANCH  17  18
ATOM     18  C   UNL     1      16.902   8.621  21.715  0.00  0.00    +0.077 C 
BRANCH  18  20
ATOM     20  C   UNL     1      18.362   9.030  21.421  0.00  0.00    +0.007 C 
BRANCH  20  21
ATOM     21  C   UNL     1      19.296   7.827  21.292  0.00  0.00    -0.003 C 
ATOM     23  C   UNL     1      18.590   6.637  20.661  0.00  0.00    +0.004 C 
ENDBRANCH  20  21
ENDBRANCH  18  20
ENDBRANCH  17  18
ENDBRANCH  11  14
ENDBRANCH   8  11
BRANCH   7  13
ATOM     13  C   UNL     1      10.753  10.691  22.744  0.00  0.00    +0.099 C 
BRANCH  13  15
ATOM      2  O   UNL     1      10.812   8.275  22.841  0.00  0.00    -0.276 OA
ATOM      4  N   UNL     1      10.999   9.337  20.783  0.00  0.00    -0.311 N 
ATOM     15  C   UNL     1      10.854   9.297  22.162  0.00  0.00    +0.214 C 
ATOM     29  H   UNL     1      11.040  10.239  20.315  0.00  0.00    +0.149 HD
BRANCH   4  19
ATOM     19  C   UNL     1      11.122   8.151  19.967  0.00  0.00    +0.141 C 
BRANCH  19  22
ATOM      6  N   UNL     1      14.589   6.649  19.815  0.00  0.00    -0.263 NA
ATOM     22  C   UNL     1      12.541   7.905  19.544  0.00  0.00    -0.012 A 
ATOM     24  C   UNL     1      13.129   8.659  18.534  0.00  0.00    +0.008 A 
ATOM     25  C   UNL     1      13.307   6.920  20.147  0.00  0.00    +0.115 A 
ATOM     26  C   UNL     1      14.446   8.410  18.164  0.00  0.00    +0.020 A 
ATOM     27  C   UNL     1      15.126   7.402  18.831  0.00  0.00    +0.111 A 
ENDBRANCH  19  22
ENDBRANCH   4  19
ENDBRANCH  13  15
ENDBRANCH   7  13
TORSDOF 9
ENDMDL
MODEL 7
REMARK VINA RESULT:      -5.0     15.747     17.772
REMARK  Name = 26742993
REMARK  10 active torsions:
REMARK  status: ('A' for Active; 'I' for Inactive)
REMARK    1  A    between atoms: N_4  and  C_19
REMARK    2  A    between atoms: C_7  and  C_13
REMARK    3  A    between atoms: C_8  and  C_11
REMARK    4  A    between atoms: C_11  and  C_14
REMARK    5  A    between atoms: C_13  and  C_15
REMARK    6  A    between atoms: C_17  and  C_18
REMARK    7  A    between atoms: C_18  and  C_20
REMARK    8  A    between atoms: C_19  and  C_22
REMARK    9  A    between atoms: C_20  and  C_21
REMARK   10  A    between atoms: C_21  and  C_23
REMARK                            x       y       z     vdW  Elec       q    Type
REMARK                         _______ _______ _______ _____ _____    ______ ____
ROOT
ATOM      3  N   UNL     1      11.847   3.598  -0.086  0.00  0.00    -0.316 NA
ATOM      7  C   UNL     1      13.644   4.968   1.811  0.00  0.00    +0.004 C 
ATOM      8  C   UNL     1      12.102   5.021   1.933  0.00  0.00    +0.012 C 
ATOM      9  C   UNL     1      14.044   3.700   1.039  0.00  0.00    +0.019 C 
ATOM     10  C   UNL     1      11.418   4.835   0.568  0.00  0.00    +0.085 C 
ATOM     12  C   UNL     1      13.295   3.562  -0.285  0.00  0.00    +0.081 C 
ATOM     28  H   UNL     1      11.380   3.514  -0.988  0.00  0.00    +0.122 HD
ENDROOT
BRANCH   8  11
ATOM     11  C   UNL     1      11.598   6.291   2.618  0.00  0.00    +0.064 C 
BRANCH  11  14
ATOM      1  O   UNL     1       9.724   4.755   5.280  0.00  0.00    -0.359 OA
ATOM      5  N   UNL     1      10.526   4.695   4.147  0.00  0.00    -0.083 NA
ATOM     14  C   UNL     1      10.751   5.969   3.815  0.00  0.00    +0.084 A 
ATOM     16  C   UNL     1      10.122   6.869   4.693  0.00  0.00    +0.071 A 
ATOM     17  C   UNL     1       9.490   6.054   5.595  0.00  0.00    +0.138 A 
BRANCH  17  18
ATOM     18  C   UNL     1       8.654   6.302   6.775  0.00  0.00    +0.077 C 
BRANCH  18  20
ATOM     20  C   UNL     1       9.460   6.800   7.996  0.00  0.00    +0.007 C 
BRANCH  20  21
ATOM     21  C   UNL     1      10.315   5.699   8.624  0.00  0.00    -0.003 C 
ATOM     23  C   UNL     1       9.457   4.576   9.183  0.00  0.00    +0.004 C 
ENDBRANCH  20  21
ENDBRANCH  18  20
ENDBRANCH  17  18
ENDBRANCH  11  14
ENDBRANCH   8  11
BRANCH   7  13
ATOM     13  C   UNL     1      14.261   6.216   1.168  0.00  0.00    +0.099 C 
BRANCH  13  15
ATOM      2  O   UNL     1      15.221   8.288   1.966  0.00  0.00    -0.276 OA
ATOM      4  N   UNL     1      15.157   6.444   3.378  0.00  0.00    -0.311 N 
ATOM     15  C   UNL     1      14.928   7.117   2.187  0.00  0.00    +0.214 C 
ATOM     29  H   UNL     1      14.891   5.466   3.455  0.00  0.00    +0.149 HD
BRANCH   4  19
ATOM     19  C   UNL     1      15.783   7.061   4.525  0.00  0.00    +0.141 C 
BRANCH  19  22
ATOM      6  N   UNL     1      13.948   9.861   6.282  0.00  0.00    -0.263 NA
ATOM     22  C   UNL     1      14.788   7.777   5.391  0.00  0.00    -0.012 A 
ATOM     24  C   UNL     1      13.812   7.076   6.091  0.00  0.00    +0.008 A 
ATOM     25  C   UNL     1      14.813   9.156   5.519  0.00  0.00    +0.115 A 
ATOM     26  C   UNL     1      12.905   7.765   6.888  0.00  0.00    +0.020 A 
ATOM     27  C   UNL     1      13.015   9.146   6.948  0.00  0.00    +0.111 A 
ENDBRANCH  19  22
ENDBRANCH   4  19
ENDBRANCH  13  15
ENDBRANCH   7  13
TORSDOF 9
ENDMDL
MODEL 8
REMARK VINA RESULT:      -5.0     27.308     29.716
REMARK  Name = 26742993
REMARK  10 active torsions:
REMARK  status: ('A' for Active; 'I' for Inactive)
REMARK    1  A    between atoms: N_4  and  C_19
REMARK    2  A    between atoms: C_7  and  C_13
REMARK    3  A    between atoms: C_8  and  C_11
REMARK    4  A    between atoms: C_11  and  C_14
REMARK    5  A    between atoms: C_13  and  C_15
REMARK    6  A    between atoms: C_17  and  C_18
REMARK    7  A    between atoms: C_18  and  C_20
REMARK    8  A    between atoms: C_19  and  C_22
REMARK    9  A    between atoms: C_20  and  C_21
REMARK   10  A    between atoms: C_21  and  C_23
REMARK                            x       y       z     vdW  Elec       q    Type
REMARK                         _______ _______ _______ _____ _____    ______ ____
ROOT
ATOM      3  N   UNL     1     -16.929   5.817  22.988  0.00  0.00    -0.316 NA
ATOM      7  C   UNL     1     -14.235   6.948  22.572  0.00  0.00    +0.004 C 
ATOM      8  C   UNL     1     -15.439   7.803  23.036  0.00  0.00    +0.012 C 
ATOM      9  C   UNL     1     -14.481   5.481  22.961  0.00  0.00    +0.019 C 
ATOM     10  C   UNL     1     -16.775   7.208  22.560  0.00  0.00    +0.085 C 
ATOM     12  C   UNL     1     -15.843   4.973  22.492  0.00  0.00    +0.081 C 
ATOM     28  H   UNL     1     -17.819   5.456  22.648  0.00  0.00    +0.122 HD
ENDROOT
BRANCH   8  11
ATOM     11  C   UNL     1     -15.326   9.270  22.622  0.00  0.00    +0.064 C 
BRANCH  11  14
ATOM      1  O   UNL     1     -12.270  10.965  23.487  0.00  0.00    -0.359 OA
ATOM      5  N   UNL     1     -13.154  10.416  22.566  0.00  0.00    -0.083 NA
ATOM     14  C   UNL     1     -14.166   9.942  23.298  0.00  0.00    +0.084 A 
ATOM     16  C   UNL     1     -13.979  10.160  24.674  0.00  0.00    +0.071 A 
ATOM     17  C   UNL     1     -12.772  10.807  24.739  0.00  0.00    +0.138 A 
BRANCH  17  18
ATOM     18  C   UNL     1     -11.961  11.334  25.842  0.00  0.00    +0.077 C 
BRANCH  18  20
ATOM     20  C   UNL     1     -10.782  10.410  26.221  0.00  0.00    +0.007 C 
BRANCH  20  21
ATOM     21  C   UNL     1     -10.867   9.907  27.662  0.00  0.00    -0.003 C 
ATOM     23  C   UNL     1     -12.190  10.287  28.309  0.00  0.00    +0.004 C 
ENDBRANCH  20  21
ENDBRANCH  18  20
ENDBRANCH  17  18
ENDBRANCH  11  14
ENDBRANCH   8  11
BRANCH   7  13
ATOM     13  C   UNL     1     -13.924   7.070  21.075  0.00  0.00    +0.099 C 
BRANCH  13  15
ATOM      2  O   UNL     1     -11.584   6.456  21.063  0.00  0.00    -0.276 OA
ATOM      4  N   UNL     1     -12.219   8.542  20.262  0.00  0.00    -0.311 N 
ATOM     15  C   UNL     1     -12.449   7.291  20.812  0.00  0.00    +0.214 C 
ATOM     29  H   UNL     1     -13.005   9.169  20.108  0.00  0.00    +0.149 HD
BRANCH   4  19
ATOM     19  C   UNL     1     -10.902   9.021  19.911  0.00  0.00    +0.141 C 
BRANCH  19  22
ATOM      6  N   UNL     1     -10.315  10.641  16.545  0.00  0.00    -0.263 NA
ATOM     22  C   UNL     1     -10.740   9.185  18.428  0.00  0.00    -0.012 A 
ATOM     24  C   UNL     1     -10.856   8.097  17.569  0.00  0.00    +0.008 A 
ATOM     25  C   UNL     1     -10.470  10.424  17.870  0.00  0.00    +0.115 A 
ATOM     26  C   UNL     1     -10.704   8.279  16.200  0.00  0.00    +0.020 A 
ATOM     27  C   UNL     1     -10.436   9.561  15.742  0.00  0.00    +0.111 A 
ENDBRANCH  19  22
ENDBRANCH   4  19
ENDBRANCH  13  15
ENDBRANCH   7  13
TORSDOF 9
ENDMDL
MODEL 9
REMARK VINA RESULT:      -5.0     17.242     19.421
REMARK  Name = 26742993
REMARK  10 active torsions:
REMARK  status: ('A' for Active; 'I' for Inactive)
REMARK    1  A    between atoms: N_4  and  C_19
REMARK    2  A    between atoms: C_7  and  C_13
REMARK    3  A    between atoms: C_8  and  C_11
REMARK    4  A    between atoms: C_11  and  C_14
REMARK    5  A    between atoms: C_13  and  C_15
REMARK    6  A    between atoms: C_17  and  C_18
REMARK    7  A    between atoms: C_18  and  C_20
REMARK    8  A    between atoms: C_19  and  C_22
REMARK    9  A    between atoms: C_20  and  C_21
REMARK   10  A    between atoms: C_21  and  C_23
REMARK                            x       y       z     vdW  Elec       q    Type
REMARK                         _______ _______ _______ _____ _____    ______ ____
ROOT
ATOM      3  N   UNL     1      13.846   3.267   1.514  0.00  0.00    -0.316 NA
ATOM      7  C   UNL     1      11.908   5.447   1.070  0.00  0.00    +0.004 C 
ATOM      8  C   UNL     1      11.888   4.556   2.334  0.00  0.00    +0.012 C 
ATOM      9  C   UNL     1      13.328   5.450   0.479  0.00  0.00    +0.019 C 
ATOM     10  C   UNL     1      12.492   3.168   2.059  0.00  0.00    +0.085 C 
ATOM     12  C   UNL     1      13.876   4.039   0.273  0.00  0.00    +0.081 C 
ATOM     28  H   UNL     1      14.208   2.331   1.337  0.00  0.00    +0.122 HD
ENDROOT
BRANCH   8  11
ATOM     11  C   UNL     1      10.497   4.423   2.952  0.00  0.00    +0.064 C 
BRANCH  11  14
ATOM      1  O   UNL     1      10.854   6.840   5.596  0.00  0.00    -0.359 OA
ATOM      5  N   UNL     1      11.329   6.152   4.486  0.00  0.00    -0.083 NA
ATOM     14  C   UNL     1      10.334   5.334   4.135  0.00  0.00    +0.084 A 
ATOM     16  C   UNL     1       9.216   5.459   4.978  0.00  0.00    +0.071 A 
ATOM     17  C   UNL     1       9.595   6.419   5.879  0.00  0.00    +0.138 A 
BRANCH  17  18
ATOM     18  C   UNL     1       8.937   7.047   7.031  0.00  0.00    +0.077 C 
BRANCH  18  20
ATOM     20  C   UNL     1       9.257   6.344   8.369  0.00  0.00    +0.007 C 
BRANCH  20  21
ATOM     21  C   UNL     1       9.737   4.905   8.178  0.00  0.00    -0.003 C 
ATOM     23  C   UNL     1       9.381   4.034   9.372  0.00  0.00    +0.004 C 
ENDBRANCH  20  21
ENDBRANCH  18  20
ENDBRANCH  17  18
ENDBRANCH  11  14
ENDBRANCH   8  11
BRANCH   7  13
ATOM     13  C   UNL     1      10.877   5.048   0.009  0.00  0.00    +0.099 C 
BRANCH  13  15
ATOM      2  O   UNL     1       9.590   6.292  -1.619  0.00  0.00    -0.276 OA
ATOM      4  N   UNL     1       9.994   7.226   0.470  0.00  0.00    -0.311 N 
ATOM     15  C   UNL     1      10.083   6.235  -0.496  0.00  0.00    +0.214 C 
ATOM     29  H   UNL     1      10.454   7.088   1.367  0.00  0.00    +0.149 HD
BRANCH   4  19
ATOM     19  C   UNL     1       9.296   8.474   0.259  0.00  0.00    +0.141 C 
BRANCH  19  22
ATOM      6  N   UNL     1       6.458   9.980   2.254  0.00  0.00    -0.263 NA
ATOM     22  C   UNL     1       8.412   8.825   1.421  0.00  0.00    -0.012 A 
ATOM     24  C   UNL     1       8.691   8.358   2.701  0.00  0.00    +0.008 A 
ATOM     25  C   UNL     1       7.293   9.625   1.252  0.00  0.00    +0.115 A 
ATOM     26  C   UNL     1       7.856   8.702   3.758  0.00  0.00    +0.020 A 
ATOM     27  C   UNL     1       6.762   9.509   3.484  0.00  0.00    +0.111 A 
ENDBRANCH  19  22
ENDBRANCH   4  19
ENDBRANCH  13  15
ENDBRANCH   7  13
TORSDOF 9
ENDMDL
MODEL 10
REMARK VINA RESULT:      -5.0     27.260     30.178
REMARK  Name = 26742993
REMARK  10 active torsions:
REMARK  status: ('A' for Active; 'I' for Inactive)
REMARK    1  A    between atoms: N_4  and  C_19
REMARK    2  A    between atoms: C_7  and  C_13
REMARK    3  A    between atoms: C_8  and  C_11
REMARK    4  A    between atoms: C_11  and  C_14
REMARK    5  A    between atoms: C_13  and  C_15
REMARK    6  A    between atoms: C_17  and  C_18
REMARK    7  A    between atoms: C_18  and  C_20
REMARK    8  A    between atoms: C_19  and  C_22
REMARK    9  A    between atoms: C_20  and  C_21
REMARK   10  A    between atoms: C_21  and  C_23
REMARK                            x       y       z     vdW  Elec       q    Type
REMARK                         _______ _______ _______ _____ _____    ______ ____
ROOT
ATOM      3  N   UNL     1      -6.024 -14.271  17.328  0.00  0.00    -0.316 NA
ATOM      7  C   UNL     1      -6.433 -11.390  16.841  0.00  0.00    +0.004 C 
ATOM      8  C   UNL     1      -5.042 -12.062  16.763  0.00  0.00    +0.012 C 
ATOM      9  C   UNL     1      -7.518 -12.449  16.585  0.00  0.00    +0.019 C 
ATOM     10  C   UNL     1      -4.965 -13.314  17.652  0.00  0.00    +0.085 C 
ATOM     12  C   UNL     1      -7.353 -13.680  17.475  0.00  0.00    +0.081 C 
ATOM     28  H   UNL     1      -5.945 -15.081  17.942  0.00  0.00    +0.122 HD
ENDROOT
BRANCH   8  11
ATOM     11  C   UNL     1      -3.895 -11.103  17.084  0.00  0.00    +0.064 C 
BRANCH  11  14
ATOM      1  O   UNL     1      -1.369 -10.152  14.701  0.00  0.00    -0.359 OA
ATOM      5  N   UNL     1      -1.843 -10.297  15.999  0.00  0.00    -0.083 NA
ATOM     14  C   UNL     1      -3.069 -10.808  15.865  0.00  0.00    +0.084 A 
ATOM     16  C   UNL     1      -3.421 -11.006  14.518  0.00  0.00    +0.071 A 
ATOM     17  C   UNL     1      -2.318 -10.578  13.828  0.00  0.00    +0.138 A 
BRANCH  17  18
ATOM     18  C   UNL     1      -1.981 -10.495  12.402  0.00  0.00    +0.077 C 
BRANCH  18  20
ATOM     20  C   UNL     1      -2.879 -11.384  11.515  0.00  0.00    +0.007 C 
BRANCH  20  21
ATOM     21  C   UNL     1      -3.744 -10.571  10.551  0.00  0.00    -0.003 C 
ATOM     23  C   UNL     1      -3.110  -9.227  10.231  0.00  0.00    +0.004 C 
ENDBRANCH  20  21
ENDBRANCH  18  20
ENDBRANCH  17  18
ENDBRANCH  11  14
ENDBRANCH   8  11
BRANCH   7  13
ATOM     13  C   UNL     1      -6.695 -10.650  18.158  0.00  0.00    +0.099 C 
BRANCH  13  15
ATOM      2  O   UNL     1      -8.988 -10.520  18.917  0.00  0.00    -0.276 OA
ATOM      4  N   UNL     1      -8.202  -8.954  17.391  0.00  0.00    -0.311 N 
ATOM     15  C   UNL     1      -8.089 -10.060  18.219  0.00  0.00    +0.214 C 
ATOM     29  H   UNL     1      -7.399  -8.663  16.838  0.00  0.00    +0.149 HD
BRANCH   4  19
ATOM     19  C   UNL     1      -9.423  -8.195  17.250  0.00  0.00    +0.141 C 
BRANCH  19  22
ATOM      6  N   UNL     1      -9.986  -9.383  13.704  0.00  0.00    -0.263 NA
ATOM     22  C   UNL     1     -10.097  -8.454  15.933  0.00  0.00    -0.012 A 
ATOM     24  C   UNL     1     -11.401  -8.031  15.700  0.00  0.00    +0.008 A 
ATOM     25  C   UNL     1      -9.439  -9.120  14.912  0.00  0.00    +0.115 A 
ATOM     26  C   UNL     1     -11.999  -8.283  14.470  0.00  0.00    +0.020 A 
ATOM     27  C   UNL     1     -11.254  -8.957  13.514  0.00  0.00    +0.111 A 
ENDBRANCH  19  22
ENDBRANCH   4  19
ENDBRANCH  13  15
ENDBRANCH   7  13
TORSDOF 9
ENDMDL
