REMARK  Name = 11911786
REMARK  7 active torsions:
REMARK  status: ('A' for Active; 'I' for Inactive)
REMARK    1  A    between atoms: N_4  and  C_11
REMARK    2  A    between atoms: N_5  and  C_12
REMARK    3  A    between atoms: N_8  and  C_30
REMARK    4  A    between atoms: N_8  and  C_31
REMARK    5  A    between atoms: N_8  and  C_32
REMARK    6  A    between atoms: C_15  and  C_21
REMARK    7  A    between atoms: C_22  and  C_24
REMARK                            x       y       z     vdW  Elec       q    Type
REMARK                         _______ _______ _______ _____ _____    ______ ____
ROOT
ATOM      1  O   UNL     1       1.003   3.526  -1.007  0.00  0.00    -0.370 OA
ATOM      2  O   UNL     1       0.881   1.558   1.412  0.00  0.00    -0.370 OA
ATOM      9  C   UNL     1       1.186   1.386   0.017  0.00  0.00    +0.171 C 
ATOM     10  C   UNL     1       0.272   2.313  -0.760  0.00  0.00    +0.171 C 
ATOM     11  C   UNL     1       2.575   1.898  -0.283  0.00  0.00    +0.130 C 
ATOM     12  C   UNL     1      -0.877   2.575   0.186  0.00  0.00    +0.130 C 
ATOM     13  C   UNL     1       2.341   3.380  -0.508  0.00  0.00    +0.185 C 
ATOM     14  C   UNL     1      -0.207   2.484   1.545  0.00  0.00    +0.185 C 
ENDROOT
BRANCH  11   4
ATOM      4  N   UNL     1       3.079   1.282  -1.490  0.00  0.00    -0.306 N 
ATOM      6  N   UNL     1       3.865  -0.602  -0.333  0.00  0.00    -0.219 NA
ATOM      7  N   UNL     1       4.138  -0.414  -2.720  0.00  0.00    -0.223 NA
ATOM     20  C   UNL     1       3.713   0.052  -1.515  0.00  0.00    +0.216 A 
ATOM     21  C   UNL     1       4.486  -1.798  -0.393  0.00  0.00    +0.049 A 
ATOM     23  C   UNL     1       4.955  -2.360  -1.563  0.00  0.00    +0.043 A 
ATOM     25  C   UNL     1       4.751  -1.616  -2.707  0.00  0.00    +0.116 A 
ATOM     33  H   UNL     1       2.924   1.736  -2.384  0.00  0.00    +0.149 HD
BRANCH  21  15
ATOM     15  C   UNL     1       4.665  -2.542   0.918  0.00  0.00    +0.038 C 
ATOM     16  C   UNL     1       3.636  -2.263   2.023  0.00  0.00    +0.010 C 
ATOM     17  C   UNL     1       5.989  -2.185   1.603  0.00  0.00    +0.010 C 
ATOM     18  C   UNL     1       4.220  -1.141   2.887  0.00  0.00    +0.001 C 
ATOM     19  C   UNL     1       5.662  -0.948   2.429  0.00  0.00    +0.001 C 
ENDBRANCH  21  15
ENDBRANCH  11   4
BRANCH  12   5
ATOM      3  O   UNL     1      -3.663   2.886   0.810  0.00  0.00    -0.270 OA
ATOM      5  N   UNL     1      -1.909   1.577   0.043  0.00  0.00    -0.304 N 
ATOM     22  C   UNL     1      -3.235   1.822   0.373  0.00  0.00    +0.244 C 
ATOM     34  H   UNL     1      -1.609   0.639  -0.203  0.00  0.00    +0.149 HD
BRANCH  22  24
ATOM     24  C   UNL     1      -4.170   0.682   0.194  0.00  0.00    +0.037 A 
ATOM     26  C   UNL     1      -5.306   0.623   0.975  0.00  0.00    +0.015 A 
ATOM     27  C   UNL     1      -3.875  -0.281  -0.749  0.00  0.00    +0.015 A 
ATOM     28  C   UNL     1      -6.185  -0.447   0.806  0.00  0.00    +0.024 A 
ATOM     29  C   UNL     1      -4.754  -1.350  -0.918  0.00  0.00    +0.024 A 
ATOM     30  C   UNL     1      -5.909  -1.433  -0.141  0.00  0.00    +0.029 A 
BRANCH  30   8
ATOM      8  N   UNL     1      -6.799  -2.514  -0.313  0.00  0.00    -0.336 N 
ATOM     31  C   UNL     1      -6.309  -3.804  -0.757  0.00  0.00    +0.129 C 
ATOM     32  C   UNL     1      -8.216  -2.345  -0.062  0.00  0.00    +0.129 C 
ENDBRANCH  30   8
ENDBRANCH  22  24
ENDBRANCH  12   5
TORSDOF 5
