MODEL 1
REMARK VINA RESULT:      -7.0      0.000      0.000
REMARK  Name = 75367643
REMARK  7 active torsions:
REMARK  status: ('A' for Active; 'I' for Inactive)
REMARK    1  A    between atoms: O_5  and  C_10
REMARK    2  A    between atoms: O_5  and  C_18
REMARK    3  A    between atoms: O_7  and  C_24
REMARK    4  A    between atoms: O_7  and  C_29
REMARK    5  A    between atoms: C_15  and  C_16
REMARK    6  A    between atoms: C_16  and  C_17
REMARK    7  A    between atoms: C_26  and  C_28
REMARK                            x       y       z     vdW  Elec       q    Type
REMARK                         _______ _______ _______ _____ _____    ______ ____
ROOT
ATOM      4  O   UNL     1     -18.860   2.680  24.697  0.00  0.00    -0.375 OA
ATOM      6  O   UNL     1     -16.107   4.798  21.226  0.00  0.00    -0.275 OA
ATOM      8  N   UNL     1     -16.331   4.075  23.431  0.00  0.00    -0.295 N 
ATOM     10  C   UNL     1     -16.867   3.479  25.861  0.00  0.00    +0.218 C 
ATOM     11  C   UNL     1     -16.055   4.298  24.854  0.00  0.00    +0.154 C 
ATOM     12  C   UNL     1     -17.071   2.872  23.041  0.00  0.00    +0.136 C 
ATOM     13  C   UNL     1     -18.375   3.608  25.660  0.00  0.00    +0.206 C 
ATOM     14  C   UNL     1     -18.557   3.012  23.346  0.00  0.00    +0.179 C 
ATOM     15  C   UNL     1     -15.903   4.960  22.432  0.00  0.00    +0.220 C 
ENDROOT
BRANCH  10   5
ATOM      5  O   UNL     1     -16.559   3.965  27.169  0.00  0.00    -0.469 OA
BRANCH   5  18
ATOM      9  N   UNL     1     -16.606   1.772  27.919  0.00  0.00    -0.221 NA
ATOM     18  C   UNL     1     -16.154   3.035  28.085  0.00  0.00    +0.215 A 
ATOM     21  C   UNL     1     -15.318   3.429  29.118  0.00  0.00    +0.068 A 
ATOM     25  C   UNL     1     -14.920   2.465  30.037  0.00  0.00    +0.019 A 
ATOM     26  C   UNL     1     -15.364   1.155  29.899  0.00  0.00    +0.073 A 
ATOM     27  C   UNL     1     -16.198   0.863  28.832  0.00  0.00    +0.127 A 
BRANCH  26  28
ATOM      1  F   UNL     1     -13.762  -0.493  30.563  0.00  0.00    -0.166 F 
ATOM      2  F   UNL     1     -15.848  -0.930  30.966  0.00  0.00    -0.166 F 
ATOM      3  F   UNL     1     -14.811   0.578  32.138  0.00  0.00    -0.166 F 
ATOM     28  C   UNL     1     -14.956   0.101  30.866  0.00  0.00    +0.419 C 
ENDBRANCH  26  28
ENDBRANCH   5  18
ENDBRANCH  10   5
BRANCH  15  16
ATOM     16  C   UNL     1     -15.154   6.186  22.894  0.00  0.00    +0.131 C 
BRANCH  16  17
ATOM     17  C   UNL     1     -14.126   6.586  21.885  0.00  0.00    -0.038 A 
ATOM     19  C   UNL     1     -12.907   5.912  21.825  0.00  0.00    +0.007 A 
ATOM     20  C   UNL     1     -14.388   7.635  21.002  0.00  0.00    +0.007 A 
ATOM     22  C   UNL     1     -11.948   6.286  20.882  0.00  0.00    +0.046 A 
ATOM     23  C   UNL     1     -13.429   8.009  20.060  0.00  0.00    +0.046 A 
ATOM     24  C   UNL     1     -12.210   7.333  20.000  0.00  0.00    +0.120 A 
BRANCH  24   7
ATOM      7  O   UNL     1     -11.275   7.697  19.080  0.00  0.00    -0.495 OA
ATOM     29  C   UNL     1     -11.710   8.534  18.009  0.00  0.00    +0.277 C 
ENDBRANCH  24   7
ENDBRANCH  16  17
ENDBRANCH  15  16
TORSDOF 6
ENDMDL
MODEL 2
REMARK VINA RESULT:      -6.9     32.116     35.404
REMARK  Name = 75367643
REMARK  7 active torsions:
REMARK  status: ('A' for Active; 'I' for Inactive)
REMARK    1  A    between atoms: O_5  and  C_10
REMARK    2  A    between atoms: O_5  and  C_18
REMARK    3  A    between atoms: O_7  and  C_24
REMARK    4  A    between atoms: O_7  and  C_29
REMARK    5  A    between atoms: C_15  and  C_16
REMARK    6  A    between atoms: C_16  and  C_17
REMARK    7  A    between atoms: C_26  and  C_28
REMARK                            x       y       z     vdW  Elec       q    Type
REMARK                         _______ _______ _______ _____ _____    ______ ____
ROOT
ATOM      4  O   UNL     1      21.988   7.956  21.352  0.00  0.00    -0.375 OA
ATOM      6  O   UNL     1      17.139   8.594  20.920  0.00  0.00    -0.275 OA
ATOM      8  N   UNL     1      18.949   7.141  21.133  0.00  0.00    -0.295 N 
ATOM     10  C   UNL     1      21.069   5.709  21.085  0.00  0.00    +0.218 C 
ATOM     11  C   UNL     1      19.578   5.866  20.775  0.00  0.00    +0.154 C 
ATOM     12  C   UNL     1      19.650   8.031  22.064  0.00  0.00    +0.136 C 
ATOM     13  C   UNL     1      21.924   6.826  20.492  0.00  0.00    +0.206 C 
ATOM     14  C   UNL     1      20.805   8.749  21.380  0.00  0.00    +0.179 C 
ATOM     15  C   UNL     1      17.702   7.535  20.632  0.00  0.00    +0.220 C 
ENDROOT
BRANCH  10   5
ATOM      5  O   UNL     1      21.507   4.475  20.514  0.00  0.00    -0.469 OA
BRANCH   5  18
ATOM      9  N   UNL     1      21.912   3.701  22.662  0.00  0.00    -0.221 NA
ATOM     18  C   UNL     1      22.193   3.629  21.342  0.00  0.00    +0.215 A 
ATOM     21  C   UNL     1      23.123   2.761  20.793  0.00  0.00    +0.068 A 
ATOM     25  C   UNL     1      23.808   1.911  21.655  0.00  0.00    +0.019 A 
ATOM     26  C   UNL     1      23.546   1.955  23.019  0.00  0.00    +0.073 A 
ATOM     27  C   UNL     1      22.597   2.860  23.468  0.00  0.00    +0.127 A 
BRANCH  26  28
ATOM      1  F   UNL     1      23.436   0.216  24.659  0.00  0.00    -0.166 F 
ATOM      2  F   UNL     1      24.970   1.726  24.928  0.00  0.00    -0.166 F 
ATOM      3  F   UNL     1      25.169   0.249  23.345  0.00  0.00    -0.166 F 
ATOM     28  C   UNL     1      24.262   1.060  23.967  0.00  0.00    +0.419 C 
ENDBRANCH  26  28
ENDBRANCH   5  18
ENDBRANCH  10   5
BRANCH  15  16
ATOM     16  C   UNL     1      17.032   6.582  19.670  0.00  0.00    +0.131 C 
BRANCH  16  17
ATOM     17  C   UNL     1      15.564   6.855  19.597  0.00  0.00    -0.038 A 
ATOM     19  C   UNL     1      14.747   6.578  20.693  0.00  0.00    +0.007 A 
ATOM     20  C   UNL     1      15.011   7.387  18.432  0.00  0.00    +0.007 A 
ATOM     22  C   UNL     1      13.377   6.833  20.625  0.00  0.00    +0.046 A 
ATOM     23  C   UNL     1      13.641   7.641  18.363  0.00  0.00    +0.046 A 
ATOM     24  C   UNL     1      12.825   7.364  19.460  0.00  0.00    +0.120 A 
BRANCH  24   7
ATOM      7  O   UNL     1      11.488   7.614  19.393  0.00  0.00    -0.495 OA
ATOM     29  C   UNL     1      10.912   8.359  20.465  0.00  0.00    +0.277 C 
ENDBRANCH  24   7
ENDBRANCH  16  17
ENDBRANCH  15  16
TORSDOF 6
ENDMDL
MODEL 3
REMARK VINA RESULT:      -6.9     30.709     35.619
REMARK  Name = 75367643
REMARK  7 active torsions:
REMARK  status: ('A' for Active; 'I' for Inactive)
REMARK    1  A    between atoms: O_5  and  C_10
REMARK    2  A    between atoms: O_5  and  C_18
REMARK    3  A    between atoms: O_7  and  C_24
REMARK    4  A    between atoms: O_7  and  C_29
REMARK    5  A    between atoms: C_15  and  C_16
REMARK    6  A    between atoms: C_16  and  C_17
REMARK    7  A    between atoms: C_26  and  C_28
REMARK                            x       y       z     vdW  Elec       q    Type
REMARK                         _______ _______ _______ _____ _____    ______ ____
ROOT
ATOM      4  O   UNL     1       9.880   6.580   1.091  0.00  0.00    -0.375 OA
ATOM      6  O   UNL     1      12.827   2.980  -0.475  0.00  0.00    -0.275 OA
ATOM      8  N   UNL     1      11.993   4.248   1.293  0.00  0.00    -0.295 N 
ATOM     10  C   UNL     1      11.181   5.921   3.050  0.00  0.00    +0.218 C 
ATOM     11  C   UNL     1      12.236   4.919   2.574  0.00  0.00    +0.154 C 
ATOM     12  C   UNL     1      10.642   4.285   0.728  0.00  0.00    +0.136 C 
ATOM     13  C   UNL     1      10.873   7.002   2.017  0.00  0.00    +0.206 C 
ATOM     14  C   UNL     1      10.334   5.646   0.117  0.00  0.00    +0.179 C 
ATOM     15  C   UNL     1      12.999   3.564   0.597  0.00  0.00    +0.220 C 
ENDROOT
BRANCH  10   5
ATOM      5  O   UNL     1      11.689   6.568   4.219  0.00  0.00    -0.469 OA
BRANCH   5  18
ATOM      9  N   UNL     1      11.789   6.583   6.536  0.00  0.00    -0.221 NA
ATOM     18  C   UNL     1      11.153   6.175   5.415  0.00  0.00    +0.215 A 
ATOM     21  C   UNL     1      10.009   5.393   5.413  0.00  0.00    +0.068 A 
ATOM     25  C   UNL     1       9.483   5.007   6.641  0.00  0.00    +0.019 A 
ATOM     26  C   UNL     1      10.109   5.406   7.816  0.00  0.00    +0.073 A 
ATOM     27  C   UNL     1      11.250   6.187   7.710  0.00  0.00    +0.127 A 
BRANCH  26  28
ATOM      1  F   UNL     1      10.478   5.127  10.163  0.00  0.00    -0.166 F 
ATOM      2  F   UNL     1       9.146   3.711   9.202  0.00  0.00    -0.166 F 
ATOM      3  F   UNL     1       8.497   5.760   9.527  0.00  0.00    -0.166 F 
ATOM     28  C   UNL     1       9.573   5.009   9.145  0.00  0.00    +0.419 C 
ENDBRANCH  26  28
ENDBRANCH   5  18
ENDBRANCH  10   5
BRANCH  15  16
ATOM     16  C   UNL     1      14.373   3.567   1.223  0.00  0.00    +0.131 C 
BRANCH  16  17
ATOM     17  C   UNL     1      15.291   4.476   0.471  0.00  0.00    -0.038 A 
ATOM     19  C   UNL     1      15.331   5.836   0.776  0.00  0.00    +0.007 A 
ATOM     20  C   UNL     1      16.108   3.963  -0.537  0.00  0.00    +0.007 A 
ATOM     22  C   UNL     1      16.189   6.684   0.074  0.00  0.00    +0.046 A 
ATOM     23  C   UNL     1      16.964   4.811  -1.240  0.00  0.00    +0.046 A 
ATOM     24  C   UNL     1      17.005   6.171  -0.934  0.00  0.00    +0.120 A 
BRANCH  24   7
ATOM      7  O   UNL     1      17.842   6.997  -1.618  0.00  0.00    -0.495 OA
ATOM     29  C   UNL     1      19.192   7.077  -1.163  0.00  0.00    +0.277 C 
ENDBRANCH  24   7
ENDBRANCH  16  17
ENDBRANCH  15  16
TORSDOF 6
ENDMDL
MODEL 4
REMARK VINA RESULT:      -6.8      7.865     10.752
REMARK  Name = 75367643
REMARK  7 active torsions:
REMARK  status: ('A' for Active; 'I' for Inactive)
REMARK    1  A    between atoms: O_5  and  C_10
REMARK    2  A    between atoms: O_5  and  C_18
REMARK    3  A    between atoms: O_7  and  C_24
REMARK    4  A    between atoms: O_7  and  C_29
REMARK    5  A    between atoms: C_15  and  C_16
REMARK    6  A    between atoms: C_16  and  C_17
REMARK    7  A    between atoms: C_26  and  C_28
REMARK                            x       y       z     vdW  Elec       q    Type
REMARK                         _______ _______ _______ _____ _____    ______ ____
ROOT
ATOM      4  O   UNL     1     -16.672   6.840  33.938  0.00  0.00    -0.375 OA
ATOM      6  O   UNL     1     -14.746   2.325  33.819  0.00  0.00    -0.275 OA
ATOM      8  N   UNL     1     -14.462   4.623  33.551  0.00  0.00    -0.295 N 
ATOM     10  C   UNL     1     -14.421   7.129  33.034  0.00  0.00    +0.218 C 
ATOM     11  C   UNL     1     -13.840   5.729  32.817  0.00  0.00    +0.154 C 
ATOM     12  C   UNL     1     -15.330   4.939  34.689  0.00  0.00    +0.136 C 
ATOM     13  C   UNL     1     -15.925   7.198  32.782  0.00  0.00    +0.206 C 
ATOM     14  C   UNL     1     -16.689   5.445  34.225  0.00  0.00    +0.179 C 
ATOM     15  C   UNL     1     -14.248   3.280  33.216  0.00  0.00    +0.220 C 
ENDROOT
BRANCH  10   5
ATOM      5  O   UNL     1     -13.783   8.015  32.113  0.00  0.00    -0.469 OA
BRANCH   5  18
ATOM      9  N   UNL     1     -12.587   8.990  33.843  0.00  0.00    -0.221 NA
ATOM     18  C   UNL     1     -12.636   8.621  32.544  0.00  0.00    +0.215 A 
ATOM     21  C   UNL     1     -11.602   8.820  31.642  0.00  0.00    +0.068 A 
ATOM     25  C   UNL     1     -10.446   9.438  32.104  0.00  0.00    +0.019 A 
ATOM     26  C   UNL     1     -10.358   9.833  33.434  0.00  0.00    +0.073 A 
ATOM     27  C   UNL     1     -11.448   9.589  34.255  0.00  0.00    +0.127 A 
BRANCH  26  28
ATOM      1  F   UNL     1      -8.285   9.648  34.614  0.00  0.00    -0.166 F 
ATOM      2  F   UNL     1      -9.392  11.498  34.853  0.00  0.00    -0.166 F 
ATOM      3  F   UNL     1      -8.383  11.074  32.975  0.00  0.00    -0.166 F 
ATOM     28  C   UNL     1      -9.135  10.497  33.959  0.00  0.00    +0.419 C 
ENDBRANCH  26  28
ENDBRANCH   5  18
ENDBRANCH  10   5
BRANCH  15  16
ATOM     16  C   UNL     1     -13.353   3.016  32.029  0.00  0.00    +0.131 C 
BRANCH  16  17
ATOM     17  C   UNL     1     -14.124   2.374  30.921  0.00  0.00    -0.038 A 
ATOM     19  C   UNL     1     -14.966   3.144  30.120  0.00  0.00    +0.007 A 
ATOM     20  C   UNL     1     -14.000   1.004  30.689  0.00  0.00    +0.007 A 
ATOM     22  C   UNL     1     -15.685   2.544  29.085  0.00  0.00    +0.046 A 
ATOM     23  C   UNL     1     -14.720   0.404  29.656  0.00  0.00    +0.046 A 
ATOM     24  C   UNL     1     -15.561   1.174  28.853  0.00  0.00    +0.120 A 
BRANCH  24   7
ATOM      7  O   UNL     1     -16.262   0.589  27.844  0.00  0.00    -0.495 OA
ATOM     29  C   UNL     1     -17.616   1.004  27.668  0.00  0.00    +0.277 C 
ENDBRANCH  24   7
ENDBRANCH  16  17
ENDBRANCH  15  16
TORSDOF 6
ENDMDL
MODEL 5
REMARK VINA RESULT:      -6.7     29.841     33.773
REMARK  Name = 75367643
REMARK  7 active torsions:
REMARK  status: ('A' for Active; 'I' for Inactive)
REMARK    1  A    between atoms: O_5  and  C_10
REMARK    2  A    between atoms: O_5  and  C_18
REMARK    3  A    between atoms: O_7  and  C_24
REMARK    4  A    between atoms: O_7  and  C_29
REMARK    5  A    between atoms: C_15  and  C_16
REMARK    6  A    between atoms: C_16  and  C_17
REMARK    7  A    between atoms: C_26  and  C_28
REMARK                            x       y       z     vdW  Elec       q    Type
REMARK                         _______ _______ _______ _____ _____    ______ ____
ROOT
ATOM      4  O   UNL     1       9.956  10.109   2.802  0.00  0.00    -0.375 OA
ATOM      6  O   UNL     1       9.837   5.560   0.958  0.00  0.00    -0.275 OA
ATOM      8  N   UNL     1       9.853   6.958   2.824  0.00  0.00    -0.295 N 
ATOM     10  C   UNL     1      10.162   8.631   4.735  0.00  0.00    +0.218 C 
ATOM     11  C   UNL     1      10.302   7.204   4.198  0.00  0.00    +0.154 C 
ATOM     12  C   UNL     1       8.989   7.951   2.181  0.00  0.00    +0.136 C 
ATOM     13  C   UNL     1      10.825   9.675   3.840  0.00  0.00    +0.206 C 
ATOM     14  C   UNL     1       9.782   9.174   1.742  0.00  0.00    +0.179 C 
ATOM     15  C   UNL     1      10.206   5.805   2.109  0.00  0.00    +0.220 C 
ENDROOT
BRANCH  10   5
ATOM      5  O   UNL     1      10.801   8.682   6.012  0.00  0.00    -0.469 OA
BRANCH   5  18
ATOM      9  N   UNL     1       9.214   7.797   7.452  0.00  0.00    -0.221 NA
ATOM     18  C   UNL     1      10.450   7.712   6.910  0.00  0.00    +0.215 A 
ATOM     21  C   UNL     1      11.362   6.713   7.210  0.00  0.00    +0.068 A 
ATOM     25  C   UNL     1      10.981   5.739   8.126  0.00  0.00    +0.019 A 
ATOM     26  C   UNL     1       9.719   5.792   8.705  0.00  0.00    +0.073 A 
ATOM     27  C   UNL     1       8.880   6.833   8.338  0.00  0.00    +0.127 A 
BRANCH  26  28
ATOM      1  F   UNL     1       9.036   3.539   9.133  0.00  0.00    -0.166 F 
ATOM      2  F   UNL     1       8.130   5.089  10.350  0.00  0.00    -0.166 F 
ATOM      3  F   UNL     1      10.210   4.540  10.666  0.00  0.00    -0.166 F 
ATOM     28  C   UNL     1       9.282   4.765   9.689  0.00  0.00    +0.419 C 
ENDBRANCH  26  28
ENDBRANCH   5  18
ENDBRANCH  10   5
BRANCH  15  16
ATOM     16  C   UNL     1      11.106   4.822   2.820  0.00  0.00    +0.131 C 
BRANCH  16  17
ATOM     17  C   UNL     1      12.442   4.756   2.153  0.00  0.00    -0.038 A 
ATOM     19  C   UNL     1      13.225   5.905   2.044  0.00  0.00    +0.007 A 
ATOM     20  C   UNL     1      12.907   3.544   1.640  0.00  0.00    +0.007 A 
ATOM     22  C   UNL     1      14.473   5.843   1.422  0.00  0.00    +0.046 A 
ATOM     23  C   UNL     1      14.153   3.483   1.018  0.00  0.00    +0.046 A 
ATOM     24  C   UNL     1      14.937   4.632   0.909  0.00  0.00    +0.120 A 
BRANCH  24   7
ATOM      7  O   UNL     1      16.154   4.571   0.303  0.00  0.00    -0.495 OA
ATOM     29  C   UNL     1      16.175   4.209  -1.077  0.00  0.00    +0.277 C 
ENDBRANCH  24   7
ENDBRANCH  16  17
ENDBRANCH  15  16
TORSDOF 6
ENDMDL
MODEL 6
REMARK VINA RESULT:      -6.7     19.538     21.979
REMARK  Name = 75367643
REMARK  7 active torsions:
REMARK  status: ('A' for Active; 'I' for Inactive)
REMARK    1  A    between atoms: O_5  and  C_10
REMARK    2  A    between atoms: O_5  and  C_18
REMARK    3  A    between atoms: O_7  and  C_24
REMARK    4  A    between atoms: O_7  and  C_29
REMARK    5  A    between atoms: C_15  and  C_16
REMARK    6  A    between atoms: C_16  and  C_17
REMARK    7  A    between atoms: C_26  and  C_28
REMARK                            x       y       z     vdW  Elec       q    Type
REMARK                         _______ _______ _______ _____ _____    ______ ____
ROOT
ATOM      4  O   UNL     1      -9.113  -8.551   5.826  0.00  0.00    -0.375 OA
ATOM      6  O   UNL     1      -5.485 -10.956   8.096  0.00  0.00    -0.275 OA
ATOM      8  N   UNL     1      -7.021  -9.203   8.094  0.00  0.00    -0.295 N 
ATOM     10  C   UNL     1      -8.570  -7.191   7.780  0.00  0.00    +0.218 C 
ATOM     11  C   UNL     1      -7.328  -7.810   8.428  0.00  0.00    +0.154 C 
ATOM     12  C   UNL     1      -8.068 -10.022   7.476  0.00  0.00    +0.136 C 
ATOM     13  C   UNL     1      -8.572  -7.309   6.259  0.00  0.00    +0.206 C 
ATOM     14  C   UNL     1      -8.251  -9.670   6.005  0.00  0.00    +0.179 C 
ATOM     15  C   UNL     1      -5.773  -9.785   8.354  0.00  0.00    +0.220 C 
ENDROOT
BRANCH  10   5
ATOM      5  O   UNL     1      -8.588  -5.801   8.109  0.00  0.00    -0.469 OA
BRANCH   5  18
ATOM      9  N   UNL     1     -10.528  -6.264   9.291  0.00  0.00    -0.221 NA
ATOM     18  C   UNL     1      -9.706  -5.339   8.747  0.00  0.00    +0.215 A 
ATOM     21  C   UNL     1      -9.933  -3.973   8.800  0.00  0.00    +0.068 A 
ATOM     25  C   UNL     1     -11.077  -3.528   9.453  0.00  0.00    +0.019 A 
ATOM     26  C   UNL     1     -11.947  -4.449  10.025  0.00  0.00    +0.073 A 
ATOM     27  C   UNL     1     -11.630  -5.794   9.916  0.00  0.00    +0.127 A 
BRANCH  26  28
ATOM      1  F   UNL     1     -12.934  -3.279  11.863  0.00  0.00    -0.166 F 
ATOM      2  F   UNL     1     -13.982  -5.034  11.137  0.00  0.00    -0.166 F 
ATOM      3  F   UNL     1     -13.975  -3.210   9.955  0.00  0.00    -0.166 F 
ATOM     28  C   UNL     1     -13.179  -4.006  10.730  0.00  0.00    +0.419 C 
ENDBRANCH  26  28
ENDBRANCH   5  18
ENDBRANCH  10   5
BRANCH  15  16
ATOM     16  C   UNL     1      -4.732  -8.891   8.983  0.00  0.00    +0.131 C 
BRANCH  16  17
ATOM     17  C   UNL     1      -4.302  -9.435  10.307  0.00  0.00    -0.038 A 
ATOM     19  C   UNL     1      -5.241  -9.633  11.319  0.00  0.00    +0.007 A 
ATOM     20  C   UNL     1      -2.960  -9.746  10.530  0.00  0.00    +0.007 A 
ATOM     22  C   UNL     1      -4.839 -10.142  12.554  0.00  0.00    +0.046 A 
ATOM     23  C   UNL     1      -2.558 -10.254  11.766  0.00  0.00    +0.046 A 
ATOM     24  C   UNL     1      -3.498 -10.452  12.777  0.00  0.00    +0.120 A 
BRANCH  24   7
ATOM      7  O   UNL     1      -3.106 -10.949  13.982  0.00  0.00    -0.495 OA
ATOM     29  C   UNL     1      -1.840 -10.520  14.481  0.00  0.00    +0.277 C 
ENDBRANCH  24   7
ENDBRANCH  16  17
ENDBRANCH  15  16
TORSDOF 6
ENDMDL
MODEL 7
REMARK VINA RESULT:      -6.6     30.247     32.763
REMARK  Name = 75367643
REMARK  7 active torsions:
REMARK  status: ('A' for Active; 'I' for Inactive)
REMARK    1  A    between atoms: O_5  and  C_10
REMARK    2  A    between atoms: O_5  and  C_18
REMARK    3  A    between atoms: O_7  and  C_24
REMARK    4  A    between atoms: O_7  and  C_29
REMARK    5  A    between atoms: C_15  and  C_16
REMARK    6  A    between atoms: C_16  and  C_17
REMARK    7  A    between atoms: C_26  and  C_28
REMARK                            x       y       z     vdW  Elec       q    Type
REMARK                         _______ _______ _______ _____ _____    ______ ____
ROOT
ATOM      4  O   UNL     1      14.511   7.830  22.397  0.00  0.00    -0.375 OA
ATOM      6  O   UNL     1      12.123   7.323  18.138  0.00  0.00    -0.275 OA
ATOM      8  N   UNL     1      14.130   7.253  19.320  0.00  0.00    -0.295 N 
ATOM     10  C   UNL     1      16.257   7.504  20.720  0.00  0.00    +0.218 C 
ATOM     11  C   UNL     1      15.573   7.511  19.351  0.00  0.00    +0.154 C 
ATOM     12  C   UNL     1      13.499   6.661  20.503  0.00  0.00    +0.136 C 
ATOM     13  C   UNL     1      15.600   8.449  21.723  0.00  0.00    +0.206 C 
ATOM     14  C   UNL     1      13.330   7.688  21.614  0.00  0.00    +0.179 C 
ATOM     15  C   UNL     1      13.336   7.538  18.202  0.00  0.00    +0.220 C 
ENDROOT
BRANCH  10   5
ATOM      5  O   UNL     1      17.607   7.933  20.537  0.00  0.00    -0.469 OA
BRANCH   5  18
ATOM      9  N   UNL     1      18.583   5.923  19.918  0.00  0.00    -0.221 NA
ATOM     18  C   UNL     1      18.579   6.993  20.743  0.00  0.00    +0.215 A 
ATOM     21  C   UNL     1      19.492   7.185  21.769  0.00  0.00    +0.068 A 
ATOM     25  C   UNL     1      20.470   6.216  21.959  0.00  0.00    +0.019 A 
ATOM     26  C   UNL     1      20.507   5.101  21.130  0.00  0.00    +0.073 A 
ATOM     27  C   UNL     1      19.549   5.002  20.134  0.00  0.00    +0.127 A 
BRANCH  26  28
ATOM      1  F   UNL     1      22.752   4.364  20.758  0.00  0.00    -0.166 F 
ATOM      2  F   UNL     1      21.205   2.844  20.749  0.00  0.00    -0.166 F 
ATOM      3  F   UNL     1      21.799   3.775  22.622  0.00  0.00    -0.166 F 
ATOM     28  C   UNL     1      21.541   4.046  21.308  0.00  0.00    +0.419 C 
ENDBRANCH  26  28
ENDBRANCH   5  18
ENDBRANCH  10   5
BRANCH  15  16
ATOM     16  C   UNL     1      14.038   8.156  17.017  0.00  0.00    +0.131 C 
BRANCH  16  17
ATOM     17  C   UNL     1      14.026   9.647  17.117  0.00  0.00    -0.038 A 
ATOM     19  C   UNL     1      14.478  10.423  16.049  0.00  0.00    +0.007 A 
ATOM     20  C   UNL     1      13.561  10.264  18.279  0.00  0.00    +0.007 A 
ATOM     22  C   UNL     1      14.465  11.815  16.143  0.00  0.00    +0.046 A 
ATOM     23  C   UNL     1      13.550  11.655  18.373  0.00  0.00    +0.046 A 
ATOM     24  C   UNL     1      14.001  12.430  17.305  0.00  0.00    +0.120 A 
BRANCH  24   7
ATOM      7  O   UNL     1      13.988  13.788  17.396  0.00  0.00    -0.495 OA
ATOM     29  C   UNL     1      14.964  14.500  16.637  0.00  0.00    +0.277 C 
ENDBRANCH  24   7
ENDBRANCH  16  17
ENDBRANCH  15  16
TORSDOF 6
ENDMDL
MODEL 8
REMARK VINA RESULT:      -6.6     18.234     19.775
REMARK  Name = 75367643
REMARK  7 active torsions:
REMARK  status: ('A' for Active; 'I' for Inactive)
REMARK    1  A    between atoms: O_5  and  C_10
REMARK    2  A    between atoms: O_5  and  C_18
REMARK    3  A    between atoms: O_7  and  C_24
REMARK    4  A    between atoms: O_7  and  C_29
REMARK    5  A    between atoms: C_15  and  C_16
REMARK    6  A    between atoms: C_16  and  C_17
REMARK    7  A    between atoms: C_26  and  C_28
REMARK                            x       y       z     vdW  Elec       q    Type
REMARK                         _______ _______ _______ _____ _____    ______ ____
ROOT
ATOM      4  O   UNL     1      -6.707 -12.240  19.225  0.00  0.00    -0.375 OA
ATOM      6  O   UNL     1     -10.869  -9.860  18.172  0.00  0.00    -0.275 OA
ATOM      8  N   UNL     1      -8.632 -10.283  17.674  0.00  0.00    -0.295 N 
ATOM     10  C   UNL     1      -6.110 -10.659  17.462  0.00  0.00    +0.218 C 
ATOM     11  C   UNL     1      -7.335  -9.774  17.218  0.00  0.00    +0.154 C 
ATOM     12  C   UNL     1      -8.752 -11.708  17.995  0.00  0.00    +0.136 C 
ATOM     13  C   UNL     1      -5.953 -11.073  18.922  0.00  0.00    +0.206 C 
ATOM     14  C   UNL     1      -8.110 -12.029  19.338  0.00  0.00    +0.179 C 
ATOM     15  C   UNL     1      -9.762  -9.463  17.802  0.00  0.00    +0.220 C 
ENDROOT
BRANCH  10   5
ATOM      5  O   UNL     1      -4.950  -9.911  17.093  0.00  0.00    -0.469 OA
BRANCH   5  18
ATOM      9  N   UNL     1      -4.829 -10.450  14.841  0.00  0.00    -0.221 NA
ATOM     18  C   UNL     1      -4.218 -10.398  16.046  0.00  0.00    +0.215 A 
ATOM     21  C   UNL     1      -2.912 -10.806  16.271  0.00  0.00    +0.068 A 
ATOM     25  C   UNL     1      -2.188 -11.298  15.191  0.00  0.00    +0.019 A 
ATOM     26  C   UNL     1      -2.783 -11.366  13.936  0.00  0.00    +0.073 A 
ATOM     27  C   UNL     1      -4.094 -10.934  13.816  0.00  0.00    +0.127 A 
BRANCH  26  28
ATOM      1  F   UNL     1      -1.078 -12.811  13.081  0.00  0.00    -0.166 F 
ATOM      2  F   UNL     1      -1.371 -10.922  12.056  0.00  0.00    -0.166 F 
ATOM      3  F   UNL     1      -2.845 -12.507  11.851  0.00  0.00    -0.166 F 
ATOM     28  C   UNL     1      -2.035 -11.888  12.761  0.00  0.00    +0.419 C 
ENDBRANCH  26  28
ENDBRANCH   5  18
ENDBRANCH  10   5
BRANCH  15  16
ATOM     16  C   UNL     1      -9.576  -8.003  17.467  0.00  0.00    +0.131 C 
BRANCH  16  17
ATOM     17  C   UNL     1     -10.503  -7.594  16.368  0.00  0.00    -0.038 A 
ATOM     19  C   UNL     1     -11.215  -6.398  16.464  0.00  0.00    +0.007 A 
ATOM     20  C   UNL     1     -10.655  -8.408  15.245  0.00  0.00    +0.007 A 
ATOM     22  C   UNL     1     -12.079  -6.017  15.437  0.00  0.00    +0.046 A 
ATOM     23  C   UNL     1     -11.521  -8.027  14.220  0.00  0.00    +0.046 A 
ATOM     24  C   UNL     1     -12.232  -6.831  14.316  0.00  0.00    +0.120 A 
BRANCH  24   7
ATOM      7  O   UNL     1     -13.075  -6.458  13.314  0.00  0.00    -0.495 OA
ATOM     29  C   UNL     1     -13.458  -5.085  13.266  0.00  0.00    +0.277 C 
ENDBRANCH  24   7
ENDBRANCH  16  17
ENDBRANCH  15  16
TORSDOF 6
ENDMDL
MODEL 9
REMARK VINA RESULT:      -6.4     28.203     30.608
REMARK  Name = 75367643
REMARK  7 active torsions:
REMARK  status: ('A' for Active; 'I' for Inactive)
REMARK    1  A    between atoms: O_5  and  C_10
REMARK    2  A    between atoms: O_5  and  C_18
REMARK    3  A    between atoms: O_7  and  C_24
REMARK    4  A    between atoms: O_7  and  C_29
REMARK    5  A    between atoms: C_15  and  C_16
REMARK    6  A    between atoms: C_16  and  C_17
REMARK    7  A    between atoms: C_26  and  C_28
REMARK                            x       y       z     vdW  Elec       q    Type
REMARK                         _______ _______ _______ _____ _____    ______ ____
ROOT
ATOM      4  O   UNL     1      14.488  11.223  16.314  0.00  0.00    -0.375 OA
ATOM      6  O   UNL     1      12.355   6.954  17.467  0.00  0.00    -0.275 OA
ATOM      8  N   UNL     1      12.897   9.140  18.067  0.00  0.00    -0.295 N 
ATOM     10  C   UNL     1      13.824  11.452  18.653  0.00  0.00    +0.218 C 
ATOM     11  C   UNL     1      13.307  10.085  19.110  0.00  0.00    +0.154 C 
ATOM     12  C   UNL     1      12.659   9.650  16.714  0.00  0.00    +0.136 C 
ATOM     13  C   UNL     1      14.967  11.354  17.646  0.00  0.00    +0.206 C 
ATOM     14  C   UNL     1      13.969   9.937  15.992  0.00  0.00    +0.179 C 
ATOM     15  C   UNL     1      12.710   7.774  18.317  0.00  0.00    +0.220 C 
ENDROOT
BRANCH  10   5
ATOM      5  O   UNL     1      14.315  12.142  19.804  0.00  0.00    -0.469 OA
BRANCH   5  18
ATOM      9  N   UNL     1      14.009  11.548  22.024  0.00  0.00    -0.221 NA
ATOM     18  C   UNL     1      13.512  12.130  20.911  0.00  0.00    +0.215 A 
ATOM     21  C   UNL     1      12.253  12.706  20.832  0.00  0.00    +0.068 A 
ATOM     25  C   UNL     1      11.455  12.681  21.971  0.00  0.00    +0.019 A 
ATOM     26  C   UNL     1      11.932  12.091  23.135  0.00  0.00    +0.073 A 
ATOM     27  C   UNL     1      13.205  11.543  23.110  0.00  0.00    +0.127 A 
BRANCH  26  28
ATOM      1  F   UNL     1      11.794  12.357  25.509  0.00  0.00    -0.166 F 
ATOM      2  F   UNL     1      10.543  10.826  24.616  0.00  0.00    -0.166 F 
ATOM      3  F   UNL     1      10.056  12.926  24.333  0.00  0.00    -0.166 F 
ATOM     28  C   UNL     1      11.103  12.049  24.370  0.00  0.00    +0.419 C 
ENDBRANCH  26  28
ENDBRANCH   5  18
ENDBRANCH  10   5
BRANCH  15  16
ATOM     16  C   UNL     1      12.979   7.305  19.727  0.00  0.00    +0.131 C 
BRANCH  16  17
ATOM     17  C   UNL     1      14.430   6.992  19.909  0.00  0.00    -0.038 A 
ATOM     19  C   UNL     1      15.017   7.111  21.169  0.00  0.00    +0.007 A 
ATOM     20  C   UNL     1      15.196   6.579  18.819  0.00  0.00    +0.007 A 
ATOM     22  C   UNL     1      16.371   6.817  21.338  0.00  0.00    +0.046 A 
ATOM     23  C   UNL     1      16.550   6.288  18.988  0.00  0.00    +0.046 A 
ATOM     24  C   UNL     1      17.136   6.406  20.248  0.00  0.00    +0.120 A 
BRANCH  24   7
ATOM      7  O   UNL     1      18.456   6.119  20.413  0.00  0.00    -0.495 OA
ATOM     29  C   UNL     1      19.162   6.860  21.408  0.00  0.00    +0.277 C 
ENDBRANCH  24   7
ENDBRANCH  16  17
ENDBRANCH  15  16
TORSDOF 6
ENDMDL
MODEL 10
REMARK VINA RESULT:      -6.4     17.958     19.292
REMARK  Name = 75367643
REMARK  7 active torsions:
REMARK  status: ('A' for Active; 'I' for Inactive)
REMARK    1  A    between atoms: O_5  and  C_10
REMARK    2  A    between atoms: O_5  and  C_18
REMARK    3  A    between atoms: O_7  and  C_24
REMARK    4  A    between atoms: O_7  and  C_29
REMARK    5  A    between atoms: C_15  and  C_16
REMARK    6  A    between atoms: C_16  and  C_17
REMARK    7  A    between atoms: C_26  and  C_28
REMARK                            x       y       z     vdW  Elec       q    Type
REMARK                         _______ _______ _______ _____ _____    ______ ____
ROOT
ATOM      4  O   UNL     1      -9.197 -12.040  16.242  0.00  0.00    -0.375 OA
ATOM      6  O   UNL     1      -4.688 -13.257  17.754  0.00  0.00    -0.275 OA
ATOM      8  N   UNL     1      -6.462 -11.746  17.783  0.00  0.00    -0.295 N 
ATOM     10  C   UNL     1      -8.384 -10.088  17.463  0.00  0.00    +0.218 C 
ATOM     11  C   UNL     1      -6.916 -10.352  17.809  0.00  0.00    +0.154 C 
ATOM     12  C   UNL     1      -7.468 -12.811  17.789  0.00  0.00    +0.136 C 
ATOM     13  C   UNL     1      -8.799 -10.681  16.119  0.00  0.00    +0.206 C 
ATOM     14  C   UNL     1      -8.126 -12.960  16.423  0.00  0.00    +0.179 C 
ATOM     15  C   UNL     1      -5.105 -12.097  17.765  0.00  0.00    +0.220 C 
ENDROOT
BRANCH  10   5
ATOM      5  O   UNL     1      -8.569  -8.673  17.391  0.00  0.00    -0.469 OA
BRANCH   5  18
ATOM      9  N   UNL     1      -9.790  -7.322  15.956  0.00  0.00    -0.221 NA
ATOM     18  C   UNL     1      -9.788  -8.238  16.950  0.00  0.00    +0.215 A 
ATOM     21  C   UNL     1     -10.935  -8.750  17.536  0.00  0.00    +0.068 A 
ATOM     25  C   UNL     1     -12.163  -8.292  17.070  0.00  0.00    +0.019 A 
ATOM     26  C   UNL     1     -12.206  -7.350  16.049  0.00  0.00    +0.073 A 
ATOM     27  C   UNL     1     -11.002  -6.901  15.531  0.00  0.00    +0.127 A 
BRANCH  26  28
ATOM      1  F   UNL     1     -14.455  -6.670  16.498  0.00  0.00    -0.166 F 
ATOM      2  F   UNL     1     -14.086  -7.658  14.603  0.00  0.00    -0.166 F 
ATOM      3  F   UNL     1     -13.387  -5.625  14.918  0.00  0.00    -0.166 F 
ATOM     28  C   UNL     1     -13.503  -6.841  15.530  0.00  0.00    +0.419 C 
ENDBRANCH  26  28
ENDBRANCH   5  18
ENDBRANCH  10   5
BRANCH  15  16
ATOM     16  C   UNL     1      -4.115 -10.957  17.750  0.00  0.00    +0.131 C 
BRANCH  16  17
ATOM     17  C   UNL     1      -3.492 -10.820  16.398  0.00  0.00    -0.038 A 
ATOM     19  C   UNL     1      -4.293 -10.815  15.257  0.00  0.00    +0.007 A 
ATOM     20  C   UNL     1      -2.107 -10.698  16.278  0.00  0.00    +0.007 A 
ATOM     22  C   UNL     1      -3.711 -10.687  13.995  0.00  0.00    +0.046 A 
ATOM     23  C   UNL     1      -1.525 -10.571  15.017  0.00  0.00    +0.046 A 
ATOM     24  C   UNL     1      -2.327 -10.565  13.876  0.00  0.00    +0.120 A 
BRANCH  24   7
ATOM      7  O   UNL     1      -1.759 -10.439  12.645  0.00  0.00    -0.495 OA
ATOM     29  C   UNL     1      -2.642 -10.291  11.535  0.00  0.00    +0.277 C 
ENDBRANCH  24   7
ENDBRANCH  16  17
ENDBRANCH  15  16
TORSDOF 6
ENDMDL
