REMARK  Name = 11941698
REMARK  5 active torsions:
REMARK  status: ('A' for Active; 'I' for Inactive)
REMARK    1  A    between atoms: O_3  and  C_18
REMARK    2  A    between atoms: O_3  and  C_25
REMARK    3  A    between atoms: C_15  and  C_18
REMARK    4  A    between atoms: C_16  and  C_19
REMARK    5  A    between atoms: C_20  and  C_23
REMARK                            x       y       z     vdW  Elec       q    Type
REMARK                         _______ _______ _______ _____ _____    ______ ____
ROOT
ATOM      1  O   UNL     1       2.439   1.278   1.669  0.00  0.00    -0.267 OA
ATOM      2  O   UNL     1      -2.892   1.047   2.018  0.00  0.00    -0.272 OA
ATOM      4  N   UNL     1      -2.243   2.381   0.230  0.00  0.00    -0.298 N 
ATOM      5  N   UNL     1       0.945   2.216   0.144  0.00  0.00    -0.311 N 
ATOM      6  C   UNL     1      -0.587   4.177   0.746  0.00  0.00    +0.027 C 
ATOM      7  C   UNL     1      -0.672   3.208  -1.513  0.00  0.00    +0.054 C 
ATOM      8  C   UNL     1      -0.506   4.514  -0.738  0.00  0.00    +0.018 C 
ATOM      9  C   UNL     1      -1.944   3.534   1.080  0.00  0.00    +0.113 C 
ATOM     10  C   UNL     1       0.590   3.264   1.111  0.00  0.00    +0.130 C 
ATOM     11  C   UNL     1      -2.057   2.602  -1.212  0.00  0.00    +0.117 C 
ATOM     12  C   UNL     1       0.414   2.214  -1.148  0.00  0.00    +0.027 A 
ATOM     13  C   UNL     1       0.844   1.319  -2.051  0.00  0.00    +0.022 A 
ATOM     14  C   UNL     1       1.923   1.286   0.550  0.00  0.00    +0.259 A 
ATOM     15  C   UNL     1      -2.744   1.212   0.805  0.00  0.00    +0.253 C 
ATOM     16  C   UNL     1       2.357   0.272  -0.473  0.00  0.00    +0.047 A 
ATOM     17  C   UNL     1       1.826   0.332  -1.703  0.00  0.00    +0.015 A 
ENDROOT
BRANCH  16  19
ATOM     19  C   UNL     1       3.339  -0.775  -0.141  0.00  0.00    -0.010 A 
ATOM     20  C   UNL     1       2.941  -2.012   0.370  0.00  0.00    -0.043 A 
ATOM     21  C   UNL     1       4.696  -0.514  -0.346  0.00  0.00    +0.009 A 
ATOM     22  C   UNL     1       3.894  -2.983   0.674  0.00  0.00    +0.004 A 
ATOM     23  C   UNL     1       1.498  -2.329   0.603  0.00  0.00    +0.044 C 
ATOM     24  C   UNL     1       5.649  -1.486  -0.041  0.00  0.00    +0.001 A 
ATOM     26  C   UNL     1       5.248  -2.720   0.469  0.00  0.00    +0.000 A 
ENDBRANCH  16  19
BRANCH  15  18
ATOM     18  C   UNL     1      -3.111   0.098  -0.141  0.00  0.00    +0.324 C 
BRANCH  18   3
ATOM      3  O   UNL     1      -3.552  -0.976   0.654  0.00  0.00    -0.483 OA
BRANCH   3  25
ATOM     25  C   UNL     1      -3.301  -2.249   0.193  0.00  0.00    +0.121 A 
ATOM     27  C   UNL     1      -3.237  -2.480  -1.173  0.00  0.00    +0.045 A 
ATOM     28  C   UNL     1      -3.116  -3.279   1.103  0.00  0.00    +0.045 A 
ATOM     29  C   UNL     1      -2.984  -3.769  -1.640  0.00  0.00    +0.004 A 
ATOM     30  C   UNL     1      -2.862  -4.569   0.637  0.00  0.00    +0.004 A 
ATOM     31  C   UNL     1      -2.796  -4.814  -0.735  0.00  0.00    +0.000 A 
ENDBRANCH   3  25
ENDBRANCH  18   3
ENDBRANCH  15  18
TORSDOF 4
