REMARK  Name = 11867546
REMARK  9 active torsions:
REMARK  status: ('A' for Active; 'I' for Inactive)
REMARK    1  A    between atoms: O_3  and  C_17
REMARK    2  A    between atoms: O_3  and  C_21
REMARK    3  A    between atoms: N_4  and  C_12
REMARK    4  A    between atoms: N_4  and  C_16
REMARK    5  A    between atoms: N_5  and  C_13
REMARK    6  A    between atoms: N_9  and  C_27
REMARK    7  A    between atoms: N_9  and  C_30
REMARK    8  A    between atoms: N_9  and  C_31
REMARK    9  A    between atoms: C_16  and  C_18
REMARK                            x       y       z     vdW  Elec       q    Type
REMARK                         _______ _______ _______ _____ _____    ______ ____
ROOT
ATOM      1  O   UNL     1      -0.827   3.607   1.627  0.00  0.00    -0.370 OA
ATOM      2  O   UNL     1      -0.646   1.899  -1.210  0.00  0.00    -0.370 OA
ATOM     10  C   UNL     1      -0.934   1.724   0.182  0.00  0.00    +0.168 C 
ATOM     11  C   UNL     1      -0.003   2.632   0.971  0.00  0.00    +0.175 C 
ATOM     12  C   UNL     1      -2.334   2.224   0.502  0.00  0.00    +0.111 C 
ATOM     13  C   UNL     1       0.889   3.300  -0.060  0.00  0.00    +0.171 C 
ATOM     14  C   UNL     1      -2.130   3.034   1.763  0.00  0.00    +0.181 C 
ATOM     15  C   UNL     1       0.136   3.090  -1.368  0.00  0.00    +0.190 C 
ENDROOT
BRANCH  13   5
ATOM      5  N   UNL     1       2.252   2.759  -0.077  0.00  0.00    -0.187 N 
ATOM      6  N   UNL     1       3.308   3.555   0.116  0.00  0.00    -0.041 NA
ATOM      7  N   UNL     1       3.966   1.450  -0.206  0.00  0.00    -0.071 NA
ATOM      8  N   UNL     1       4.358   2.747   0.036  0.00  0.00    -0.020 NA
ATOM     17  C   UNL     1       2.655   1.482  -0.272  0.00  0.00    +0.342 A 
BRANCH  17   3
ATOM      3  O   UNL     1       1.851   0.458  -0.491  0.00  0.00    -0.423 OA
BRANCH   3  21
ATOM     21  C   UNL     1       2.321  -0.833  -0.687  0.00  0.00    +0.134 A 
ATOM     25  C   UNL     1       2.482  -1.662   0.407  0.00  0.00    +0.069 A 
ATOM     26  C   UNL     1       2.612  -1.253  -1.971  0.00  0.00    +0.046 A 
ATOM     27  C   UNL     1       2.953  -2.960   0.209  0.00  0.00    +0.033 A 
ATOM     28  C   UNL     1       3.083  -2.551  -2.168  0.00  0.00    +0.005 A 
ATOM     29  C   UNL     1       3.253  -3.404  -1.078  0.00  0.00    +0.023 A 
BRANCH  27   9
ATOM      9  N   UNL     1       3.125  -3.823   1.311  0.00  0.00    -0.336 N 
ATOM     30  C   UNL     1       2.291  -3.685   2.489  0.00  0.00    +0.129 C 
ATOM     31  C   UNL     1       4.147  -4.850   1.287  0.00  0.00    +0.129 C 
ENDBRANCH  27   9
ENDBRANCH   3  21
ENDBRANCH  17   3
ENDBRANCH  13   5
BRANCH  12   4
ATOM      4  N   UNL     1      -3.285   1.163   0.681  0.00  0.00    -0.305 NA
ATOM     32  H   UNL     1      -4.183   1.552   0.966  0.00  0.00    +0.123 HD
BRANCH   4  16
ATOM     16  C   UNL     1      -3.445   0.402  -0.548  0.00  0.00    +0.116 C 
BRANCH  16  18
ATOM     18  C   UNL     1      -4.436  -0.720  -0.388  0.00  0.00    -0.034 A 
ATOM     19  C   UNL     1      -3.994  -1.968   0.026  0.00  0.00    +0.005 A 
ATOM     20  C   UNL     1      -5.779  -0.490  -0.655  0.00  0.00    +0.005 A 
ATOM     22  C   UNL     1      -4.911  -3.008   0.175  0.00  0.00    +0.000 A 
ATOM     23  C   UNL     1      -6.696  -1.530  -0.507  0.00  0.00    +0.000 A 
ATOM     24  C   UNL     1      -6.263  -2.789  -0.092  0.00  0.00    +0.000 A 
ENDBRANCH  16  18
ENDBRANCH   4  16
ENDBRANCH  12   4
TORSDOF 7
