MODEL 1
REMARK VINA RESULT:      -6.4      0.000      0.000
REMARK  Name = 75368577
REMARK  3 active torsions:
REMARK  status: ('A' for Active; 'I' for Inactive)
REMARK    1  A    between atoms: N_3  and  C_13
REMARK    2  A    between atoms: N_4  and  C_14
REMARK    3  A    between atoms: C_13  and  C_15
REMARK                            x       y       z     vdW  Elec       q    Type
REMARK                         _______ _______ _______ _____ _____    ______ ____
ROOT
ATOM      1  O   UNL     1      -1.949 -10.850  15.716  0.00  0.00    -0.252 OA
ATOM      2  N   UNL     1      -2.958 -10.800  13.616  0.00  0.00    -0.278 N 
ATOM      3  N   UNL     1      -3.386 -10.102  10.924  0.00  0.00    -0.292 NA
ATOM      4  N   UNL     1      -4.323 -10.843  15.421  0.00  0.00    -0.254 N 
ATOM      7  C   UNL     1      -4.281 -10.934  13.060  0.00  0.00    +0.109 C 
ATOM      8  C   UNL     1      -4.480  -9.954  11.904  0.00  0.00    +0.109 C 
ATOM      9  C   UNL     1      -5.195 -10.711  14.258  0.00  0.00    +0.139 C 
ATOM     10  C   UNL     1      -1.815 -10.780  12.725  0.00  0.00    +0.125 C 
ATOM     11  C   UNL     1      -2.078  -9.832  11.552  0.00  0.00    +0.104 C 
ATOM     12  C   UNL     1      -2.954 -10.840  15.019  0.00  0.00    +0.309 C 
ENDROOT
BRANCH   4  14
ATOM     14  C   UNL     1      -4.828 -10.883  16.753  0.00  0.00    +0.038 A 
ATOM     16  C   UNL     1      -4.169 -11.635  17.726  0.00  0.00    +0.023 A 
ATOM     17  C   UNL     1      -5.979 -10.169  17.085  0.00  0.00    +0.023 A 
ATOM     18  C   UNL     1      -4.663 -11.674  19.029  0.00  0.00    +0.002 A 
ATOM     19  C   UNL     1      -6.474 -10.208  18.388  0.00  0.00    +0.002 A 
ATOM     21  C   UNL     1      -5.815 -10.960  19.361  0.00  0.00    +0.000 A 
ENDBRANCH   4  14
BRANCH   3  13
ATOM     13  C   UNL     1      -3.599  -9.209   9.784  0.00  0.00    +0.158 C 
BRANCH  13  15
ATOM      5  N   UNL     1      -5.227  -9.114   7.882  0.00  0.00    -0.347 N 
ATOM      6  N   UNL     1      -4.523 -11.142   8.451  0.00  0.00    -0.239 NA
ATOM     15  C   UNL     1      -4.437  -9.857   8.715  0.00  0.00    +0.121 A 
ATOM     20  C   UNL     1      -5.856  -9.981   7.033  0.00  0.00    +0.104 A 
ATOM     22  C   UNL     1      -5.406 -11.226   7.403  0.00  0.00    +0.130 A 
ATOM     23  H   UNL     1      -5.328  -8.108   7.891  0.00  0.00    +0.167 HD
ENDBRANCH  13  15
ENDBRANCH   3  13
TORSDOF 3
ENDMDL
MODEL 2
REMARK VINA RESULT:      -6.3     27.495     29.155
REMARK  Name = 75368577
REMARK  3 active torsions:
REMARK  status: ('A' for Active; 'I' for Inactive)
REMARK    1  A    between atoms: N_3  and  C_13
REMARK    2  A    between atoms: N_4  and  C_14
REMARK    3  A    between atoms: C_13  and  C_15
REMARK                            x       y       z     vdW  Elec       q    Type
REMARK                         _______ _______ _______ _____ _____    ______ ____
ROOT
ATOM      1  O   UNL     1      19.846   7.501  22.426  0.00  0.00    -0.252 OA
ATOM      2  N   UNL     1      18.021   7.350  20.984  0.00  0.00    -0.278 N 
ATOM      3  N   UNL     1      15.339   7.349  20.133  0.00  0.00    -0.292 NA
ATOM      4  N   UNL     1      19.737   5.915  20.638  0.00  0.00    -0.254 N 
ATOM      7  C   UNL     1      17.674   6.667  19.763  0.00  0.00    +0.109 C 
ATOM      8  C   UNL     1      16.216   6.210  19.799  0.00  0.00    +0.109 C 
ATOM      9  C   UNL     1      18.699   5.544  19.681  0.00  0.00    +0.139 C 
ATOM     10  C   UNL     1      17.144   8.389  21.486  0.00  0.00    +0.125 C 
ATOM     11  C   UNL     1      15.690   7.913  21.452  0.00  0.00    +0.104 C 
ATOM     12  C   UNL     1      19.288   6.985  21.467  0.00  0.00    +0.309 C 
ENDROOT
BRANCH   4  14
ATOM     14  C   UNL     1      20.973   5.213  20.735  0.00  0.00    +0.038 A 
ATOM     16  C   UNL     1      20.981   3.860  21.079  0.00  0.00    +0.023 A 
ATOM     17  C   UNL     1      22.174   5.875  20.485  0.00  0.00    +0.023 A 
ATOM     18  C   UNL     1      22.190   3.172  21.174  0.00  0.00    +0.002 A 
ATOM     19  C   UNL     1      23.384   5.188  20.580  0.00  0.00    +0.002 A 
ATOM     21  C   UNL     1      23.392   3.835  20.925  0.00  0.00    +0.000 A 
ENDBRANCH   4  14
BRANCH   3  13
ATOM     13  C   UNL     1      13.936   6.935  20.113  0.00  0.00    +0.158 C 
BRANCH  13  15
ATOM      5  N   UNL     1      13.560   8.898  18.602  0.00  0.00    -0.347 N 
ATOM      6  N   UNL     1      12.022   7.299  18.509  0.00  0.00    -0.239 NA
ATOM     15  C   UNL     1      13.146   7.683  19.072  0.00  0.00    +0.121 A 
ATOM     20  C   UNL     1      12.641   9.315  17.680  0.00  0.00    +0.104 A 
ATOM     22  C   UNL     1      11.703   8.312  17.639  0.00  0.00    +0.130 A 
ATOM     23  H   UNL     1      14.393   9.398  18.883  0.00  0.00    +0.167 HD
ENDBRANCH  13  15
ENDBRANCH   3  13
TORSDOF 3
ENDMDL
MODEL 3
REMARK VINA RESULT:      -6.2     21.991     24.018
REMARK  Name = 75368577
REMARK  3 active torsions:
REMARK  status: ('A' for Active; 'I' for Inactive)
REMARK    1  A    between atoms: N_3  and  C_13
REMARK    2  A    between atoms: N_4  and  C_14
REMARK    3  A    between atoms: C_13  and  C_15
REMARK                            x       y       z     vdW  Elec       q    Type
REMARK                         _______ _______ _______ _____ _____    ______ ____
ROOT
ATOM      1  O   UNL     1      12.202   7.223   5.339  0.00  0.00    -0.252 OA
ATOM      2  N   UNL     1      11.791   5.870   3.486  0.00  0.00    -0.278 N 
ATOM      3  N   UNL     1      11.427   5.147   0.791  0.00  0.00    -0.292 NA
ATOM      4  N   UNL     1      10.585   5.459   5.357  0.00  0.00    -0.254 N 
ATOM      7  C   UNL     1      11.048   4.674   3.176  0.00  0.00    +0.109 C 
ATOM      8  C   UNL     1      10.406   4.783   1.794  0.00  0.00    +0.109 C 
ATOM      9  C   UNL     1      10.066   4.556   4.334  0.00  0.00    +0.139 C 
ATOM     10  C   UNL     1      12.716   6.402   2.504  0.00  0.00    +0.125 C 
ATOM     11  C   UNL     1      12.054   6.441   1.125  0.00  0.00    +0.104 C 
ATOM     12  C   UNL     1      11.602   6.297   4.810  0.00  0.00    +0.309 C 
ENDROOT
BRANCH   4  14
ATOM     14  C   UNL     1      10.052   5.505   6.677  0.00  0.00    +0.038 A 
ATOM     16  C   UNL     1       9.465   6.679   7.151  0.00  0.00    +0.023 A 
ATOM     17  C   UNL     1      10.114   4.378   7.496  0.00  0.00    +0.023 A 
ATOM     18  C   UNL     1       8.942   6.726   8.442  0.00  0.00    +0.002 A 
ATOM     19  C   UNL     1       9.592   4.424   8.788  0.00  0.00    +0.002 A 
ATOM     21  C   UNL     1       9.005   5.598   9.262  0.00  0.00    +0.000 A 
ENDBRANCH   4  14
BRANCH   3  13
ATOM     13  C   UNL     1      10.834   5.196  -0.545  0.00  0.00    +0.158 C 
BRANCH  13  15
ATOM      5  N   UNL     1      10.301   3.473  -2.285  0.00  0.00    -0.347 N 
ATOM      6  N   UNL     1      12.268   3.253  -1.277  0.00  0.00    -0.239 NA
ATOM     15  C   UNL     1      11.168   3.970  -1.353  0.00  0.00    +0.121 A 
ATOM     20  C   UNL     1      10.885   2.369  -2.839  0.00  0.00    +0.104 A 
ATOM     22  C   UNL     1      12.097   2.254  -2.202  0.00  0.00    +0.130 A 
ATOM     23  H   UNL     1       9.394   3.852  -2.522  0.00  0.00    +0.167 HD
ENDBRANCH  13  15
ENDBRANCH   3  13
TORSDOF 3
ENDMDL
MODEL 4
REMARK VINA RESULT:      -6.2     27.630     29.487
REMARK  Name = 75368577
REMARK  3 active torsions:
REMARK  status: ('A' for Active; 'I' for Inactive)
REMARK    1  A    between atoms: N_3  and  C_13
REMARK    2  A    between atoms: N_4  and  C_14
REMARK    3  A    between atoms: C_13  and  C_15
REMARK                            x       y       z     vdW  Elec       q    Type
REMARK                         _______ _______ _______ _____ _____    ______ ____
ROOT
ATOM      1  O   UNL     1      15.948   9.797  21.079  0.00  0.00    -0.252 OA
ATOM      2  N   UNL     1      17.383   7.960  21.090  0.00  0.00    -0.278 N 
ATOM      3  N   UNL     1      19.793   6.509  21.008  0.00  0.00    -0.292 NA
ATOM      4  N   UNL     1      15.425   7.739  19.975  0.00  0.00    -0.254 N 
ATOM      7  C   UNL     1      17.353   6.575  20.692  0.00  0.00    +0.109 C 
ATOM      8  C   UNL     1      18.694   6.161  20.086  0.00  0.00    +0.109 C 
ATOM      9  C   UNL     1      16.167   6.504  19.739  0.00  0.00    +0.139 C 
ATOM     10  C   UNL     1      18.501   8.446  21.874  0.00  0.00    +0.125 C 
ATOM     11  C   UNL     1      19.820   7.962  21.267  0.00  0.00    +0.104 C 
ATOM     12  C   UNL     1      16.204   8.645  20.756  0.00  0.00    +0.309 C 
ENDROOT
BRANCH   4  14
ATOM     14  C   UNL     1      14.141   7.979  19.408  0.00  0.00    +0.038 A 
ATOM     16  C   UNL     1      14.005   8.119  18.026  0.00  0.00    +0.023 A 
ATOM     17  C   UNL     1      13.020   8.072  20.231  0.00  0.00    +0.023 A 
ATOM     18  C   UNL     1      12.748   8.354  17.469  0.00  0.00    +0.002 A 
ATOM     19  C   UNL     1      11.762   8.306  19.675  0.00  0.00    +0.002 A 
ATOM     21  C   UNL     1      11.626   8.447  18.293  0.00  0.00    +0.000 A 
ENDBRANCH   4  14
BRANCH   3  13
ATOM     13  C   UNL     1      21.076   6.064  20.463  0.00  0.00    +0.158 C 
BRANCH  13  15
ATOM      5  N   UNL     1      22.362   3.918  20.599  0.00  0.00    -0.347 N 
ATOM      6  N   UNL     1      21.493   4.646  22.509  0.00  0.00    -0.239 NA
ATOM     15  C   UNL     1      21.629   4.888  21.224  0.00  0.00    +0.121 A 
ATOM     20  C   UNL     1      22.715   2.998  21.547  0.00  0.00    +0.104 A 
ATOM     22  C   UNL     1      22.168   3.469  22.716  0.00  0.00    +0.130 A 
ATOM     23  H   UNL     1      22.600   3.884  19.617  0.00  0.00    +0.167 HD
ENDBRANCH  13  15
ENDBRANCH   3  13
TORSDOF 3
ENDMDL
MODEL 5
REMARK VINA RESULT:      -6.0      4.650      7.385
REMARK  Name = 75368577
REMARK  3 active torsions:
REMARK  status: ('A' for Active; 'I' for Inactive)
REMARK    1  A    between atoms: N_3  and  C_13
REMARK    2  A    between atoms: N_4  and  C_14
REMARK    3  A    between atoms: C_13  and  C_15
REMARK                            x       y       z     vdW  Elec       q    Type
REMARK                         _______ _______ _______ _____ _____    ______ ____
ROOT
ATOM      1  O   UNL     1      -5.111 -12.415  18.466  0.00  0.00    -0.252 OA
ATOM      2  N   UNL     1      -6.739 -10.780  18.138  0.00  0.00    -0.278 N 
ATOM      3  N   UNL     1      -9.289  -9.596  18.035  0.00  0.00    -0.292 NA
ATOM      4  N   UNL     1      -5.020 -10.842  16.665  0.00  0.00    -0.254 N 
ATOM      7  C   UNL     1      -6.939  -9.620  17.306  0.00  0.00    +0.109 C 
ATOM      8  C   UNL     1      -8.398  -9.524  16.860  0.00  0.00    +0.109 C 
ATOM      9  C   UNL     1      -5.934  -9.813  16.178  0.00  0.00    +0.139 C 
ATOM     10  C   UNL     1      -7.653 -11.030  19.234  0.00  0.00    +0.125 C 
ATOM     11  C   UNL     1      -9.100 -10.867  18.761  0.00  0.00    +0.104 C 
ATOM     12  C   UNL     1      -5.552 -11.465  17.834  0.00  0.00    +0.309 C 
ENDROOT
BRANCH   4  14
ATOM     14  C   UNL     1      -3.821 -11.186  15.978  0.00  0.00    +0.038 A 
ATOM     16  C   UNL     1      -2.622 -10.551  16.307  0.00  0.00    +0.023 A 
ATOM     17  C   UNL     1      -3.843 -12.156  14.977  0.00  0.00    +0.023 A 
ATOM     18  C   UNL     1      -1.448 -10.887  15.634  0.00  0.00    +0.002 A 
ATOM     19  C   UNL     1      -2.669 -12.493  14.304  0.00  0.00    +0.002 A 
ATOM     21  C   UNL     1      -1.471 -11.858  14.633  0.00  0.00    +0.000 A 
ENDBRANCH   4  14
BRANCH   3  13
ATOM     13  C   UNL     1     -10.686  -9.446  17.625  0.00  0.00    +0.158 C 
BRANCH  13  15
ATOM      5  N   UNL     1     -10.608  -7.001  17.082  0.00  0.00    -0.347 N 
ATOM      6  N   UNL     1     -11.290  -8.334  15.442  0.00  0.00    -0.239 NA
ATOM     15  C   UNL     1     -10.873  -8.283  16.688  0.00  0.00    +0.121 A 
ATOM     20  C   UNL     1     -10.874  -6.183  16.020  0.00  0.00    +0.104 A 
ATOM     22  C   UNL     1     -11.292  -7.028  15.020  0.00  0.00    +0.130 A 
ATOM     23  H   UNL     1     -10.277  -6.709  17.992  0.00  0.00    +0.167 HD
ENDBRANCH  13  15
ENDBRANCH   3  13
TORSDOF 3
ENDMDL
MODEL 6
REMARK VINA RESULT:      -5.8      3.921      6.303
REMARK  Name = 75368577
REMARK  3 active torsions:
REMARK  status: ('A' for Active; 'I' for Inactive)
REMARK    1  A    between atoms: N_3  and  C_13
REMARK    2  A    between atoms: N_4  and  C_14
REMARK    3  A    between atoms: C_13  and  C_15
REMARK                            x       y       z     vdW  Elec       q    Type
REMARK                         _______ _______ _______ _____ _____    ______ ____
ROOT
ATOM      1  O   UNL     1      -8.294 -10.770  19.553  0.00  0.00    -0.252 OA
ATOM      2  N   UNL     1      -6.603 -11.183  18.003  0.00  0.00    -0.278 N 
ATOM      3  N   UNL     1      -4.003 -11.478  16.970  0.00  0.00    -0.292 NA
ATOM      4  N   UNL     1      -8.417 -10.039  17.277  0.00  0.00    -0.254 N 
ATOM      7  C   UNL     1      -6.394 -11.045  16.584  0.00  0.00    +0.109 C 
ATOM      8  C   UNL     1      -4.965 -10.587  16.293  0.00  0.00    +0.109 C 
ATOM      9  C   UNL     1      -7.482 -10.068  16.157  0.00  0.00    +0.139 C 
ATOM     10  C   UNL     1      -5.633 -11.915  18.793  0.00  0.00    +0.125 C 
ATOM     11  C   UNL     1      -4.214 -11.467  18.431  0.00  0.00    +0.104 C 
ATOM     12  C   UNL     1      -7.844 -10.675  18.419  0.00  0.00    +0.309 C 
ENDROOT
BRANCH   4  14
ATOM     14  C   UNL     1      -9.677  -9.380  17.203  0.00  0.00    +0.038 A 
ATOM     16  C   UNL     1      -9.734  -8.014  16.919  0.00  0.00    +0.023 A 
ATOM     17  C   UNL     1     -10.855 -10.096  17.414  0.00  0.00    +0.023 A 
ATOM     18  C   UNL     1     -10.967  -7.368  16.846  0.00  0.00    +0.002 A 
ATOM     19  C   UNL     1     -12.089  -9.450  17.342  0.00  0.00    +0.002 A 
ATOM     21  C   UNL     1     -12.145  -8.085  17.057  0.00  0.00    +0.000 A 
ENDBRANCH   4  14
BRANCH   3  13
ATOM     13  C   UNL     1      -2.630 -11.084  16.650  0.00  0.00    +0.158 C 
BRANCH  13  15
ATOM      5  N   UNL     1      -2.096 -10.056  14.428  0.00  0.00    -0.347 N 
ATOM      6  N   UNL     1      -2.319 -12.266  14.443  0.00  0.00    -0.239 NA
ATOM     15  C   UNL     1      -2.352 -11.173  15.173  0.00  0.00    +0.121 A 
ATOM     20  C   UNL     1      -1.887 -10.463  13.140  0.00  0.00    +0.104 A 
ATOM     22  C   UNL     1      -2.030 -11.829  13.174  0.00  0.00    +0.130 A 
ATOM     23  H   UNL     1      -2.067  -9.104  14.766  0.00  0.00    +0.167 HD
ENDBRANCH  13  15
ENDBRANCH   3  13
TORSDOF 3
ENDMDL
MODEL 7
REMARK VINA RESULT:      -5.8     23.997     26.402
REMARK  Name = 75368577
REMARK  3 active torsions:
REMARK  status: ('A' for Active; 'I' for Inactive)
REMARK    1  A    between atoms: N_3  and  C_13
REMARK    2  A    between atoms: N_4  and  C_14
REMARK    3  A    between atoms: C_13  and  C_15
REMARK                            x       y       z     vdW  Elec       q    Type
REMARK                         _______ _______ _______ _____ _____    ______ ____
ROOT
ATOM      1  O   UNL     1       9.800   4.071   1.302  0.00  0.00    -0.252 OA
ATOM      2  N   UNL     1      11.988   4.733   0.845  0.00  0.00    -0.278 N 
ATOM      3  N   UNL     1      14.677   4.537   0.041  0.00  0.00    -0.292 NA
ATOM      4  N   UNL     1      10.999   5.617   2.679  0.00  0.00    -0.254 N 
ATOM      7  C   UNL     1      12.935   5.707   1.326  0.00  0.00    +0.109 C 
ATOM      8  C   UNL     1      14.344   5.117   1.357  0.00  0.00    +0.109 C 
ATOM      9  C   UNL     1      12.374   6.107   2.684  0.00  0.00    +0.139 C 
ATOM     10  C   UNL     1      12.288   3.993  -0.365  0.00  0.00    +0.125 C 
ATOM     11  C   UNL     1      13.725   3.468  -0.318  0.00  0.00    +0.104 C 
ATOM     12  C   UNL     1      10.792   4.732   1.580  0.00  0.00    +0.309 C 
ENDROOT
BRANCH   4  14
ATOM     14  C   UNL     1      10.067   5.948   3.704  0.00  0.00    +0.038 A 
ATOM     16  C   UNL     1       9.174   7.004   3.520  0.00  0.00    +0.023 A 
ATOM     17  C   UNL     1      10.046   5.216   4.891  0.00  0.00    +0.023 A 
ATOM     18  C   UNL     1       8.262   7.328   4.523  0.00  0.00    +0.002 A 
ATOM     19  C   UNL     1       9.133   5.540   5.895  0.00  0.00    +0.002 A 
ATOM     21  C   UNL     1       8.240   6.597   5.711  0.00  0.00    +0.000 A 
ENDBRANCH   4  14
BRANCH   3  13
ATOM     13  C   UNL     1      16.047   4.022   0.043  0.00  0.00    +0.158 C 
BRANCH  13  15
ATOM      5  N   UNL     1      18.054   3.932  -1.455  0.00  0.00    -0.347 N 
ATOM      6  N   UNL     1      16.273   4.965  -2.287  0.00  0.00    -0.239 NA
ATOM     15  C   UNL     1      16.761   4.324  -1.248  0.00  0.00    +0.121 A 
ATOM     20  C   UNL     1      18.413   4.350  -2.705  0.00  0.00    +0.104 A 
ATOM     22  C   UNL     1      17.299   4.985  -3.199  0.00  0.00    +0.130 A 
ATOM     23  H   UNL     1      18.639   3.425  -0.804  0.00  0.00    +0.167 HD
ENDBRANCH  13  15
ENDBRANCH   3  13
TORSDOF 3
ENDMDL
MODEL 8
REMARK VINA RESULT:      -5.8      2.863      7.996
REMARK  Name = 75368577
REMARK  3 active torsions:
REMARK  status: ('A' for Active; 'I' for Inactive)
REMARK    1  A    between atoms: N_3  and  C_13
REMARK    2  A    between atoms: N_4  and  C_14
REMARK    3  A    between atoms: C_13  and  C_15
REMARK                            x       y       z     vdW  Elec       q    Type
REMARK                         _______ _______ _______ _____ _____    ______ ____
ROOT
ATOM      1  O   UNL     1      -4.839 -13.230  13.947  0.00  0.00    -0.252 OA
ATOM      2  N   UNL     1      -4.576 -12.447  16.127  0.00  0.00    -0.278 N 
ATOM      3  N   UNL     1      -5.196 -11.918  18.820  0.00  0.00    -0.292 NA
ATOM      4  N   UNL     1      -3.783 -11.143  14.455  0.00  0.00    -0.254 N 
ATOM      7  C   UNL     1      -3.894 -11.373  16.804  0.00  0.00    +0.109 C 
ATOM      8  C   UNL     1      -4.756 -10.818  17.938  0.00  0.00    +0.109 C 
ATOM      9  C   UNL     1      -3.588 -10.385  15.687  0.00  0.00    +0.139 C 
ATOM     10  C   UNL     1      -5.180 -13.506  16.910  0.00  0.00    +0.125 C 
ATOM     11  C   UNL     1      -5.987 -12.911  18.067  0.00  0.00    +0.104 C 
ATOM     12  C   UNL     1      -4.440 -12.379  14.731  0.00  0.00    +0.309 C 
ENDROOT
BRANCH   4  14
ATOM     14  C   UNL     1      -3.421 -10.630  13.177  0.00  0.00    +0.038 A 
ATOM     16  C   UNL     1      -4.412 -10.217  12.284  0.00  0.00    +0.023 A 
ATOM     17  C   UNL     1      -2.077 -10.538  12.816  0.00  0.00    +0.023 A 
ATOM     18  C   UNL     1      -4.058  -9.715  11.033  0.00  0.00    +0.002 A 
ATOM     19  C   UNL     1      -1.722 -10.035  11.564  0.00  0.00    +0.002 A 
ATOM     21  C   UNL     1      -2.713  -9.623  10.672  0.00  0.00    +0.000 A 
ENDBRANCH   4  14
BRANCH   3  13
ATOM     13  C   UNL     1      -5.974 -11.391  19.942  0.00  0.00    +0.158 C 
BRANCH  13  15
ATOM      5  N   UNL     1      -8.005 -10.333  18.924  0.00  0.00    -0.347 N 
ATOM      6  N   UNL     1      -8.345 -12.253  19.988  0.00  0.00    -0.239 NA
ATOM     15  C   UNL     1      -7.448 -11.359  19.636  0.00  0.00    +0.121 A 
ATOM     20  C   UNL     1      -9.343 -10.590  18.816  0.00  0.00    +0.104 A 
ATOM     22  C   UNL     1      -9.528 -11.779  19.479  0.00  0.00    +0.130 A 
ATOM     23  H   UNL     1      -7.518  -9.532  18.546  0.00  0.00    +0.167 HD
ENDBRANCH  13  15
ENDBRANCH   3  13
TORSDOF 3
ENDMDL
MODEL 9
REMARK VINA RESULT:      -5.8     21.758     25.002
REMARK  Name = 75368577
REMARK  3 active torsions:
REMARK  status: ('A' for Active; 'I' for Inactive)
REMARK    1  A    between atoms: N_3  and  C_13
REMARK    2  A    between atoms: N_4  and  C_14
REMARK    3  A    between atoms: C_13  and  C_15
REMARK                            x       y       z     vdW  Elec       q    Type
REMARK                         _______ _______ _______ _____ _____    ______ ____
ROOT
ATOM      1  O   UNL     1       9.915   7.013   0.793  0.00  0.00    -0.252 OA
ATOM      2  N   UNL     1       9.824   6.305   3.012  0.00  0.00    -0.278 N 
ATOM      3  N   UNL     1       9.891   6.453   5.821  0.00  0.00    -0.292 NA
ATOM      4  N   UNL     1      10.845   4.934   1.527  0.00  0.00    -0.254 N 
ATOM      7  C   UNL     1      10.119   5.114   3.769  0.00  0.00    +0.109 C 
ATOM      8  C   UNL     1      10.743   5.474   5.117  0.00  0.00    +0.109 C 
ATOM      9  C   UNL     1      11.018   4.313   2.837  0.00  0.00    +0.139 C 
ATOM     10  C   UNL     1       9.120   7.396   3.656  0.00  0.00    +0.125 C 
ATOM     11  C   UNL     1       9.740   7.687   5.025  0.00  0.00    +0.104 C 
ATOM     12  C   UNL     1      10.162   6.181   1.655  0.00  0.00    +0.309 C 
ENDROOT
BRANCH   4  14
ATOM     14  C   UNL     1      11.380   4.366   0.336  0.00  0.00    +0.038 A 
ATOM     16  C   UNL     1      10.617   4.350  -0.833  0.00  0.00    +0.023 A 
ATOM     17  C   UNL     1      12.665   3.825   0.335  0.00  0.00    +0.023 A 
ATOM     18  C   UNL     1      11.140   3.794  -1.999  0.00  0.00    +0.002 A 
ATOM     19  C   UNL     1      13.189   3.268  -0.831  0.00  0.00    +0.002 A 
ATOM     21  C   UNL     1      12.426   3.253  -1.999  0.00  0.00    +0.000 A 
ENDBRANCH   4  14
BRANCH   3  13
ATOM     13  C   UNL     1      10.450   6.761   7.138  0.00  0.00    +0.158 C 
BRANCH  13  15
ATOM      5  N   UNL     1      10.378   4.569   8.350  0.00  0.00    -0.347 N 
ATOM      6  N   UNL     1       8.972   6.125   9.082  0.00  0.00    -0.239 NA
ATOM     15  C   UNL     1       9.909   5.845   8.204  0.00  0.00    +0.121 A 
ATOM     20  C   UNL     1       9.696   4.000   9.389  0.00  0.00    +0.104 A 
ATOM     22  C   UNL     1       8.835   4.979   9.824  0.00  0.00    +0.130 A 
ATOM     23  H   UNL     1      11.097   4.126   7.794  0.00  0.00    +0.167 HD
ENDBRANCH  13  15
ENDBRANCH   3  13
TORSDOF 3
ENDMDL
MODEL 10
REMARK VINA RESULT:      -5.8      4.477      7.206
REMARK  Name = 75368577
REMARK  3 active torsions:
REMARK  status: ('A' for Active; 'I' for Inactive)
REMARK    1  A    between atoms: N_3  and  C_13
REMARK    2  A    between atoms: N_4  and  C_14
REMARK    3  A    between atoms: C_13  and  C_15
REMARK                            x       y       z     vdW  Elec       q    Type
REMARK                         _______ _______ _______ _____ _____    ______ ____
ROOT
ATOM      1  O   UNL     1      -9.901  -9.119  17.525  0.00  0.00    -0.252 OA
ATOM      2  N   UNL     1      -7.798 -10.096  17.759  0.00  0.00    -0.278 N 
ATOM      3  N   UNL     1      -5.315 -11.193  17.020  0.00  0.00    -0.292 NA
ATOM      4  N   UNL     1      -9.434 -10.811  19.151  0.00  0.00    -0.254 N 
ATOM      7  C   UNL     1      -7.126 -10.985  18.673  0.00  0.00    +0.109 C 
ATOM      8  C   UNL     1      -6.216 -11.949  17.913  0.00  0.00    +0.109 C 
ATOM      9  C   UNL     1      -8.269 -11.645  19.433  0.00  0.00    +0.139 C 
ATOM     10  C   UNL     1      -7.026  -9.414  16.740  0.00  0.00    +0.125 C 
ATOM     11  C   UNL     1      -6.088 -10.402  16.042  0.00  0.00    +0.104 C 
ATOM     12  C   UNL     1      -9.150  -9.906  18.086  0.00  0.00    +0.309 C 
ENDROOT
BRANCH   4  14
ATOM     14  C   UNL     1     -10.677 -10.984  19.824  0.00  0.00    +0.038 A 
ATOM     16  C   UNL     1     -11.086 -12.260  20.216  0.00  0.00    +0.023 A 
ATOM     17  C   UNL     1     -11.486  -9.881  20.092  0.00  0.00    +0.023 A 
ATOM     18  C   UNL     1     -12.303 -12.430  20.875  0.00  0.00    +0.002 A 
ATOM     19  C   UNL     1     -12.704 -10.050  20.751  0.00  0.00    +0.002 A 
ATOM     21  C   UNL     1     -13.113 -11.325  21.143  0.00  0.00    +0.000 A 
ENDBRANCH   4  14
BRANCH   3  13
ATOM     13  C   UNL     1      -4.399 -12.103  16.331  0.00  0.00    +0.158 C 
BRANCH  13  15
ATOM      5  N   UNL     1      -2.132 -11.068  16.592  0.00  0.00    -0.347 N 
ATOM      6  N   UNL     1      -3.008 -10.976  14.553  0.00  0.00    -0.239 NA
ATOM     15  C   UNL     1      -3.194 -11.381  15.790  0.00  0.00    +0.121 A 
ATOM     20  C   UNL     1      -1.210 -10.422  15.817  0.00  0.00    +0.104 A 
ATOM     22  C   UNL     1      -1.773 -10.378  14.563  0.00  0.00    +0.130 A 
ATOM     23  H   UNL     1      -2.044 -11.275  17.577  0.00  0.00    +0.167 HD
ENDBRANCH  13  15
ENDBRANCH   3  13
TORSDOF 3
ENDMDL
