REMARK  Name = 11911829
REMARK  10 active torsions:
REMARK  status: ('A' for Active; 'I' for Inactive)
REMARK    1  A    between atoms: O_4  and  C_20
REMARK    2  A    between atoms: O_4  and  C_24
REMARK    3  A    between atoms: N_5  and  C_12
REMARK    4  A    between atoms: N_6  and  C_13
REMARK    5  A    between atoms: N_9  and  C_19
REMARK    6  A    between atoms: N_9  and  C_21
REMARK    7  A    between atoms: N_9  and  C_22
REMARK    8  A    between atoms: C_17  and  C_20
REMARK    9  A    between atoms: C_18  and  C_19
REMARK   10  A    between atoms: C_21  and  C_23
REMARK                            x       y       z     vdW  Elec       q    Type
REMARK                         _______ _______ _______ _____ _____    ______ ____
ROOT
ATOM      1  O   UNL     1       2.858  -2.758   1.443  0.00  0.00    -0.370 OA
ATOM      2  O   UNL     1       2.282  -3.385  -1.584  0.00  0.00    -0.370 OA
ATOM     10  C   UNL     1       2.333  -2.174  -0.807  0.00  0.00    +0.175 C 
ATOM     11  C   UNL     1       1.758  -2.494   0.559  0.00  0.00    +0.171 C 
ATOM     12  C   UNL     1       3.776  -1.794  -0.539  0.00  0.00    +0.166 C 
ATOM     13  C   UNL     1       0.949  -3.753   0.338  0.00  0.00    +0.130 C 
ATOM     14  C   UNL     1       4.095  -2.546   0.749  0.00  0.00    +0.190 C 
ATOM     15  C   UNL     1       1.705  -4.430  -0.789  0.00  0.00    +0.185 C 
ENDROOT
BRANCH  12   5
ATOM      5  N   UNL     1       3.972  -0.343  -0.475  0.00  0.00    -0.244 N 
ATOM      7  N   UNL     1       4.809   0.301  -1.281  0.00  0.00    -0.065 NA
ATOM      8  N   UNL     1       4.748   1.603  -0.962  0.00  0.00    -0.133 NA
ATOM     16  C   UNL     1       3.391   0.579   0.350  0.00  0.00    +0.135 A 
ATOM     18  C   UNL     1       3.873   1.830   0.056  0.00  0.00    +0.097 A 
BRANCH  18  19
ATOM     19  C   UNL     1       3.596   3.150   0.619  0.00  0.00    +0.143 C 
BRANCH  19   9
ATOM      9  N   UNL     1       2.158   3.411   0.825  0.00  0.00    -0.295 NA
ATOM     22  C   UNL     1       1.982   4.490   1.789  0.00  0.00    +0.105 C 
BRANCH   9  21
ATOM     21  C   UNL     1       1.525   3.739  -0.447  0.00  0.00    +0.119 C 
BRANCH  21  23
ATOM     23  C   UNL     1       0.039   3.499  -0.411  0.00  0.00    -0.033 A 
ATOM     25  C   UNL     1      -0.475   2.254  -0.773  0.00  0.00    +0.005 A 
ATOM     26  C   UNL     1      -0.824   4.521  -0.016  0.00  0.00    +0.005 A 
ATOM     29  C   UNL     1      -1.852   2.031  -0.740  0.00  0.00    +0.000 A 
ATOM     30  C   UNL     1      -2.200   4.299   0.018  0.00  0.00    +0.000 A 
ATOM     31  C   UNL     1      -2.714   3.054  -0.345  0.00  0.00    +0.000 A 
ENDBRANCH  21  23
ENDBRANCH   9  21
ENDBRANCH  19   9
ENDBRANCH  18  19
ENDBRANCH  12   5
BRANCH  13   6
ATOM      3  O   UNL     1      -1.070  -2.405   1.920  0.00  0.00    -0.272 OA
ATOM      6  N   UNL     1      -0.405  -3.443  -0.053  0.00  0.00    -0.305 N 
ATOM     17  C   UNL     1      -1.304  -2.790   0.778  0.00  0.00    +0.251 C 
ATOM     35  H   UNL     1      -0.720  -3.737  -0.973  0.00  0.00    +0.149 HD
BRANCH  17  20
ATOM     20  C   UNL     1      -2.648  -2.596   0.108  0.00  0.00    +0.324 C 
BRANCH  20   4
ATOM      4  O   UNL     1      -3.541  -1.919   0.968  0.00  0.00    -0.483 OA
BRANCH   4  24
ATOM     24  C   UNL     1      -4.498  -1.126   0.380  0.00  0.00    +0.121 A 
ATOM     27  C   UNL     1      -4.992  -1.450  -0.884  0.00  0.00    +0.045 A 
ATOM     28  C   UNL     1      -4.975   0.001   1.048  0.00  0.00    +0.045 A 
ATOM     32  C   UNL     1      -5.963  -0.645  -1.480  0.00  0.00    +0.004 A 
ATOM     33  C   UNL     1      -5.946   0.806   0.452  0.00  0.00    +0.004 A 
ATOM     34  C   UNL     1      -6.440   0.483  -0.812  0.00  0.00    +0.000 A 
ENDBRANCH   4  24
ENDBRANCH  20   4
ENDBRANCH  17  20
ENDBRANCH  13   6
TORSDOF 9
