REMARK  Name = 7156516
REMARK  15 active torsions:
REMARK  status: ('A' for Active; 'I' for Inactive)
REMARK    1  A    between atoms: O_2  and  C_14
REMARK    2  A    between atoms: O_3  and  C_19
REMARK    3  A    between atoms: O_5  and  C_30
REMARK    4  A    between atoms: N_7  and  CA_26
REMARK    5  A    between atoms: C_9  and  C_17
REMARK    6  A    between atoms: C_11  and  C_19
REMARK    7  A    between atoms: C_11  and  C_20
REMARK    8  A    between atoms: C_12  and  C_22
REMARK    9  A    between atoms: C_22  and  C_23
REMARK   10  A    between atoms: C_24  and  C_25
REMARK   11  A    between atoms: CA_26  and  CB_27
REMARK   12  A    between atoms: CA_26  and  C_30
REMARK   13  A    between atoms: CB_27  and  CG_31
REMARK   14  A    between atoms: CG_31  and  CD1_33
REMARK   15  A    between atoms: CG_31  and  CD2_34
REMARK                            x       y       z     vdW  Elec       q    Type
REMARK                         _______ _______ _______ _____ _____    ______ ____
ROOT
ATOM      1  S   UNL     1      -0.848   3.345  -0.113  0.00  0.00    -0.072 S 
ATOM      6  N   UNL     1       0.673   1.253  -0.079  0.00  0.00    -0.243 NA
ATOM      9  C   UNL     1      -2.496  -0.881   0.445  0.00  0.00    -0.020 C 
ATOM     10  C   UNL     1      -3.409   0.132  -0.377  0.00  0.00    +0.011 C 
ATOM     11  C   UNL     1      -4.957  -0.171  -0.416  0.00  0.00    +0.021 C 
ATOM     12  C   UNL     1      -0.979  -0.652  -0.004  0.00  0.00    +0.053 C 
ATOM     13  C   UNL     1      -2.895  -2.338   0.092  0.00  0.00    +0.010 C 
ATOM     14  C   UNL     1      -5.177  -1.676  -0.736  0.00  0.00    +0.123 C 
ATOM     15  C   UNL     1      -3.068   1.611  -0.034  0.00  0.00    +0.049 C 
ATOM     16  C   UNL     1      -4.391  -2.607   0.182  0.00  0.00    +0.032 C 
ATOM     17  C   UNL     1      -2.614  -0.691   1.977  0.00  0.00    +0.012 C 
ATOM     18  C   UNL     1      -0.638   0.816  -0.031  0.00  0.00    +0.056 A 
ATOM     20  C   UNL     1      -5.604   0.646  -1.570  0.00  0.00    +0.016 C 
ATOM     21  C   UNL     1      -1.591   1.814  -0.063  0.00  0.00    +0.014 A 
ATOM     24  C   UNL     1       0.683   2.568  -0.117  0.00  0.00    +0.110 A 
ENDROOT
BRANCH  24  25
ATOM      8  N   UNL     1       2.913   5.539   0.184  0.00  0.00    -0.263 NA
ATOM     25  C   UNL     1       1.873   3.385  -0.163  0.00  0.00    +0.025 A 
ATOM     28  C   UNL     1       3.090   2.855  -0.576  0.00  0.00    +0.013 A 
ATOM     29  C   UNL     1       1.837   4.720   0.204  0.00  0.00    +0.121 A 
ATOM     32  C   UNL     1       4.219   3.666  -0.609  0.00  0.00    +0.020 A 
ATOM     35  C   UNL     1       4.079   4.989  -0.223  0.00  0.00    +0.111 A 
ENDBRANCH  24  25
BRANCH  14   2
ATOM      2  O   UNL     1      -6.561  -2.011  -0.652  0.00  0.00    -0.391 OA
ATOM     36  H   UNL     1      -6.654  -2.946  -0.904  0.00  0.00    +0.210 HD
ENDBRANCH  14   2
BRANCH  11  19
ATOM     19  C   UNL     1      -5.723   0.239   0.862  0.00  0.00    +0.165 C 
BRANCH  19   3
ATOM      3  O   UNL     1      -7.082  -0.082   0.671  0.00  0.00    -0.394 OA
ATOM     37  H   UNL     1      -7.559   0.187   1.475  0.00  0.00    +0.209 HD
ENDBRANCH  19   3
ENDBRANCH  11  19
BRANCH  12  22
ATOM     22  C   UNL     1       0.052  -1.453   0.802  0.00  0.00    +0.106 C 
BRANCH  22  23
ATOM      4  O   UNL     1       1.327  -1.856  -1.214  0.00  0.00    -0.276 OA
ATOM      7  N   UNL     1       2.416  -1.798   0.838  0.00  0.00    -0.310 N 
ATOM     23  C   ACE A   0       1.308  -1.722   0.006  0.00  0.00    +0.214 C 
ATOM     38  H   UNL     1       2.285  -1.744   1.844  0.00  0.00    +0.149 HD
BRANCH   7  26
ATOM     26  CA  UNL     1       3.753  -2.050   0.351  0.00  0.00    +0.098 C 
BRANCH  26  27
ATOM     27  CB  UNL     1       4.051  -3.559   0.312  0.00  0.00    +0.027 C 
BRANCH  27  31
ATOM     31  CG  UNL     1       5.404  -3.942  -0.325  0.00  0.00    -0.015 C 
ATOM     33  CD1 UNL     1       5.447  -3.452  -1.776  0.00  0.00    +0.007 C 
ATOM     34  CD2 UNL     1       5.666  -5.448  -0.284  0.00  0.00    +0.007 C 
ENDBRANCH  27  31
ENDBRANCH  26  27
BRANCH  26  30
ATOM     30  C   UNL     1       4.773  -1.288   1.204  0.00  0.00    +0.178 C 
BRANCH  30   5
ATOM      5  O   UNL     1       4.472   0.101   1.231  0.00  0.00    -0.393 OA
ATOM     39  H   UNL     1       5.147   0.530   1.784  0.00  0.00    +0.209 HD
ENDBRANCH  30   5
ENDBRANCH  26  30
ENDBRANCH   7  26
ENDBRANCH  22  23
ENDBRANCH  12  22
TORSDOF 11
