REMARK  Name = 51136832
REMARK  7 active torsions:
REMARK  status: ('A' for Active; 'I' for Inactive)
REMARK    1  A    between atoms: N_4  and  C_15
REMARK    2  A    between atoms: N_10  and  C_31
REMARK    3  A    between atoms: C_11  and  C_16
REMARK    4  A    between atoms: C_15  and  C_17
REMARK    5  A    between atoms: C_22  and  C_26
REMARK    6  A    between atoms: C_28  and  C_34
REMARK    7  A    between atoms: C_35  and  C_36
REMARK                            x       y       z     vdW  Elec       q    Type
REMARK                         _______ _______ _______ _____ _____    ______ ____
ROOT
ATOM      1  O   UNL     1      -3.920  -0.191   1.979  0.00  0.00    -0.336 OA
ATOM      6  N   UNL     1      -2.101  -0.844   0.847  0.00  0.00    -0.190 NA
ATOM      8  N   UNL     1      -2.819   0.301   2.693  0.00  0.00    -0.056 NA
ATOM     16  C   UNL     1      -3.408  -0.852   0.908  0.00  0.00    +0.245 A 
ATOM     22  C   UNL     1      -1.784  -0.126   1.963  0.00  0.00    +0.202 A 
ENDROOT
BRANCH  22  26
ATOM      2  O   UNL     1       6.105  -3.194  -1.785  0.00  0.00    -0.276 OA
ATOM      5  N   UNL     1       2.946  -0.504   1.107  0.00  0.00    -0.312 N 
ATOM      7  N   UNL     1       5.043  -1.477  -0.635  0.00  0.00    -0.299 N 
ATOM      9  N   UNL     1       2.232   0.685   3.019  0.00  0.00    -0.240 NA
ATOM     18  C   UNL     1       2.799  -1.763   0.372  0.00  0.00    +0.125 C 
ATOM     19  C   UNL     1       4.217   0.216   0.999  0.00  0.00    +0.125 C 
ATOM     20  C   UNL     1       4.164  -2.388   0.093  0.00  0.00    +0.126 C 
ATOM     21  C   UNL     1       4.878  -0.049  -0.354  0.00  0.00    +0.126 C 
ATOM     23  C   UNL     1       1.915  -0.027   1.914  0.00  0.00    +0.122 A 
ATOM     26  C   UNL     1      -0.421   0.148   2.322  0.00  0.00    +0.027 A 
ATOM     27  C   UNL     1       0.618  -0.320   1.525  0.00  0.00    +0.055 A 
ATOM     28  C   UNL     1       5.965  -1.992  -1.546  0.00  0.00    +0.213 C 
ATOM     32  C   UNL     1      -0.135   0.884   3.466  0.00  0.00    +0.031 A 
ATOM     33  C   UNL     1       1.196   1.123   3.768  0.00  0.00    +0.113 A 
ATOM     34  C   UNL     1       6.829  -0.984  -2.263  0.00  0.00    +0.109 C 
ENDBRANCH  22  26
BRANCH  16  11
ATOM      4  N   UNL     1      -3.896  -1.599  -1.415  0.00  0.00    -0.287 NA
ATOM     11  C   UNL     1      -4.410  -1.484  -0.036  0.00  0.00    +0.146 C 
ATOM     12  C   UNL     1      -4.777  -2.925   0.366  0.00  0.00    +0.030 C 
ATOM     13  C   UNL     1      -4.494  -3.767  -0.870  0.00  0.00    +0.017 C 
ATOM     14  C   UNL     1      -4.553  -2.765  -2.006  0.00  0.00    +0.085 C 
BRANCH   4  15
ATOM     15  C   UNL     1      -4.103  -0.394  -2.208  0.00  0.00    +0.120 C 
BRANCH  15  17
ATOM     17  C   UNL     1      -3.075   0.662  -1.901  0.00  0.00    -0.033 A 
ATOM     24  C   UNL     1      -3.478   1.915  -1.439  0.00  0.00    +0.007 A 
ATOM     25  C   UNL     1      -1.718   0.388  -2.078  0.00  0.00    +0.007 A 
ATOM     29  C   UNL     1      -2.526   2.894  -1.155  0.00  0.00    +0.023 A 
ATOM     30  C   UNL     1      -0.766   1.367  -1.795  0.00  0.00    +0.023 A 
ATOM     31  C   UNL     1      -1.170   2.620  -1.333  0.00  0.00    +0.033 A 
BRANCH  31  10
ATOM      3  O   UNL     1       1.833   2.544  -1.546  0.00  0.00    -0.276 OA
ATOM     10  N   UNL     1      -0.217   3.599  -1.050  0.00  0.00    -0.286 N 
ATOM     35  C   UNL     1       1.177   3.509  -1.166  0.00  0.00    +0.214 C 
ATOM     36  C   UNL     1       1.856   4.792  -0.759  0.00  0.00    +0.109 C 
ATOM     37  H   UNL     1      -0.591   4.485  -0.717  0.00  0.00    +0.155 HD
ENDBRANCH  31  10
ENDBRANCH  15  17
ENDBRANCH   4  15
ENDBRANCH  16  11
TORSDOF 5
