MODEL 1
REMARK VINA RESULT:      -7.0      0.000      0.000
REMARK  Name = 45783587
REMARK  6 active torsions:
REMARK  status: ('A' for Active; 'I' for Inactive)
REMARK    1  A    between atoms: O_1  and  C_12
REMARK    2  A    between atoms: O_1  and  C_22
REMARK    3  A    between atoms: N_3  and  C_15
REMARK    4  A    between atoms: C_8  and  C_19
REMARK    5  A    between atoms: C_15  and  C_20
REMARK    6  A    between atoms: C_21  and  C_25
REMARK                            x       y       z     vdW  Elec       q    Type
REMARK                         _______ _______ _______ _____ _____    ______ ____
ROOT
ATOM      2  O   UNL     1      -5.129  -9.688  15.682  0.00  0.00    -0.336 OA
ATOM      4  N   UNL     1      -5.320 -11.595  16.839  0.00  0.00    -0.190 NA
ATOM      5  N   UNL     1      -6.345  -9.604  16.373  0.00  0.00    -0.056 NA
ATOM     19  C   UNL     1      -4.591 -10.890  16.012  0.00  0.00    +0.245 A 
ATOM     21  C   UNL     1      -6.386 -10.765  17.032  0.00  0.00    +0.204 A 
ENDROOT
BRANCH  21  25
ATOM      6  N   UNL     1      -8.463 -11.111  20.096  0.00  0.00    -0.221 NA
ATOM     22  C   UNL     1      -9.515 -11.786  19.580  0.00  0.00    +0.215 A 
ATOM     25  C   UNL     1      -7.476 -11.127  17.889  0.00  0.00    +0.041 A 
ATOM     26  C   UNL     1      -9.617 -12.162  18.250  0.00  0.00    +0.068 A 
ATOM     27  C   UNL     1      -8.575 -11.822  17.395  0.00  0.00    +0.018 A 
ATOM     28  C   UNL     1      -7.469 -10.798  19.235  0.00  0.00    +0.126 A 
BRANCH  22   1
ATOM      1  O   UNL     1     -10.528 -12.108  20.442  0.00  0.00    -0.473 OA
BRANCH   1  12
ATOM     12  C   UNL     1     -11.832 -11.652  20.096  0.00  0.00    +0.175 C 
ATOM     13  C   UNL     1     -11.927 -10.146  20.330  0.00  0.00    +0.044 C 
ATOM     14  C   UNL     1     -12.876 -12.416  20.910  0.00  0.00    +0.044 C 
ATOM     16  C   UNL     1     -13.336  -9.625  20.066  0.00  0.00    +0.004 C 
ATOM     17  C   UNL     1     -14.285 -11.895  20.646  0.00  0.00    +0.004 C 
ATOM     18  C   UNL     1     -14.380 -10.389  20.877  0.00  0.00    +0.000 C 
ENDBRANCH   1  12
ENDBRANCH  22   1
ENDBRANCH  21  25
BRANCH  19   8
ATOM      3  N   UNL     1      -3.028 -10.513  14.111  0.00  0.00    -0.287 NA
ATOM      8  C   UNL     1      -3.253 -11.226  15.385  0.00  0.00    +0.146 C 
ATOM      9  C   UNL     1      -2.063 -10.824  16.275  0.00  0.00    +0.030 C 
ATOM     10  C   UNL     1      -1.192  -9.935  15.397  0.00  0.00    +0.017 C 
ATOM     11  C   UNL     1      -1.581 -10.335  13.987  0.00  0.00    +0.085 C 
BRANCH   3  15
ATOM     15  C   UNL     1      -3.596 -11.201  12.960  0.00  0.00    +0.121 C 
BRANCH  15  20
ATOM      7  N   UNL     1      -5.699  -8.669  11.088  0.00  0.00    -0.263 NA
ATOM     20  C   UNL     1      -4.043 -10.234  11.894  0.00  0.00    -0.015 A 
ATOM     23  C   UNL     1      -3.263 -10.003  10.766  0.00  0.00    +0.008 A 
ATOM     24  C   UNL     1      -5.241  -9.549  12.007  0.00  0.00    +0.115 A 
ATOM     29  C   UNL     1      -3.701  -9.105   9.798  0.00  0.00    +0.020 A 
ATOM     30  C   UNL     1      -4.916  -8.470  10.005  0.00  0.00    +0.111 A 
ENDBRANCH  15  20
ENDBRANCH   3  15
ENDBRANCH  19   8
TORSDOF 6
ENDMDL
MODEL 2
REMARK VINA RESULT:      -6.9      2.759      3.276
REMARK  Name = 45783587
REMARK  6 active torsions:
REMARK  status: ('A' for Active; 'I' for Inactive)
REMARK    1  A    between atoms: O_1  and  C_12
REMARK    2  A    between atoms: O_1  and  C_22
REMARK    3  A    between atoms: N_3  and  C_15
REMARK    4  A    between atoms: C_8  and  C_19
REMARK    5  A    between atoms: C_15  and  C_20
REMARK    6  A    between atoms: C_21  and  C_25
REMARK                            x       y       z     vdW  Elec       q    Type
REMARK                         _______ _______ _______ _____ _____    ______ ____
ROOT
ATOM      2  O   UNL     1      -4.564 -12.279  17.152  0.00  0.00    -0.336 OA
ATOM      4  N   UNL     1      -5.296 -10.471  16.053  0.00  0.00    -0.190 NA
ATOM      5  N   UNL     1      -5.835 -11.997  17.670  0.00  0.00    -0.056 NA
ATOM     19  C   UNL     1      -4.324 -11.333  16.208  0.00  0.00    +0.245 A 
ATOM     21  C   UNL     1      -6.201 -10.918  16.972  0.00  0.00    +0.204 A 
ENDROOT
BRANCH  21  25
ATOM      6  N   UNL     1      -9.020  -8.542  16.500  0.00  0.00    -0.221 NA
ATOM     22  C   UNL     1      -9.842  -8.968  17.485  0.00  0.00    +0.215 A 
ATOM     25  C   UNL     1      -7.460 -10.264  17.168  0.00  0.00    +0.041 A 
ATOM     26  C   UNL     1      -9.546 -10.018  18.340  0.00  0.00    +0.068 A 
ATOM     27  C   UNL     1      -8.332 -10.673  18.172  0.00  0.00    +0.018 A 
ATOM     28  C   UNL     1      -7.849  -9.202  16.366  0.00  0.00    +0.126 A 
BRANCH  22   1
ATOM      1  O   UNL     1     -11.032  -8.307  17.631  0.00  0.00    -0.473 OA
BRANCH   1  12
ATOM     12  C   UNL     1     -11.688  -7.899  16.435  0.00  0.00    +0.175 C 
ATOM     13  C   UNL     1     -11.631  -6.377  16.313  0.00  0.00    +0.044 C 
ATOM     14  C   UNL     1     -13.128  -8.409  16.440  0.00  0.00    +0.044 C 
ATOM     16  C   UNL     1     -12.405  -5.882  15.096  0.00  0.00    +0.004 C 
ATOM     17  C   UNL     1     -13.903  -7.915  15.223  0.00  0.00    +0.004 C 
ATOM     18  C   UNL     1     -13.844  -6.394  15.098  0.00  0.00    +0.000 C 
ENDBRANCH   1  12
ENDBRANCH  22   1
ENDBRANCH  21  25
BRANCH  19   8
ATOM      3  N   UNL     1      -2.954 -10.592  14.267  0.00  0.00    -0.287 NA
ATOM      8  C   UNL     1      -2.994 -11.420  15.488  0.00  0.00    +0.146 C 
ATOM      9  C   UNL     1      -1.820 -10.911  16.345  0.00  0.00    +0.030 C 
ATOM     10  C   UNL     1      -1.144  -9.841  15.499  0.00  0.00    +0.017 C 
ATOM     11  C   UNL     1      -1.559 -10.192  14.083  0.00  0.00    +0.085 C 
BRANCH   3  15
ATOM     15  C   UNL     1      -3.488 -11.270  13.094  0.00  0.00    +0.121 C 
BRANCH  15  20
ATOM      7  N   UNL     1      -5.687  -8.762  11.302  0.00  0.00    -0.263 NA
ATOM     20  C   UNL     1      -3.975 -10.294  12.054  0.00  0.00    -0.015 A 
ATOM     23  C   UNL     1      -3.216 -10.015  10.924  0.00  0.00    +0.008 A 
ATOM     24  C   UNL     1      -5.192  -9.648  12.196  0.00  0.00    +0.115 A 
ATOM     29  C   UNL     1      -3.692  -9.109   9.981  0.00  0.00    +0.020 A 
ATOM     30  C   UNL     1      -4.922  -8.516  10.215  0.00  0.00    +0.111 A 
ENDBRANCH  15  20
ENDBRANCH   3  15
ENDBRANCH  19   8
TORSDOF 6
ENDMDL
MODEL 3
REMARK VINA RESULT:      -6.9     27.433     31.759
REMARK  Name = 45783587
REMARK  6 active torsions:
REMARK  status: ('A' for Active; 'I' for Inactive)
REMARK    1  A    between atoms: O_1  and  C_12
REMARK    2  A    between atoms: O_1  and  C_22
REMARK    3  A    between atoms: N_3  and  C_15
REMARK    4  A    between atoms: C_8  and  C_19
REMARK    5  A    between atoms: C_15  and  C_20
REMARK    6  A    between atoms: C_21  and  C_25
REMARK                            x       y       z     vdW  Elec       q    Type
REMARK                         _______ _______ _______ _____ _____    ______ ____
ROOT
ATOM      2  O   UNL     1      21.162   4.883  20.576  0.00  0.00    -0.336 OA
ATOM      4  N   UNL     1      20.251   6.912  20.838  0.00  0.00    -0.190 NA
ATOM      5  N   UNL     1      19.832   4.770  20.150  0.00  0.00    -0.056 NA
ATOM     19  C   UNL     1      21.324   6.174  20.965  0.00  0.00    +0.245 A 
ATOM     21  C   UNL     1      19.361   6.007  20.335  0.00  0.00    +0.204 A 
ENDROOT
BRANCH  21  25
ATOM      6  N   UNL     1      16.052   6.071  18.643  0.00  0.00    -0.221 NA
ATOM     22  C   UNL     1      15.436   7.016  19.388  0.00  0.00    +0.215 A 
ATOM     25  C   UNL     1      18.009   6.371  20.029  0.00  0.00    +0.041 A 
ATOM     26  C   UNL     1      16.032   7.674  20.452  0.00  0.00    +0.068 A 
ATOM     27  C   UNL     1      17.343   7.340  20.773  0.00  0.00    +0.018 A 
ATOM     28  C   UNL     1      17.325   5.772  18.984  0.00  0.00    +0.126 A 
BRANCH  22   1
ATOM      1  O   UNL     1      14.146   7.328  19.053  0.00  0.00    -0.473 OA
BRANCH   1  12
ATOM     12  C   UNL     1      13.288   7.731  20.116  0.00  0.00    +0.175 C 
ATOM     13  C   UNL     1      12.402   6.558  20.533  0.00  0.00    +0.044 C 
ATOM     14  C   UNL     1      12.456   8.935  19.675  0.00  0.00    +0.044 C 
ATOM     16  C   UNL     1      11.396   6.967  21.604  0.00  0.00    +0.004 C 
ATOM     17  C   UNL     1      11.451   9.345  20.746  0.00  0.00    +0.004 C 
ATOM     18  C   UNL     1      10.567   8.173  21.166  0.00  0.00    +0.000 C 
ENDBRANCH   1  12
ENDBRANCH  22   1
ENDBRANCH  21  25
BRANCH  19   8
ATOM      3  N   UNL     1      23.643   5.422  21.469  0.00  0.00    -0.287 NA
ATOM      8  C   UNL     1      22.698   6.557  21.475  0.00  0.00    +0.146 C 
ATOM      9  C   UNL     1      23.375   7.634  20.607  0.00  0.00    +0.030 C 
ATOM     10  C   UNL     1      24.719   7.039  20.210  0.00  0.00    +0.017 C 
ATOM     11  C   UNL     1      24.976   5.995  21.278  0.00  0.00    +0.085 C 
BRANCH   3  15
ATOM     15  C   UNL     1      23.566   4.604  22.671  0.00  0.00    +0.121 C 
BRANCH  15  20
ATOM      7  N   UNL     1      24.072   1.261  20.966  0.00  0.00    -0.263 NA
ATOM     20  C   UNL     1      24.028   3.192  22.420  0.00  0.00    -0.015 A 
ATOM     23  C   UNL     1      24.809   2.518  23.352  0.00  0.00    +0.008 A 
ATOM     24  C   UNL     1      23.690   2.527  21.253  0.00  0.00    +0.115 A 
ATOM     29  C   UNL     1      25.221   1.215  23.092  0.00  0.00    +0.020 A 
ATOM     30  C   UNL     1      24.829   0.637  21.895  0.00  0.00    +0.111 A 
ENDBRANCH  15  20
ENDBRANCH   3  15
ENDBRANCH  19   8
TORSDOF 6
ENDMDL
MODEL 4
REMARK VINA RESULT:      -6.8     27.949     32.228
REMARK  Name = 45783587
REMARK  6 active torsions:
REMARK  status: ('A' for Active; 'I' for Inactive)
REMARK    1  A    between atoms: O_1  and  C_12
REMARK    2  A    between atoms: O_1  and  C_22
REMARK    3  A    between atoms: N_3  and  C_15
REMARK    4  A    between atoms: C_8  and  C_19
REMARK    5  A    between atoms: C_15  and  C_20
REMARK    6  A    between atoms: C_21  and  C_25
REMARK                            x       y       z     vdW  Elec       q    Type
REMARK                         _______ _______ _______ _____ _____    ______ ____
ROOT
ATOM      2  O   UNL     1      21.851   5.718  21.488  0.00  0.00    -0.336 OA
ATOM      4  N   UNL     1      20.297   4.353  20.628  0.00  0.00    -0.190 NA
ATOM      5  N   UNL     1      20.758   6.531  21.158  0.00  0.00    -0.056 NA
ATOM     19  C   UNL     1      21.496   4.453  21.143  0.00  0.00    +0.245 A 
ATOM     21  C   UNL     1      19.884   5.654  20.657  0.00  0.00    +0.204 A 
ENDROOT
BRANCH  21  25
ATOM      6  N   UNL     1      16.832   5.787  18.539  0.00  0.00    -0.221 NA
ATOM     22  C   UNL     1      16.137   6.736  19.204  0.00  0.00    +0.215 A 
ATOM     25  C   UNL     1      18.591   6.043  20.178  0.00  0.00    +0.041 A 
ATOM     26  C   UNL     1      16.595   7.376  20.345  0.00  0.00    +0.068 A 
ATOM     27  C   UNL     1      17.846   7.017  20.835  0.00  0.00    +0.018 A 
ATOM     28  C   UNL     1      18.044   5.464  19.043  0.00  0.00    +0.126 A 
BRANCH  22   1
ATOM      1  O   UNL     1      14.908   7.072  18.703  0.00  0.00    -0.473 OA
BRANCH   1  12
ATOM     12  C   UNL     1      13.979   7.646  19.616  0.00  0.00    +0.175 C 
ATOM     13  C   UNL     1      12.837   6.665  19.870  0.00  0.00    +0.044 C 
ATOM     14  C   UNL     1      13.467   8.974  19.060  0.00  0.00    +0.044 C 
ATOM     16  C   UNL     1      11.764   7.272  20.769  0.00  0.00    +0.004 C 
ATOM     17  C   UNL     1      12.394   9.582  19.958  0.00  0.00    +0.004 C 
ATOM     18  C   UNL     1      11.254   8.601  20.215  0.00  0.00    +0.000 C 
ENDBRANCH   1  12
ENDBRANCH  22   1
ENDBRANCH  21  25
BRANCH  19   8
ATOM      3  N   UNL     1      23.906   3.830  21.172  0.00  0.00    -0.287 NA
ATOM      8  C   UNL     1      22.523   3.369  21.404  0.00  0.00    +0.146 C 
ATOM      9  C   UNL     1      22.512   2.879  22.863  0.00  0.00    +0.030 C 
ATOM     10  C   UNL     1      23.945   3.047  23.350  0.00  0.00    +0.017 C 
ATOM     11  C   UNL     1      24.758   3.050  22.070  0.00  0.00    +0.085 C 
BRANCH   3  15
ATOM     15  C   UNL     1      24.326   3.715  19.782  0.00  0.00    +0.121 C 
BRANCH  15  20
ATOM      7  N   UNL     1      26.777   6.600  19.727  0.00  0.00    -0.263 NA
ATOM     20  C   UNL     1      25.570   4.518  19.503  0.00  0.00    -0.015 A 
ATOM     23  C   UNL     1      26.633   3.968  18.796  0.00  0.00    +0.008 A 
ATOM     24  C   UNL     1      25.690   5.826  19.943  0.00  0.00    +0.115 A 
ATOM     29  C   UNL     1      27.769   4.734  18.554  0.00  0.00    +0.020 A 
ATOM     30  C   UNL     1      27.791   6.033  19.036  0.00  0.00    +0.111 A 
ENDBRANCH  15  20
ENDBRANCH   3  15
ENDBRANCH  19   8
TORSDOF 6
ENDMDL
MODEL 5
REMARK VINA RESULT:      -6.8      2.302      9.159
REMARK  Name = 45783587
REMARK  6 active torsions:
REMARK  status: ('A' for Active; 'I' for Inactive)
REMARK    1  A    between atoms: O_1  and  C_12
REMARK    2  A    between atoms: O_1  and  C_22
REMARK    3  A    between atoms: N_3  and  C_15
REMARK    4  A    between atoms: C_8  and  C_19
REMARK    5  A    between atoms: C_15  and  C_20
REMARK    6  A    between atoms: C_21  and  C_25
REMARK                            x       y       z     vdW  Elec       q    Type
REMARK                         _______ _______ _______ _____ _____    ______ ____
ROOT
ATOM      2  O   UNL     1      -7.093 -11.093  20.133  0.00  0.00    -0.336 OA
ATOM      4  N   UNL     1      -7.648 -11.772  18.072  0.00  0.00    -0.190 NA
ATOM      5  N   UNL     1      -5.943 -10.934  19.348  0.00  0.00    -0.056 NA
ATOM     19  C   UNL     1      -8.048 -11.590  19.305  0.00  0.00    +0.245 A 
ATOM     21  C   UNL     1      -6.350 -11.356  18.147  0.00  0.00    +0.204 A 
ENDROOT
BRANCH  21  25
ATOM      6  N   UNL     1      -4.901 -12.357  14.873  0.00  0.00    -0.221 NA
ATOM     22  C   UNL     1      -3.882 -11.472  14.798  0.00  0.00    +0.215 A 
ATOM     25  C   UNL     1      -5.487 -11.375  17.003  0.00  0.00    +0.041 A 
ATOM     26  C   UNL     1      -3.605 -10.524  15.771  0.00  0.00    +0.068 A 
ATOM     27  C   UNL     1      -4.427 -10.481  16.891  0.00  0.00    +0.018 A 
ATOM     28  C   UNL     1      -5.679 -12.286  15.976  0.00  0.00    +0.126 A 
BRANCH  22   1
ATOM      1  O   UNL     1      -3.086 -11.534  13.686  0.00  0.00    -0.473 OA
BRANCH   1  12
ATOM     12  C   UNL     1      -3.109 -10.405  12.818  0.00  0.00    +0.175 C 
ATOM     13  C   UNL     1      -4.423 -10.384  12.039  0.00  0.00    +0.044 C 
ATOM     14  C   UNL     1      -1.902 -10.452  11.883  0.00  0.00    +0.044 C 
ATOM     16  C   UNL     1      -4.456  -9.247  11.024  0.00  0.00    +0.004 C 
ATOM     17  C   UNL     1      -1.933  -9.315  10.868  0.00  0.00    +0.004 C 
ATOM     18  C   UNL     1      -3.247  -9.291  10.091  0.00  0.00    +0.000 C 
ENDBRANCH   1  12
ENDBRANCH  22   1
ENDBRANCH  21  25
BRANCH  19   8
ATOM      3  N   UNL     1     -10.516 -11.355  19.086  0.00  0.00    -0.287 NA
ATOM      8  C   UNL     1      -9.406 -11.853  19.923  0.00  0.00    +0.146 C 
ATOM      9  C   UNL     1      -9.696 -13.354  20.105  0.00  0.00    +0.030 C 
ATOM     10  C   UNL     1     -11.017 -13.595  19.388  0.00  0.00    +0.017 C 
ATOM     11  C   UNL     1     -11.662 -12.223  19.360  0.00  0.00    +0.085 C 
BRANCH   3  15
ATOM     15  C   UNL     1     -10.825  -9.951  19.316  0.00  0.00    +0.121 C 
BRANCH  15  20
ATOM      7  N   UNL     1      -9.493  -8.015  16.347  0.00  0.00    -0.263 NA
ATOM     20  C   UNL     1     -10.792  -9.152  18.039  0.00  0.00    -0.015 A 
ATOM     23  C   UNL     1     -11.967  -8.814  17.376  0.00  0.00    +0.008 A 
ATOM     24  C   UNL     1      -9.593  -8.733  17.489  0.00  0.00    +0.115 A 
ATOM     29  C   UNL     1     -11.906  -8.076  16.198  0.00  0.00    +0.020 A 
ATOM     30  C   UNL     1     -10.655  -7.704  15.730  0.00  0.00    +0.111 A 
ENDBRANCH  15  20
ENDBRANCH   3  15
ENDBRANCH  19   8
TORSDOF 6
ENDMDL
MODEL 6
REMARK VINA RESULT:      -6.8      6.613      9.064
REMARK  Name = 45783587
REMARK  6 active torsions:
REMARK  status: ('A' for Active; 'I' for Inactive)
REMARK    1  A    between atoms: O_1  and  C_12
REMARK    2  A    between atoms: O_1  and  C_22
REMARK    3  A    between atoms: N_3  and  C_15
REMARK    4  A    between atoms: C_8  and  C_19
REMARK    5  A    between atoms: C_15  and  C_20
REMARK    6  A    between atoms: C_21  and  C_25
REMARK                            x       y       z     vdW  Elec       q    Type
REMARK                         _______ _______ _______ _____ _____    ______ ____
ROOT
ATOM      2  O   UNL     1     -13.239  -6.329  12.481  0.00  0.00    -0.336 OA
ATOM      4  N   UNL     1     -11.960  -5.474  14.108  0.00  0.00    -0.190 NA
ATOM      5  N   UNL     1     -12.713  -7.424  13.178  0.00  0.00    -0.056 NA
ATOM     19  C   UNL     1     -12.746  -5.221  13.092  0.00  0.00    +0.245 A 
ATOM     21  C   UNL     1     -11.970  -6.839  14.122  0.00  0.00    +0.204 A 
ENDROOT
BRANCH  21  25
ATOM      6  N   UNL     1     -10.417  -9.727  15.872  0.00  0.00    -0.221 NA
ATOM     22  C   UNL     1      -9.826  -9.077  16.899  0.00  0.00    +0.215 A 
ATOM     25  C   UNL     1     -11.226  -7.587  15.091  0.00  0.00    +0.041 A 
ATOM     26  C   UNL     1      -9.890  -7.705  17.088  0.00  0.00    +0.068 A 
ATOM     27  C   UNL     1     -10.604  -6.953  16.162  0.00  0.00    +0.018 A 
ATOM     28  C   UNL     1     -11.103  -8.964  14.993  0.00  0.00    +0.126 A 
BRANCH  22   1
ATOM      1  O   UNL     1      -9.129  -9.839  17.798  0.00  0.00    -0.473 OA
BRANCH   1  12
ATOM     12  C   UNL     1      -7.716  -9.657  17.831  0.00  0.00    +0.175 C 
ATOM     13  C   UNL     1      -7.137  -9.888  16.437  0.00  0.00    +0.044 C 
ATOM     14  C   UNL     1      -7.102 -10.605  18.860  0.00  0.00    +0.044 C 
ATOM     16  C   UNL     1      -5.614  -9.801  16.439  0.00  0.00    +0.004 C 
ATOM     17  C   UNL     1      -5.579 -10.518  18.864  0.00  0.00    +0.004 C 
ATOM     18  C   UNL     1      -4.999 -10.746  17.470  0.00  0.00    +0.000 C 
ENDBRANCH   1  12
ENDBRANCH  22   1
ENDBRANCH  21  25
BRANCH  19   8
ATOM      3  N   UNL     1     -13.163  -3.873  11.042  0.00  0.00    -0.287 NA
ATOM      8  C   UNL     1     -13.173  -3.886  12.518  0.00  0.00    +0.146 C 
ATOM      9  C   UNL     1     -14.615  -3.508  12.903  0.00  0.00    +0.030 C 
ATOM     10  C   UNL     1     -15.323  -3.242  11.581  0.00  0.00    +0.017 C 
ATOM     11  C   UNL     1     -14.190  -2.916  10.629  0.00  0.00    +0.085 C 
BRANCH   3  15
ATOM     15  C   UNL     1     -11.858  -3.553  10.479  0.00  0.00    +0.121 C 
BRANCH  15  20
ATOM      7  N   UNL     1     -11.835  -6.667   8.324  0.00  0.00    -0.263 NA
ATOM     20  C   UNL     1     -11.383  -4.617   9.524  0.00  0.00    -0.015 A 
ATOM     23  C   UNL     1     -10.111  -4.562   8.967  0.00  0.00    +0.008 A 
ATOM     24  C   UNL     1     -12.199  -5.680   9.174  0.00  0.00    +0.115 A 
ATOM     29  C   UNL     1      -9.699  -5.559   8.088  0.00  0.00    +0.020 A 
ATOM     30  C   UNL     1     -10.591  -6.581   7.802  0.00  0.00    +0.111 A 
ENDBRANCH  15  20
ENDBRANCH   3  15
ENDBRANCH  19   8
TORSDOF 6
ENDMDL
MODEL 7
REMARK VINA RESULT:      -6.7      5.332      6.943
REMARK  Name = 45783587
REMARK  6 active torsions:
REMARK  status: ('A' for Active; 'I' for Inactive)
REMARK    1  A    between atoms: O_1  and  C_12
REMARK    2  A    between atoms: O_1  and  C_22
REMARK    3  A    between atoms: N_3  and  C_15
REMARK    4  A    between atoms: C_8  and  C_19
REMARK    5  A    between atoms: C_15  and  C_20
REMARK    6  A    between atoms: C_21  and  C_25
REMARK                            x       y       z     vdW  Elec       q    Type
REMARK                         _______ _______ _______ _____ _____    ______ ____
ROOT
ATOM      2  O   UNL     1      -8.291 -11.211  15.563  0.00  0.00    -0.336 OA
ATOM      4  N   UNL     1      -8.804  -9.496  16.907  0.00  0.00    -0.190 NA
ATOM      5  N   UNL     1      -9.146 -10.381  14.826  0.00  0.00    -0.056 NA
ATOM     19  C   UNL     1      -8.143 -10.618  16.775  0.00  0.00    +0.245 A 
ATOM     21  C   UNL     1      -9.405  -9.392  15.686  0.00  0.00    +0.204 A 
ENDROOT
BRANCH  21  25
ATOM      6  N   UNL     1     -10.901  -5.990  15.740  0.00  0.00    -0.221 NA
ATOM     22  C   UNL     1     -11.849  -6.146  14.788  0.00  0.00    +0.215 A 
ATOM     25  C   UNL     1     -10.258  -8.289  15.359  0.00  0.00    +0.041 A 
ATOM     26  C   UNL     1     -12.060  -7.324  14.090  0.00  0.00    +0.068 A 
ATOM     27  C   UNL     1     -11.245  -8.411  14.386  0.00  0.00    +0.018 A 
ATOM     28  C   UNL     1     -10.129  -7.068  16.001  0.00  0.00    +0.126 A 
BRANCH  22   1
ATOM      1  O   UNL     1     -12.638  -5.061  14.515  0.00  0.00    -0.473 OA
BRANCH   1  12
ATOM     12  C   UNL     1     -13.058  -4.899  13.164  0.00  0.00    +0.175 C 
ATOM     13  C   UNL     1     -12.157  -3.884  12.465  0.00  0.00    +0.044 C 
ATOM     14  C   UNL     1     -14.524  -4.468  13.131  0.00  0.00    +0.044 C 
ATOM     16  C   UNL     1     -12.626  -3.603  11.041  0.00  0.00    +0.004 C 
ATOM     17  C   UNL     1     -14.994  -4.187  11.707  0.00  0.00    +0.004 C 
ATOM     18  C   UNL     1     -14.092  -3.174  11.007  0.00  0.00    +0.000 C 
ENDBRANCH   1  12
ENDBRANCH  22   1
ENDBRANCH  21  25
BRANCH  19   8
ATOM      3  N   UNL     1      -5.815 -11.090  17.518  0.00  0.00    -0.287 NA
ATOM      8  C   UNL     1      -7.250 -11.329  17.770  0.00  0.00    +0.146 C 
ATOM      9  C   UNL     1      -7.477 -10.855  19.217  0.00  0.00    +0.030 C 
ATOM     10  C   UNL     1      -6.104 -10.425  19.716  0.00  0.00    +0.017 C 
ATOM     11  C   UNL     1      -5.146 -11.180  18.816  0.00  0.00    +0.085 C 
BRANCH   3  15
ATOM     15  C   UNL     1      -5.242 -12.007  16.542  0.00  0.00    +0.121 C 
BRANCH  15  20
ATOM      7  N   UNL     1      -3.224 -10.494  13.717  0.00  0.00    -0.263 NA
ATOM     20  C   UNL     1      -4.096 -11.381  15.790  0.00  0.00    -0.015 A 
ATOM     23  C   UNL     1      -2.887 -11.111  16.423  0.00  0.00    +0.008 A 
ATOM     24  C   UNL     1      -4.213 -11.057  14.449  0.00  0.00    +0.115 A 
ATOM     29  C   UNL     1      -1.846 -10.533  15.703  0.00  0.00    +0.020 A 
ATOM     30  C   UNL     1      -2.064 -10.247  14.364  0.00  0.00    +0.111 A 
ENDBRANCH  15  20
ENDBRANCH   3  15
ENDBRANCH  19   8
TORSDOF 6
ENDMDL
MODEL 8
REMARK VINA RESULT:      -6.7     27.908     32.123
REMARK  Name = 45783587
REMARK  6 active torsions:
REMARK  status: ('A' for Active; 'I' for Inactive)
REMARK    1  A    between atoms: O_1  and  C_12
REMARK    2  A    between atoms: O_1  and  C_22
REMARK    3  A    between atoms: N_3  and  C_15
REMARK    4  A    between atoms: C_8  and  C_19
REMARK    5  A    between atoms: C_15  and  C_20
REMARK    6  A    between atoms: C_21  and  C_25
REMARK                            x       y       z     vdW  Elec       q    Type
REMARK                         _______ _______ _______ _____ _____    ______ ____
ROOT
ATOM      2  O   UNL     1      21.322   5.733  22.174  0.00  0.00    -0.336 OA
ATOM      4  N   UNL     1      20.458   5.121  20.201  0.00  0.00    -0.190 NA
ATOM      5  N   UNL     1      20.036   6.288  22.123  0.00  0.00    -0.056 NA
ATOM     19  C   UNL     1      21.490   5.064  21.005  0.00  0.00    +0.245 A 
ATOM     21  C   UNL     1      19.592   5.883  20.930  0.00  0.00    +0.204 A 
ENDROOT
BRANCH  21  25
ATOM      6  N   UNL     1      16.556   5.892  18.785  0.00  0.00    -0.221 NA
ATOM     22  C   UNL     1      15.821   6.819  19.439  0.00  0.00    +0.215 A 
ATOM     25  C   UNL     1      18.290   6.222  20.437  0.00  0.00    +0.041 A 
ATOM     26  C   UNL     1      16.246   7.482  20.579  0.00  0.00    +0.068 A 
ATOM     27  C   UNL     1      17.505   7.172  21.081  0.00  0.00    +0.018 A 
ATOM     28  C   UNL     1      17.774   5.616  19.302  0.00  0.00    +0.126 A 
BRANCH  22   1
ATOM      1  O   UNL     1      14.585   7.108  18.925  0.00  0.00    -0.473 OA
BRANCH   1  12
ATOM     12  C   UNL     1      13.623   7.638  19.831  0.00  0.00    +0.175 C 
ATOM     13  C   UNL     1      12.525   6.605  20.074  0.00  0.00    +0.044 C 
ATOM     14  C   UNL     1      13.056   8.942  19.271  0.00  0.00    +0.044 C 
ATOM     16  C   UNL     1      11.417   7.162  20.964  0.00  0.00    +0.004 C 
ATOM     17  C   UNL     1      11.949   9.499  20.160  0.00  0.00    +0.004 C 
ATOM     18  C   UNL     1      10.852   8.467  20.406  0.00  0.00    +0.000 C 
ENDBRANCH   1  12
ENDBRANCH  22   1
ENDBRANCH  21  25
BRANCH  19   8
ATOM      3  N   UNL     1      23.947   5.118  21.395  0.00  0.00    -0.287 NA
ATOM      8  C   UNL     1      22.820   4.364  20.812  0.00  0.00    +0.146 C 
ATOM      9  C   UNL     1      22.872   2.987  21.499  0.00  0.00    +0.030 C 
ATOM     10  C   UNL     1      24.096   3.040  22.404  0.00  0.00    +0.017 C 
ATOM     11  C   UNL     1      24.951   4.126  21.783  0.00  0.00    +0.085 C 
BRANCH   3  15
ATOM     15  C   UNL     1      24.492   6.125  20.495  0.00  0.00    +0.121 C 
BRANCH  15  20
ATOM      7  N   UNL     1      23.999   9.335  22.442  0.00  0.00    -0.263 NA
ATOM     20  C   UNL     1      24.024   7.511  20.855  0.00  0.00    -0.015 A 
ATOM     23  C   UNL     1      23.218   8.242  19.990  0.00  0.00    +0.008 A 
ATOM     24  C   UNL     1      24.384   8.097  22.058  0.00  0.00    +0.115 A 
ATOM     29  C   UNL     1      22.801   9.520  20.350  0.00  0.00    +0.020 A 
ATOM     30  C   UNL     1      23.216  10.016  21.576  0.00  0.00    +0.111 A 
ENDBRANCH  15  20
ENDBRANCH   3  15
ENDBRANCH  19   8
TORSDOF 6
ENDMDL
MODEL 9
REMARK VINA RESULT:      -6.6     18.183     21.326
REMARK  Name = 45783587
REMARK  6 active torsions:
REMARK  status: ('A' for Active; 'I' for Inactive)
REMARK    1  A    between atoms: O_1  and  C_12
REMARK    2  A    between atoms: O_1  and  C_22
REMARK    3  A    between atoms: N_3  and  C_15
REMARK    4  A    between atoms: C_8  and  C_19
REMARK    5  A    between atoms: C_15  and  C_20
REMARK    6  A    between atoms: C_21  and  C_25
REMARK                            x       y       z     vdW  Elec       q    Type
REMARK                         _______ _______ _______ _____ _____    ______ ____
ROOT
ATOM      2  O   UNL     1     -14.944   4.103  24.102  0.00  0.00    -0.336 OA
ATOM      4  N   UNL     1     -15.663   4.696  22.066  0.00  0.00    -0.190 NA
ATOM      5  N   UNL     1     -13.966   4.959  23.578  0.00  0.00    -0.056 NA
ATOM     19  C   UNL     1     -15.905   4.002  23.149  0.00  0.00    +0.245 A 
ATOM     21  C   UNL     1     -14.462   5.266  22.375  0.00  0.00    +0.204 A 
ENDROOT
BRANCH  21  25
ATOM      6  N   UNL     1     -13.912   7.807  19.719  0.00  0.00    -0.221 NA
ATOM     22  C   UNL     1     -12.560   7.816  19.692  0.00  0.00    +0.215 A 
ATOM     25  C   UNL     1     -13.784   6.136  21.461  0.00  0.00    +0.041 A 
ATOM     26  C   UNL     1     -11.764   7.025  20.505  0.00  0.00    +0.068 A 
ATOM     27  C   UNL     1     -12.394   6.172  21.404  0.00  0.00    +0.018 A 
ATOM     28  C   UNL     1     -14.490   6.966  20.604  0.00  0.00    +0.126 A 
BRANCH  22   1
ATOM      1  O   UNL     1     -11.963   8.664  18.798  0.00  0.00    -0.473 OA
BRANCH   1  12
ATOM     12  C   UNL     1     -11.920   8.237  17.440  0.00  0.00    +0.175 C 
ATOM     13  C   UNL     1     -10.514   8.443  16.882  0.00  0.00    +0.044 C 
ATOM     14  C   UNL     1     -12.966   9.002  16.630  0.00  0.00    +0.044 C 
ATOM     16  C   UNL     1     -10.442   8.091  15.399  0.00  0.00    +0.004 C 
ATOM     17  C   UNL     1     -12.894   8.650  15.148  0.00  0.00    +0.004 C 
ATOM     18  C   UNL     1     -11.488   8.853  14.589  0.00  0.00    +0.000 C 
ENDBRANCH   1  12
ENDBRANCH  22   1
ENDBRANCH  21  25
BRANCH  19   8
ATOM      3  N   UNL     1     -17.326   3.001  24.931  0.00  0.00    -0.287 NA
ATOM      8  C   UNL     1     -17.092   3.119  23.478  0.00  0.00    +0.146 C 
ATOM      9  C   UNL     1     -18.415   3.666  22.911  0.00  0.00    +0.030 C 
ATOM     10  C   UNL     1     -19.350   3.765  24.109  0.00  0.00    +0.017 C 
ATOM     11  C   UNL     1     -18.762   2.782  25.102  0.00  0.00    +0.085 C 
BRANCH   3  15
ATOM     15  C   UNL     1     -16.534   1.952  25.558  0.00  0.00    +0.121 C 
BRANCH  15  20
ATOM      7  N   UNL     1     -16.540   1.226  29.274  0.00  0.00    -0.263 NA
ATOM     20  C   UNL     1     -16.412   2.154  27.046  0.00  0.00    -0.015 A 
ATOM     23  C   UNL     1     -16.073   3.395  27.573  0.00  0.00    +0.008 A 
ATOM     24  C   UNL     1     -16.633   1.111  27.930  0.00  0.00    +0.115 A 
ATOM     29  C   UNL     1     -15.967   3.552  28.952  0.00  0.00    +0.020 A 
ATOM     30  C   UNL     1     -16.209   2.446  29.751  0.00  0.00    +0.111 A 
ENDBRANCH  15  20
ENDBRANCH   3  15
ENDBRANCH  19   8
TORSDOF 6
ENDMDL
MODEL 10
REMARK VINA RESULT:      -6.5     26.190     29.797
REMARK  Name = 45783587
REMARK  6 active torsions:
REMARK  status: ('A' for Active; 'I' for Inactive)
REMARK    1  A    between atoms: O_1  and  C_12
REMARK    2  A    between atoms: O_1  and  C_22
REMARK    3  A    between atoms: N_3  and  C_15
REMARK    4  A    between atoms: C_8  and  C_19
REMARK    5  A    between atoms: C_15  and  C_20
REMARK    6  A    between atoms: C_21  and  C_25
REMARK                            x       y       z     vdW  Elec       q    Type
REMARK                         _______ _______ _______ _____ _____    ______ ____
ROOT
ATOM      2  O   UNL     1      11.217   7.007   4.067  0.00  0.00    -0.336 OA
ATOM      4  N   UNL     1      10.805   4.828   3.752  0.00  0.00    -0.190 NA
ATOM      5  N   UNL     1      11.595   6.725   2.747  0.00  0.00    -0.056 NA
ATOM     19  C   UNL     1      10.764   5.836   4.586  0.00  0.00    +0.245 A 
ATOM     21  C   UNL     1      11.322   5.422   2.638  0.00  0.00    +0.204 A 
ENDROOT
BRANCH  21  25
ATOM      6  N   UNL     1      10.735   3.906  -0.705  0.00  0.00    -0.221 NA
ATOM     22  C   UNL     1      11.927   3.295  -0.888  0.00  0.00    +0.215 A 
ATOM     25  C   UNL     1      11.555   4.684   1.432  0.00  0.00    +0.041 A 
ATOM     26  C   UNL     1      12.965   3.332   0.029  0.00  0.00    +0.068 A 
ATOM     27  C   UNL     1      12.769   4.042   1.208  0.00  0.00    +0.018 A 
ATOM     28  C   UNL     1      10.579   4.586   0.452  0.00  0.00    +0.126 A 
BRANCH  22   1
ATOM      1  O   UNL     1      12.096   2.603  -2.057  0.00  0.00    -0.473 OA
BRANCH   1  12
ATOM     12  C   UNL     1      11.507   3.164  -3.225  0.00  0.00    +0.175 C 
ATOM     13  C   UNL     1      10.250   2.378  -3.594  0.00  0.00    +0.044 C 
ATOM     14  C   UNL     1      12.525   3.163  -4.365  0.00  0.00    +0.044 C 
ATOM     16  C   UNL     1       9.635   2.881  -4.896  0.00  0.00    +0.004 C 
ATOM     17  C   UNL     1      11.911   3.666  -5.667  0.00  0.00    +0.004 C 
ATOM     18  C   UNL     1      10.653   2.884  -6.034  0.00  0.00    +0.000 C 
ENDBRANCH   1  12
ENDBRANCH  22   1
ENDBRANCH  21  25
BRANCH  19   8
ATOM      3  N   UNL     1      10.904   6.972   6.796  0.00  0.00    -0.287 NA
ATOM      8  C   UNL     1      10.288   5.875   6.024  0.00  0.00    +0.146 C 
ATOM      9  C   UNL     1       8.772   6.117   6.141  0.00  0.00    +0.030 C 
ATOM     10  C   UNL     1       8.632   7.333   7.047  0.00  0.00    +0.017 C 
ATOM     11  C   UNL     1       9.933   7.351   7.824  0.00  0.00    +0.085 C 
BRANCH   3  15
ATOM     15  C   UNL     1      12.196   6.618   7.368  0.00  0.00    +0.121 C 
BRANCH  15  20
ATOM      7  N   UNL     1      15.544   7.939   6.191  0.00  0.00    -0.263 NA
ATOM     20  C   UNL     1      13.277   7.581   6.951  0.00  0.00    -0.015 A 
ATOM     23  C   UNL     1      13.046   8.952   6.931  0.00  0.00    +0.008 A 
ATOM     24  C   UNL     1      14.531   7.129   6.575  0.00  0.00    +0.115 A 
ATOM     29  C   UNL     1      14.063   9.817   6.542  0.00  0.00    +0.020 A 
ATOM     30  C   UNL     1      15.283   9.265   6.184  0.00  0.00    +0.111 A 
ENDBRANCH  15  20
ENDBRANCH   3  15
ENDBRANCH  19   8
TORSDOF 6
ENDMDL
