REMARK  Name = 75367193
REMARK  7 active torsions:
REMARK  status: ('A' for Active; 'I' for Inactive)
REMARK    1  A    between atoms: N_3  and  C_12
REMARK    2  A    between atoms: C_6  and  C_9
REMARK    3  A    between atoms: C_10  and  C_11
REMARK    4  A    between atoms: C_10  and  C_15
REMARK    5  A    between atoms: C_10  and  C_16
REMARK    6  A    between atoms: C_10  and  C_17
REMARK    7  A    between atoms: C_12  and  C_18
REMARK                            x       y       z     vdW  Elec       q    Type
REMARK                         _______ _______ _______ _____ _____    ______ ____
ROOT
ATOM      2  O   UNL     1      -0.249  -4.048   0.942  0.00  0.00    -0.377 OA
ATOM      3  N   UNL     1       0.676  -1.539  -0.082  0.00  0.00    -0.285 NA
ATOM      6  C   UNL     1      -0.666  -2.069  -0.432  0.00  0.00    +0.149 C 
ATOM      7  C   UNL     1      -1.179  -2.995   0.689  0.00  0.00    +0.186 C 
ATOM      8  C   UNL     1       1.590  -2.646   0.252  0.00  0.00    +0.113 C 
ATOM     13  C   UNL     1       1.006  -3.515   1.357  0.00  0.00    +0.175 C 
ENDROOT
BRANCH   6   9
ATOM      4  N   UNL     1      -2.031  -0.072   0.275  0.00  0.00    -0.344 N 
ATOM      5  N   UNL     1      -2.379  -0.788  -1.798  0.00  0.00    -0.239 NA
ATOM      9  C   UNL     1      -1.702  -0.984  -0.688  0.00  0.00    +0.127 A 
ATOM     11  C   UNL     1      -2.978   0.760  -0.254  0.00  0.00    +0.041 A 
ATOM     14  C   UNL     1      -3.176   0.298  -1.534  0.00  0.00    +0.134 A 
ATOM     24  H   UNL     1      -1.641  -0.020   1.207  0.00  0.00    +0.167 HD
BRANCH  11  10
ATOM     10  C   UNL     1      -3.571   1.872   0.504  0.00  0.00    +0.004 C 
ATOM     15  C   UNL     1      -4.331   1.482   1.825  0.00  0.00    +0.017 C 
ATOM     16  C   UNL     1      -2.490   2.912   0.961  0.00  0.00    +0.017 C 
ATOM     17  C   UNL     1      -4.628   2.660  -0.343  0.00  0.00    +0.017 C 
ENDBRANCH  11  10
ENDBRANCH   6   9
BRANCH   3  12
ATOM     12  C   UNL     1       1.259  -0.746  -1.170  0.00  0.00    +0.120 C 
BRANCH  12  18
ATOM      1  F   UNL     1       5.182   2.834   0.711  0.00  0.00    -0.205 F 
ATOM     18  C   UNL     1       2.307   0.211  -0.668  0.00  0.00    -0.033 A 
ATOM     19  C   UNL     1       1.944   1.498  -0.274  0.00  0.00    +0.008 A 
ATOM     20  C   UNL     1       3.641  -0.191  -0.596  0.00  0.00    +0.008 A 
ATOM     21  C   UNL     1       2.915   2.385   0.192  0.00  0.00    +0.038 A 
ATOM     22  C   UNL     1       4.612   0.696  -0.131  0.00  0.00    +0.038 A 
ATOM     23  C   UNL     1       4.249   1.984   0.263  0.00  0.00    +0.123 A 
ENDBRANCH  12  18
ENDBRANCH   3  12
TORSDOF 4
