MODEL 1
REMARK VINA RESULT:      -7.4      0.000      0.000
REMARK  Name = 25314526
REMARK  7 active torsions:
REMARK  status: ('A' for Active; 'I' for Inactive)
REMARK    1  A    between atoms: O_3  and  C_9
REMARK    2  A    between atoms: N_5  and  C_8
REMARK    3  A    between atoms: N_6  and  C_10
REMARK    4  A    between atoms: N_7  and  C_26
REMARK    5  A    between atoms: C_15  and  C_19
REMARK    6  A    between atoms: C_19  and  C_20
REMARK    7  A    between atoms: C_26  and  C_28
REMARK                            x       y       z     vdW  Elec       q    Type
REMARK                         _______ _______ _______ _____ _____    ______ ____
ROOT
ATOM      1  O   UNL     1      13.448   9.364  20.890  0.00  0.00    -0.342 OA
ATOM      2  O   UNL     1      11.862   7.846  21.639  0.00  0.00    -0.347 OA
ATOM      8  C   UNL     1      13.868   7.010  20.580  0.00  0.00    +0.143 C 
ATOM      9  C   UNL     1      13.181   7.048  19.196  0.00  0.00    +0.159 C 
ATOM     10  C   UNL     1      12.757   8.468  18.760  0.00  0.00    +0.136 C 
ATOM     11  C   UNL     1      13.274   8.082  21.510  0.00  0.00    +0.270 C 
ATOM     12  C   UNL     1      12.373   9.378  19.946  0.00  0.00    +0.170 C 
ATOM     16  C   UNL     1      11.245   8.837  20.803  0.00  0.00    +0.196 C 
ENDROOT
BRANCH  10   6
ATOM      4  O   UNL     1      12.524   9.658  16.142  0.00  0.00    -0.253 OA
ATOM      6  N   UNL     1      13.812   9.088  17.988  0.00  0.00    -0.291 N 
ATOM      7  N   UNL     1      14.787  10.167  16.211  0.00  0.00    -0.296 N 
ATOM     21  C   UNL     1      13.606   9.639  16.727  0.00  0.00    +0.300 C 
ATOM     30  H   UNL     1      14.760   9.051  18.350  0.00  0.00    +0.151 HD
ATOM     32  H   UNL     1      15.630  10.124  16.777  0.00  0.00    +0.151 HD
BRANCH   7  26
ATOM     26  C   UNL     1      14.860  10.800  14.916  0.00  0.00    +0.132 C 
BRANCH  26  28
ATOM     28  C   UNL     1      15.765  11.984  15.002  0.00  0.00    -0.016 C 
ATOM     29  C   UNL     1      17.098  11.911  14.906  0.00  0.00    +0.005 C 
ENDBRANCH  26  28
ENDBRANCH   7  26
ENDBRANCH  10   6
BRANCH   8   5
ATOM      5  N   UNL     1      15.309   7.225  20.433  0.00  0.00    -0.293 NA
ATOM     13  C   UNL     1      15.942   7.385  21.749  0.00  0.00    +0.085 C 
ATOM     14  C   UNL     1      15.921   6.121  19.681  0.00  0.00    +0.085 C 
ATOM     15  C   UNL     1      18.141   6.565  20.807  0.00  0.00    -0.004 C 
ATOM     17  C   UNL     1      17.440   7.665  21.610  0.00  0.00    +0.019 C 
ATOM     18  C   UNL     1      17.418   6.357  19.472  0.00  0.00    +0.019 C 
BRANCH  15  19
ATOM     19  C   UNL     1      19.614   6.899  20.587  0.00  0.00    +0.038 C 
BRANCH  19  20
ATOM     20  C   UNL     1      20.515   5.834  21.150  0.00  0.00    -0.047 A 
ATOM     22  C   UNL     1      20.640   4.609  20.495  0.00  0.00    +0.003 A 
ATOM     23  C   UNL     1      21.225   6.073  22.326  0.00  0.00    +0.003 A 
ATOM     24  C   UNL     1      21.475   3.621  21.017  0.00  0.00    +0.000 A 
ATOM     25  C   UNL     1      22.061   5.085  22.849  0.00  0.00    +0.000 A 
ATOM     27  C   UNL     1      22.186   3.859  22.194  0.00  0.00    +0.000 A 
ENDBRANCH  19  20
ENDBRANCH  15  19
ENDBRANCH   8   5
BRANCH   9   3
ATOM      3  O   UNL     1      12.013   6.219  19.265  0.00  0.00    -0.388 OA
ATOM     31  H   UNL     1      11.795   6.098  20.205  0.00  0.00    +0.210 HD
ENDBRANCH   9   3
TORSDOF 7
ENDMDL
MODEL 2
REMARK VINA RESULT:      -7.2     13.089     14.967
REMARK  Name = 25314526
REMARK  7 active torsions:
REMARK  status: ('A' for Active; 'I' for Inactive)
REMARK    1  A    between atoms: O_3  and  C_9
REMARK    2  A    between atoms: N_5  and  C_8
REMARK    3  A    between atoms: N_6  and  C_10
REMARK    4  A    between atoms: N_7  and  C_26
REMARK    5  A    between atoms: C_15  and  C_19
REMARK    6  A    between atoms: C_19  and  C_20
REMARK    7  A    between atoms: C_26  and  C_28
REMARK                            x       y       z     vdW  Elec       q    Type
REMARK                         _______ _______ _______ _____ _____    ______ ____
ROOT
ATOM      1  O   UNL     1      10.743   8.536   5.476  0.00  0.00    -0.342 OA
ATOM      2  O   UNL     1       9.996   8.321   7.661  0.00  0.00    -0.347 OA
ATOM      8  C   UNL     1      12.316   7.845   7.168  0.00  0.00    +0.143 C 
ATOM      9  C   UNL     1      11.978   6.360   6.905  0.00  0.00    +0.159 C 
ATOM     10  C   UNL     1      11.005   6.151   5.724  0.00  0.00    +0.136 C 
ATOM     11  C   UNL     1      11.105   8.740   6.848  0.00  0.00    +0.270 C 
ATOM     12  C   UNL     1      10.004   7.313   5.549  0.00  0.00    +0.170 C 
ATOM     16  C   UNL     1       9.146   7.581   6.771  0.00  0.00    +0.196 C 
ENDROOT
BRANCH  10   6
ATOM      4  O   UNL     1      10.349   4.346   3.571  0.00  0.00    -0.253 OA
ATOM      6  N   UNL     1      11.745   5.954   4.496  0.00  0.00    -0.291 N 
ATOM      7  N   UNL     1      12.242   5.066   2.438  0.00  0.00    -0.296 N 
ATOM     21  C   UNL     1      11.352   5.057   3.509  0.00  0.00    +0.300 C 
ATOM     30  H   UNL     1      12.632   6.436   4.385  0.00  0.00    +0.151 HD
ATOM     32  H   UNL     1      13.032   5.704   2.466  0.00  0.00    +0.151 HD
BRANCH   7  26
ATOM     26  C   UNL     1      12.074   4.229   1.274  0.00  0.00    +0.132 C 
BRANCH  26  28
ATOM     28  C   UNL     1      13.199   3.250   1.210  0.00  0.00    -0.016 C 
ATOM     29  C   UNL     1      14.454   3.532   1.580  0.00  0.00    +0.005 C 
ENDBRANCH  26  28
ENDBRANCH   7  26
ENDBRANCH  10   6
BRANCH   8   5
ATOM      5  N   UNL     1      13.463   8.253   6.355  0.00  0.00    -0.293 NA
ATOM     13  C   UNL     1      13.938   9.581   6.767  0.00  0.00    +0.085 C 
ATOM     14  C   UNL     1      14.537   7.255   6.442  0.00  0.00    +0.085 C 
ATOM     15  C   UNL     1      16.253   9.034   5.907  0.00  0.00    -0.004 C 
ATOM     17  C   UNL     1      15.103  10.046   5.890  0.00  0.00    +0.019 C 
ATOM     18  C   UNL     1      15.722   7.641   5.554  0.00  0.00    +0.019 C 
BRANCH  15  19
ATOM     19  C   UNL     1      17.368   9.454   4.954  0.00  0.00    +0.038 C 
BRANCH  19  20
ATOM     20  C   UNL     1      18.659   8.743   5.263  0.00  0.00    -0.047 A 
ATOM     22  C   UNL     1      19.274   7.960   4.286  0.00  0.00    +0.003 A 
ATOM     23  C   UNL     1      19.239   8.868   6.524  0.00  0.00    +0.003 A 
ATOM     24  C   UNL     1      20.469   7.301   4.571  0.00  0.00    +0.000 A 
ATOM     25  C   UNL     1      20.435   8.209   6.810  0.00  0.00    +0.000 A 
ATOM     27  C   UNL     1      21.050   7.425   5.833  0.00  0.00    +0.000 A 
ENDBRANCH  19  20
ENDBRANCH  15  19
ENDBRANCH   8   5
BRANCH   9   3
ATOM      3  O   UNL     1      11.379   5.830   8.095  0.00  0.00    -0.388 OA
ATOM     31  H   UNL     1      11.488   6.492   8.798  0.00  0.00    +0.210 HD
ENDBRANCH   9   3
TORSDOF 7
ENDMDL
MODEL 3
REMARK VINA RESULT:      -7.1      2.474      4.778
REMARK  Name = 25314526
REMARK  7 active torsions:
REMARK  status: ('A' for Active; 'I' for Inactive)
REMARK    1  A    between atoms: O_3  and  C_9
REMARK    2  A    between atoms: N_5  and  C_8
REMARK    3  A    between atoms: N_6  and  C_10
REMARK    4  A    between atoms: N_7  and  C_26
REMARK    5  A    between atoms: C_15  and  C_19
REMARK    6  A    between atoms: C_19  and  C_20
REMARK    7  A    between atoms: C_26  and  C_28
REMARK                            x       y       z     vdW  Elec       q    Type
REMARK                         _______ _______ _______ _____ _____    ______ ____
ROOT
ATOM      1  O   UNL     1      12.038   7.353  19.325  0.00  0.00    -0.342 OA
ATOM      2  O   UNL     1      11.876   7.977  17.097  0.00  0.00    -0.347 OA
ATOM      8  C   UNL     1      13.920   8.457  18.297  0.00  0.00    +0.143 C 
ATOM      9  C   UNL     1      13.371   9.837  18.727  0.00  0.00    +0.159 C 
ATOM     10  C   UNL     1      12.104   9.747  19.605  0.00  0.00    +0.136 C 
ATOM     11  C   UNL     1      12.770   7.456  18.095  0.00  0.00    +0.270 C 
ATOM     12  C   UNL     1      11.220   8.525  19.276  0.00  0.00    +0.170 C 
ATOM     16  C   UNL     1      10.749   8.473  17.835  0.00  0.00    +0.196 C 
ENDROOT
BRANCH  10   6
ATOM      4  O   UNL     1      11.843  11.902  21.506  0.00  0.00    -0.253 OA
ATOM      6  N   UNL     1      12.469   9.723  21.006  0.00  0.00    -0.291 N 
ATOM      7  N   UNL     1      12.739  10.521  23.141  0.00  0.00    -0.296 N 
ATOM     21  C   UNL     1      12.307  10.816  21.851  0.00  0.00    +0.300 C 
ATOM     30  H   UNL     1      12.935   8.897  21.368  0.00  0.00    +0.151 HD
ATOM     32  H   UNL     1      13.088   9.588  23.338  0.00  0.00    +0.151 HD
BRANCH   7  26
ATOM     26  C   UNL     1      12.684  11.477  24.222  0.00  0.00    +0.132 C 
BRANCH  26  28
ATOM     28  C   UNL     1      11.303  11.496  24.787  0.00  0.00    -0.016 C 
ATOM     29  C   UNL     1      10.662  12.613  25.151  0.00  0.00    +0.005 C 
ENDBRANCH  26  28
ENDBRANCH   7  26
ENDBRANCH  10   6
BRANCH   8   5
ATOM      5  N   UNL     1      14.849   7.948  19.309  0.00  0.00    -0.293 NA
ATOM     13  C   UNL     1      15.641   6.837  18.765  0.00  0.00    +0.085 C 
ATOM     14  C   UNL     1      15.715   9.026  19.803  0.00  0.00    +0.085 C 
ATOM     15  C   UNL     1      17.495   7.337  20.412  0.00  0.00    -0.004 C 
ATOM     17  C   UNL     1      16.578   6.258  19.828  0.00  0.00    +0.019 C 
ATOM     18  C   UNL     1      16.654   8.522  20.899  0.00  0.00    +0.019 C 
BRANCH  15  19
ATOM     19  C   UNL     1      18.357   6.775  21.539  0.00  0.00    +0.038 C 
BRANCH  19  20
ATOM     20  C   UNL     1      19.803   6.675  21.135  0.00  0.00    -0.047 A 
ATOM     22  C   UNL     1      20.609   7.814  21.140  0.00  0.00    +0.003 A 
ATOM     23  C   UNL     1      20.337   5.444  20.755  0.00  0.00    +0.003 A 
ATOM     24  C   UNL     1      21.949   7.721  20.765  0.00  0.00    +0.000 A 
ATOM     25  C   UNL     1      21.678   5.351  20.380  0.00  0.00    +0.000 A 
ATOM     27  C   UNL     1      22.484   6.490  20.385  0.00  0.00    +0.000 A 
ENDBRANCH  19  20
ENDBRANCH  15  19
ENDBRANCH   8   5
BRANCH   9   3
ATOM      3  O   UNL     1      13.055  10.571  17.536  0.00  0.00    -0.388 OA
ATOM     31  H   UNL     1      13.257  11.506  17.706  0.00  0.00    +0.210 HD
ENDBRANCH   9   3
TORSDOF 7
ENDMDL
MODEL 4
REMARK VINA RESULT:      -6.5     26.827     29.107
REMARK  Name = 25314526
REMARK  7 active torsions:
REMARK  status: ('A' for Active; 'I' for Inactive)
REMARK    1  A    between atoms: O_3  and  C_9
REMARK    2  A    between atoms: N_5  and  C_8
REMARK    3  A    between atoms: N_6  and  C_10
REMARK    4  A    between atoms: N_7  and  C_26
REMARK    5  A    between atoms: C_15  and  C_19
REMARK    6  A    between atoms: C_19  and  C_20
REMARK    7  A    between atoms: C_26  and  C_28
REMARK                            x       y       z     vdW  Elec       q    Type
REMARK                         _______ _______ _______ _____ _____    ______ ____
ROOT
ATOM      1  O   UNL     1      -4.912 -10.167  18.169  0.00  0.00    -0.342 OA
ATOM      2  O   UNL     1      -4.663 -12.155  19.337  0.00  0.00    -0.347 OA
ATOM      8  C   UNL     1      -4.439 -12.181  16.930  0.00  0.00    +0.143 C 
ATOM      9  C   UNL     1      -5.950 -12.462  16.769  0.00  0.00    +0.159 C 
ATOM     10  C   UNL     1      -6.847 -11.335  17.328  0.00  0.00    +0.136 C 
ATOM     11  C   UNL     1      -4.169 -11.393  18.224  0.00  0.00    +0.270 C 
ATOM     12  C   UNL     1      -6.223 -10.605  18.536  0.00  0.00    +0.170 C 
ATOM     16  C   UNL     1      -5.894 -11.512  19.706  0.00  0.00    +0.196 C 
ENDROOT
BRANCH  10   6
ATOM      4  O   UNL     1      -8.338 -11.828  14.908  0.00  0.00    -0.253 OA
ATOM      6  N   UNL     1      -7.156 -10.380  16.285  0.00  0.00    -0.291 N 
ATOM      7  N   UNL     1      -8.036  -9.606  14.311  0.00  0.00    -0.296 N 
ATOM     21  C   UNL     1      -7.885 -10.709  15.147  0.00  0.00    +0.300 C 
ATOM     30  H   UNL     1      -6.758  -9.449  16.351  0.00  0.00    +0.151 HD
ATOM     32  H   UNL     1      -7.645  -8.715  14.603  0.00  0.00    +0.151 HD
BRANCH   7  26
ATOM     26  C   UNL     1      -8.752  -9.665  13.059  0.00  0.00    +0.132 C 
BRANCH  26  28
ATOM     28  C   UNL     1      -7.770  -9.686  11.936  0.00  0.00    -0.016 C 
ATOM     29  C   UNL     1      -6.616  -9.009  11.942  0.00  0.00    +0.005 C 
ENDBRANCH  26  28
ENDBRANCH   7  26
ENDBRANCH  10   6
BRANCH   8   5
ATOM      5  N   UNL     1      -3.941 -11.427  15.777  0.00  0.00    -0.293 NA
ATOM     13  C   UNL     1      -2.472 -11.423  15.762  0.00  0.00    +0.085 C 
ATOM     14  C   UNL     1      -4.483 -11.977  14.528  0.00  0.00    +0.085 C 
ATOM     15  C   UNL     1      -2.486 -11.093  13.254  0.00  0.00    -0.004 C 
ATOM     17  C   UNL     1      -1.935 -10.593  14.593  0.00  0.00    +0.019 C 
ATOM     18  C   UNL     1      -4.015 -11.167  13.318  0.00  0.00    +0.019 C 
BRANCH  15  19
ATOM     19  C   UNL     1      -2.027 -10.201  12.104  0.00  0.00    +0.038 C 
BRANCH  19  20
ATOM     20  C   UNL     1      -2.944 -10.312  10.916  0.00  0.00    -0.047 A 
ATOM     22  C   UNL     1      -3.342  -9.162  10.233  0.00  0.00    +0.003 A 
ATOM     23  C   UNL     1      -3.395 -11.563  10.498  0.00  0.00    +0.003 A 
ATOM     24  C   UNL     1      -4.192  -9.265   9.132  0.00  0.00    +0.000 A 
ATOM     25  C   UNL     1      -4.245 -11.666   9.396  0.00  0.00    +0.000 A 
ATOM     27  C   UNL     1      -4.644 -10.516   8.713  0.00  0.00    +0.000 A 
ENDBRANCH  19  20
ENDBRANCH  15  19
ENDBRANCH   8   5
BRANCH   9   3
ATOM      3  O   UNL     1      -6.245 -13.677  17.470  0.00  0.00    -0.388 OA
ATOM     31  H   UNL     1      -5.457 -14.243  17.421  0.00  0.00    +0.210 HD
ENDBRANCH   9   3
TORSDOF 7
ENDMDL
MODEL 5
REMARK VINA RESULT:      -6.4     27.160     29.401
REMARK  Name = 25314526
REMARK  7 active torsions:
REMARK  status: ('A' for Active; 'I' for Inactive)
REMARK    1  A    between atoms: O_3  and  C_9
REMARK    2  A    between atoms: N_5  and  C_8
REMARK    3  A    between atoms: N_6  and  C_10
REMARK    4  A    between atoms: N_7  and  C_26
REMARK    5  A    between atoms: C_15  and  C_19
REMARK    6  A    between atoms: C_19  and  C_20
REMARK    7  A    between atoms: C_26  and  C_28
REMARK                            x       y       z     vdW  Elec       q    Type
REMARK                         _______ _______ _______ _____ _____    ______ ____
ROOT
ATOM      1  O   UNL     1      -4.741 -10.297  18.111  0.00  0.00    -0.342 OA
ATOM      2  O   UNL     1      -4.437 -12.391  19.061  0.00  0.00    -0.347 OA
ATOM      8  C   UNL     1      -4.572 -12.210  16.653  0.00  0.00    +0.143 C 
ATOM      9  C   UNL     1      -6.104 -12.409  16.702  0.00  0.00    +0.159 C 
ATOM     10  C   UNL     1      -6.842 -11.299  17.482  0.00  0.00    +0.136 C 
ATOM     11  C   UNL     1      -4.070 -11.554  17.951  0.00  0.00    +0.270 C 
ATOM     12  C   UNL     1      -6.007 -10.708  18.636  0.00  0.00    +0.170 C 
ATOM     16  C   UNL     1      -5.560 -11.730  19.664  0.00  0.00    +0.196 C 
ENDROOT
BRANCH  10   6
ATOM      4  O   UNL     1      -9.518 -10.303  17.062  0.00  0.00    -0.253 OA
ATOM      6  N   UNL     1      -7.248 -10.241  16.580  0.00  0.00    -0.291 N 
ATOM      7  N   UNL     1      -8.676  -8.797  15.510  0.00  0.00    -0.296 N 
ATOM     21  C   UNL     1      -8.568  -9.825  16.442  0.00  0.00    +0.300 C 
ATOM     30  H   UNL     1      -6.548  -9.838  15.965  0.00  0.00    +0.151 HD
ATOM     32  H   UNL     1      -7.832  -8.452  15.063  0.00  0.00    +0.151 HD
BRANCH   7  26
ATOM     26  C   UNL     1      -9.935  -8.177  15.172  0.00  0.00    +0.132 C 
BRANCH  26  28
ATOM     28  C   UNL     1     -10.089  -6.921  15.964  0.00  0.00    -0.016 C 
ATOM     29  C   UNL     1     -11.207  -6.186  15.986  0.00  0.00    +0.005 C 
ENDBRANCH  26  28
ENDBRANCH   7  26
ENDBRANCH  10   6
BRANCH   8   5
ATOM      5  N   UNL     1      -4.208 -11.379  15.504  0.00  0.00    -0.293 NA
ATOM     13  C   UNL     1      -2.770 -11.493  15.223  0.00  0.00    +0.085 C 
ATOM     14  C   UNL     1      -5.009 -11.745  14.329  0.00  0.00    +0.085 C 
ATOM     15  C   UNL     1      -3.183 -10.893  12.801  0.00  0.00    -0.004 C 
ATOM     17  C   UNL     1      -2.363 -10.587  14.058  0.00  0.00    +0.019 C 
ATOM     18  C   UNL     1      -4.678 -10.849  13.134  0.00  0.00    +0.019 C 
BRANCH  15  19
ATOM     19  C   UNL     1      -2.843  -9.922  11.674  0.00  0.00    +0.038 C 
BRANCH  19  20
ATOM     20  C   UNL     1      -3.588 -10.256  10.409  0.00  0.00    -0.047 A 
ATOM     22  C   UNL     1      -3.722 -11.587  10.011  0.00  0.00    +0.003 A 
ATOM     23  C   UNL     1      -4.142  -9.237   9.637  0.00  0.00    +0.003 A 
ATOM     24  C   UNL     1      -4.411 -11.897   8.839  0.00  0.00    +0.000 A 
ATOM     25  C   UNL     1      -4.832  -9.547   8.464  0.00  0.00    +0.000 A 
ATOM     27  C   UNL     1      -4.967 -10.877   8.065  0.00  0.00    +0.000 A 
ENDBRANCH  19  20
ENDBRANCH  15  19
ENDBRANCH   8   5
BRANCH   9   3
ATOM      3  O   UNL     1      -6.362 -13.667  17.338  0.00  0.00    -0.388 OA
ATOM     31  H   UNL     1      -7.145 -13.556  17.902  0.00  0.00    +0.210 HD
ENDBRANCH   9   3
TORSDOF 7
ENDMDL
MODEL 6
REMARK VINA RESULT:      -6.3      1.423      2.107
REMARK  Name = 25314526
REMARK  7 active torsions:
REMARK  status: ('A' for Active; 'I' for Inactive)
REMARK    1  A    between atoms: O_3  and  C_9
REMARK    2  A    between atoms: N_5  and  C_8
REMARK    3  A    between atoms: N_6  and  C_10
REMARK    4  A    between atoms: N_7  and  C_26
REMARK    5  A    between atoms: C_15  and  C_19
REMARK    6  A    between atoms: C_19  and  C_20
REMARK    7  A    between atoms: C_26  and  C_28
REMARK                            x       y       z     vdW  Elec       q    Type
REMARK                         _______ _______ _______ _____ _____    ______ ____
ROOT
ATOM      1  O   UNL     1      13.322   9.006  20.861  0.00  0.00    -0.342 OA
ATOM      2  O   UNL     1      11.646   7.404  20.793  0.00  0.00    -0.347 OA
ATOM      8  C   UNL     1      13.768   6.919  19.738  0.00  0.00    +0.143 C 
ATOM      9  C   UNL     1      13.263   7.508  18.400  0.00  0.00    +0.159 C 
ATOM     10  C   UNL     1      12.904   9.008  18.486  0.00  0.00    +0.136 C 
ATOM     11  C   UNL     1      13.064   7.597  20.927  0.00  0.00    +0.270 C 
ATOM     12  C   UNL     1      12.377   9.429  19.874  0.00  0.00    +0.170 C 
ATOM     16  C   UNL     1      11.146   8.666  20.326  0.00  0.00    +0.196 C 
ENDROOT
BRANCH  10   6
ATOM      4  O   UNL     1      13.398  10.318  15.963  0.00  0.00    -0.253 OA
ATOM      6  N   UNL     1      14.052   9.815  18.133  0.00  0.00    -0.291 N 
ATOM      7  N   UNL     1      15.398  11.128  16.816  0.00  0.00    -0.296 N 
ATOM     21  C   UNL     1      14.207  10.411  16.886  0.00  0.00    +0.300 C 
ATOM     30  H   UNL     1      14.815   9.887  18.800  0.00  0.00    +0.151 HD
ATOM     32  H   UNL     1      15.994  11.167  17.637  0.00  0.00    +0.151 HD
BRANCH   7  26
ATOM     26  C   UNL     1      15.810  11.847  15.633  0.00  0.00    +0.132 C 
BRANCH  26  28
ATOM     28  C   UNL     1      16.986  12.703  15.967  0.00  0.00    -0.016 C 
ATOM     29  C   UNL     1      17.374  12.982  17.217  0.00  0.00    +0.005 C 
ENDBRANCH  26  28
ENDBRANCH   7  26
ENDBRANCH  10   6
BRANCH   8   5
ATOM      5  N   UNL     1      15.217   7.098  19.852  0.00  0.00    -0.293 NA
ATOM     13  C   UNL     1      15.637   7.005  21.256  0.00  0.00    +0.085 C 
ATOM     14  C   UNL     1      15.923   6.115  19.020  0.00  0.00    +0.085 C 
ATOM     15  C   UNL     1      17.946   6.270  20.531  0.00  0.00    -0.004 C 
ATOM     17  C   UNL     1      17.142   7.244  21.398  0.00  0.00    +0.019 C 
ATOM     18  C   UNL     1      17.438   6.323  19.086  0.00  0.00    +0.019 C 
BRANCH  15  19
ATOM     19  C   UNL     1      19.439   6.577  20.600  0.00  0.00    +0.038 C 
BRANCH  19  20
ATOM     20  C   UNL     1      19.793   7.331  21.853  0.00  0.00    -0.047 A 
ATOM     22  C   UNL     1      19.784   8.726  21.853  0.00  0.00    +0.003 A 
ATOM     23  C   UNL     1      20.132   6.635  23.013  0.00  0.00    +0.003 A 
ATOM     24  C   UNL     1      20.113   9.425  23.014  0.00  0.00    +0.000 A 
ATOM     25  C   UNL     1      20.461   7.335  24.174  0.00  0.00    +0.000 A 
ATOM     27  C   UNL     1      20.451   8.730  24.175  0.00  0.00    +0.000 A 
ENDBRANCH  19  20
ENDBRANCH  15  19
ENDBRANCH   8   5
BRANCH   9   3
ATOM      3  O   UNL     1      12.092   6.776  18.016  0.00  0.00    -0.388 OA
ATOM     31  H   UNL     1      11.322   7.347  18.176  0.00  0.00    +0.210 HD
ENDBRANCH   9   3
TORSDOF 7
ENDMDL
MODEL 7
REMARK VINA RESULT:      -6.0     28.424     30.096
REMARK  Name = 25314526
REMARK  7 active torsions:
REMARK  status: ('A' for Active; 'I' for Inactive)
REMARK    1  A    between atoms: O_3  and  C_9
REMARK    2  A    between atoms: N_5  and  C_8
REMARK    3  A    between atoms: N_6  and  C_10
REMARK    4  A    between atoms: N_7  and  C_26
REMARK    5  A    between atoms: C_15  and  C_19
REMARK    6  A    between atoms: C_19  and  C_20
REMARK    7  A    between atoms: C_26  and  C_28
REMARK                            x       y       z     vdW  Elec       q    Type
REMARK                         _______ _______ _______ _____ _____    ______ ____
ROOT
ATOM      1  O   UNL     1      -4.848 -10.384  18.064  0.00  0.00    -0.342 OA
ATOM      2  O   UNL     1      -4.465 -12.634  18.478  0.00  0.00    -0.347 OA
ATOM      8  C   UNL     1      -5.940 -12.016  16.664  0.00  0.00    +0.143 C 
ATOM      9  C   UNL     1      -7.159 -12.046  17.614  0.00  0.00    +0.159 C 
ATOM     10  C   UNL     1      -7.068 -11.016  18.761  0.00  0.00    +0.136 C 
ATOM     11  C   UNL     1      -4.658 -11.660  17.438  0.00  0.00    +0.270 C 
ATOM     12  C   UNL     1      -5.620 -10.737  19.215  0.00  0.00    +0.170 C 
ATOM     16  C   UNL     1      -4.869 -11.969  19.684  0.00  0.00    +0.196 C 
ENDROOT
BRANCH  10   6
ATOM      4  O   UNL     1      -9.826 -10.645  17.999  0.00  0.00    -0.253 OA
ATOM      6  N   UNL     1      -7.706  -9.776  18.370  0.00  0.00    -0.291 N 
ATOM      7  N   UNL     1      -9.399  -8.386  17.685  0.00  0.00    -0.296 N 
ATOM     21  C   UNL     1      -9.048  -9.692  18.017  0.00  0.00    +0.300 C 
ATOM     30  H   UNL     1      -7.128  -8.947  18.276  0.00  0.00    +0.151 HD
ATOM     32  H   UNL     1      -8.693  -7.659  17.749  0.00  0.00    +0.151 HD
BRANCH   7  26
ATOM     26  C   UNL     1     -10.734  -8.014  17.280  0.00  0.00    +0.132 C 
BRANCH  26  28
ATOM     28  C   UNL     1     -10.662  -7.266  15.991  0.00  0.00    -0.016 C 
ATOM     29  C   UNL     1     -11.058  -5.996  15.843  0.00  0.00    +0.005 C 
ENDBRANCH  26  28
ENDBRANCH   7  26
ENDBRANCH  10   6
BRANCH   8   5
ATOM      5  N   UNL     1      -6.159 -11.040  15.594  0.00  0.00    -0.293 NA
ATOM     13  C   UNL     1      -5.112 -11.155  14.571  0.00  0.00    +0.085 C 
ATOM     14  C   UNL     1      -7.495 -11.210  15.007  0.00  0.00    +0.085 C 
ATOM     15  C   UNL     1      -6.685 -10.203  12.834  0.00  0.00    -0.004 C 
ATOM     17  C   UNL     1      -5.296 -10.104  13.473  0.00  0.00    +0.019 C 
ATOM     18  C   UNL     1      -7.760 -10.163  13.924  0.00  0.00    +0.019 C 
BRANCH  15  19
ATOM     19  C   UNL     1      -6.898  -9.092  11.810  0.00  0.00    +0.038 C 
BRANCH  19  20
ATOM     20  C   UNL     1      -6.138  -9.354  10.539  0.00  0.00    -0.047 A 
ATOM     22  C   UNL     1      -4.971  -8.641  10.264  0.00  0.00    +0.003 A 
ATOM     23  C   UNL     1      -6.600 -10.310   9.635  0.00  0.00    +0.003 A 
ATOM     24  C   UNL     1      -4.267  -8.883   9.085  0.00  0.00    +0.000 A 
ATOM     25  C   UNL     1      -5.896 -10.553   8.455  0.00  0.00    +0.000 A 
ATOM     27  C   UNL     1      -4.728  -9.840   8.181  0.00  0.00    +0.000 A 
ENDBRANCH  19  20
ENDBRANCH  15  19
ENDBRANCH   8   5
BRANCH   9   3
ATOM      3  O   UNL     1      -7.238 -13.360  18.181  0.00  0.00    -0.388 OA
ATOM     31  H   UNL     1      -8.178 -13.605  18.224  0.00  0.00    +0.210 HD
ENDBRANCH   9   3
TORSDOF 7
ENDMDL
MODEL 8
REMARK VINA RESULT:      -6.0     27.955     30.565
REMARK  Name = 25314526
REMARK  7 active torsions:
REMARK  status: ('A' for Active; 'I' for Inactive)
REMARK    1  A    between atoms: O_3  and  C_9
REMARK    2  A    between atoms: N_5  and  C_8
REMARK    3  A    between atoms: N_6  and  C_10
REMARK    4  A    between atoms: N_7  and  C_26
REMARK    5  A    between atoms: C_15  and  C_19
REMARK    6  A    between atoms: C_19  and  C_20
REMARK    7  A    between atoms: C_26  and  C_28
REMARK                            x       y       z     vdW  Elec       q    Type
REMARK                         _______ _______ _______ _____ _____    ______ ____
ROOT
ATOM      1  O   UNL     1     -10.282 -10.405  20.348  0.00  0.00    -0.342 OA
ATOM      2  O   UNL     1     -11.249 -12.511  20.432  0.00  0.00    -0.347 OA
ATOM      8  C   UNL     1      -9.607 -12.049  18.718  0.00  0.00    +0.143 C 
ATOM      9  C   UNL     1     -10.717 -11.576  17.751  0.00  0.00    +0.159 C 
ATOM     10  C   UNL     1     -11.491 -10.341  18.263  0.00  0.00    +0.136 C 
ATOM     11  C   UNL     1     -10.023 -11.805  20.179  0.00  0.00    +0.270 C 
ATOM     12  C   UNL     1     -11.598 -10.285  19.801  0.00  0.00    +0.170 C 
ATOM     16  C   UNL     1     -12.266 -11.497  20.420  0.00  0.00    +0.196 C 
ENDROOT
BRANCH  10   6
ATOM      4  O   UNL     1     -12.811  -8.121  16.977  0.00  0.00    -0.253 OA
ATOM      6  N   UNL     1     -10.875  -9.127  17.770  0.00  0.00    -0.291 N 
ATOM      7  N   UNL     1     -10.758  -7.058  16.783  0.00  0.00    -0.296 N 
ATOM     21  C   UNL     1     -11.595  -8.105  17.160  0.00  0.00    +0.300 C 
ATOM     30  H   UNL     1      -9.863  -9.053  17.802  0.00  0.00    +0.151 HD
ATOM     32  H   UNL     1      -9.767  -7.124  16.995  0.00  0.00    +0.151 HD
BRANCH   7  26
ATOM     26  C   UNL     1     -11.242  -5.866  16.127  0.00  0.00    +0.132 C 
BRANCH  26  28
ATOM     28  C   UNL     1     -11.583  -6.192  14.712  0.00  0.00    -0.016 C 
ATOM     29  C   UNL     1     -12.672  -5.733  14.083  0.00  0.00    +0.005 C 
ENDBRANCH  26  28
ENDBRANCH   7  26
ENDBRANCH  10   6
BRANCH   8   5
ATOM      5  N   UNL     1      -8.356 -11.343  18.434  0.00  0.00    -0.293 NA
ATOM     13  C   UNL     1      -7.235 -11.980  19.136  0.00  0.00    +0.085 C 
ATOM     14  C   UNL     1      -8.113 -11.288  16.986  0.00  0.00    +0.085 C 
ATOM     15  C   UNL     1      -5.625 -11.098  17.397  0.00  0.00    -0.004 C 
ATOM     17  C   UNL     1      -5.929 -11.221  18.893  0.00  0.00    +0.019 C 
ATOM     18  C   UNL     1      -6.837 -10.506  16.670  0.00  0.00    +0.019 C 
BRANCH  15  19
ATOM     19  C   UNL     1      -4.376 -10.255  17.157  0.00  0.00    +0.038 C 
BRANCH  19  20
ATOM     20  C   UNL     1      -3.424 -10.931  16.207  0.00  0.00    -0.047 A 
ATOM     22  C   UNL     1      -2.100 -10.499  16.122  0.00  0.00    +0.003 A 
ATOM     23  C   UNL     1      -3.866 -11.988  15.412  0.00  0.00    +0.003 A 
ATOM     24  C   UNL     1      -1.219 -11.124  15.241  0.00  0.00    +0.000 A 
ATOM     25  C   UNL     1      -2.984 -12.614  14.531  0.00  0.00    +0.000 A 
ATOM     27  C   UNL     1      -1.660 -12.182  14.445  0.00  0.00    +0.000 A 
ENDBRANCH  19  20
ENDBRANCH  15  19
ENDBRANCH   8   5
BRANCH   9   3
ATOM      3  O   UNL     1     -11.639 -12.660  17.581  0.00  0.00    -0.388 OA
ATOM     31  H   UNL     1     -11.378 -13.367  18.195  0.00  0.00    +0.210 HD
ENDBRANCH   9   3
TORSDOF 7
ENDMDL
MODEL 9
REMARK VINA RESULT:      -6.0     27.982     31.513
REMARK  Name = 25314526
REMARK  7 active torsions:
REMARK  status: ('A' for Active; 'I' for Inactive)
REMARK    1  A    between atoms: O_3  and  C_9
REMARK    2  A    between atoms: N_5  and  C_8
REMARK    3  A    between atoms: N_6  and  C_10
REMARK    4  A    between atoms: N_7  and  C_26
REMARK    5  A    between atoms: C_15  and  C_19
REMARK    6  A    between atoms: C_19  and  C_20
REMARK    7  A    between atoms: C_26  and  C_28
REMARK                            x       y       z     vdW  Elec       q    Type
REMARK                         _______ _______ _______ _____ _____    ______ ____
ROOT
ATOM      1  O   UNL     1     -15.755   4.480  24.616  0.00  0.00    -0.342 OA
ATOM      2  O   UNL     1     -17.130   3.059  23.402  0.00  0.00    -0.347 OA
ATOM      8  C   UNL     1     -16.143   4.964  22.286  0.00  0.00    +0.143 C 
ATOM      9  C   UNL     1     -17.364   5.839  22.650  0.00  0.00    +0.159 C 
ATOM     10  C   UNL     1     -17.567   6.008  24.172  0.00  0.00    +0.136 C 
ATOM     11  C   UNL     1     -15.937   3.858  23.336  0.00  0.00    +0.270 C 
ATOM     12  C   UNL     1     -17.103   4.782  24.987  0.00  0.00    +0.170 C 
ATOM     16  C   UNL     1     -17.792   3.486  24.603  0.00  0.00    +0.196 C 
ENDROOT
BRANCH  10   6
ATOM      4  O   UNL     1     -18.570   7.985  26.017  0.00  0.00    -0.253 OA
ATOM      6  N   UNL     1     -16.880   7.193  24.637  0.00  0.00    -0.291 N 
ATOM      7  N   UNL     1     -16.570   9.143  25.810  0.00  0.00    -0.296 N 
ATOM     21  C   UNL     1     -17.445   8.095  25.533  0.00  0.00    +0.300 C 
ATOM     30  H   UNL     1     -15.975   7.416  24.234  0.00  0.00    +0.151 HD
ATOM     32  H   UNL     1     -15.650   9.138  25.378  0.00  0.00    +0.151 HD
BRANCH   7  26
ATOM     26  C   UNL     1     -16.902  10.222  26.710  0.00  0.00    +0.132 C 
BRANCH  26  28
ATOM     28  C   UNL     1     -16.030  10.136  27.918  0.00  0.00    -0.016 C 
ATOM     29  C   UNL     1     -14.715  10.380  27.907  0.00  0.00    +0.005 C 
ENDBRANCH  26  28
ENDBRANCH   7  26
ENDBRANCH  10   6
BRANCH   8   5
ATOM      5  N   UNL     1     -14.939   5.792  22.196  0.00  0.00    -0.293 NA
ATOM     13  C   UNL     1     -13.769   4.965  21.872  0.00  0.00    +0.085 C 
ATOM     14  C   UNL     1     -15.122   6.862  21.206  0.00  0.00    +0.085 C 
ATOM     15  C   UNL     1     -12.623   6.967  20.834  0.00  0.00    -0.004 C 
ATOM     17  C   UNL     1     -12.492   5.808  21.828  0.00  0.00    +0.019 C 
ATOM     18  C   UNL     1     -13.893   7.769  21.138  0.00  0.00    +0.019 C 
BRANCH  15  19
ATOM     19  C   UNL     1     -11.387   7.861  20.867  0.00  0.00    +0.038 C 
BRANCH  19  20
ATOM     20  C   UNL     1     -11.015   8.344  19.491  0.00  0.00    -0.047 A 
ATOM     22  C   UNL     1     -10.392   9.583  19.332  0.00  0.00    +0.003 A 
ATOM     23  C   UNL     1     -11.293   7.555  18.376  0.00  0.00    +0.003 A 
ATOM     24  C   UNL     1     -10.047  10.031  18.058  0.00  0.00    +0.000 A 
ATOM     25  C   UNL     1     -10.948   8.003  17.100  0.00  0.00    +0.000 A 
ATOM     27  C   UNL     1     -10.325   9.242  16.941  0.00  0.00    +0.000 A 
ENDBRANCH  19  20
ENDBRANCH  15  19
ENDBRANCH   8   5
BRANCH   9   3
ATOM      3  O   UNL     1     -18.529   5.213  22.096  0.00  0.00    -0.388 OA
ATOM     31  H   UNL     1     -18.862   5.788  21.387  0.00  0.00    +0.210 HD
ENDBRANCH   9   3
TORSDOF 7
ENDMDL
MODEL 10
REMARK VINA RESULT:      -5.9     33.302     35.118
REMARK  Name = 25314526
REMARK  7 active torsions:
REMARK  status: ('A' for Active; 'I' for Inactive)
REMARK    1  A    between atoms: O_3  and  C_9
REMARK    2  A    between atoms: N_5  and  C_8
REMARK    3  A    between atoms: N_6  and  C_10
REMARK    4  A    between atoms: N_7  and  C_26
REMARK    5  A    between atoms: C_15  and  C_19
REMARK    6  A    between atoms: C_19  and  C_20
REMARK    7  A    between atoms: C_26  and  C_28
REMARK                            x       y       z     vdW  Elec       q    Type
REMARK                         _______ _______ _______ _____ _____    ______ ____
ROOT
ATOM      1  O   UNL     1      -4.287 -13.171  -2.416  0.00  0.00    -0.342 OA
ATOM      2  O   UNL     1      -5.384 -15.182  -2.780  0.00  0.00    -0.347 OA
ATOM      8  C   UNL     1      -3.014 -15.215  -2.299  0.00  0.00    +0.143 C 
ATOM      9  C   UNL     1      -2.684 -15.119  -3.806  0.00  0.00    +0.159 C 
ATOM     10  C   UNL     1      -3.197 -13.821  -4.466  0.00  0.00    +0.136 C 
ATOM     11  C   UNL     1      -4.363 -14.540  -1.997  0.00  0.00    +0.270 C 
ATOM     12  C   UNL     1      -4.495 -13.286  -3.826  0.00  0.00    +0.170 C 
ATOM     16  C   UNL     1      -5.651 -14.268  -3.855  0.00  0.00    +0.196 C 
ENDROOT
BRANCH  10   6
ATOM      4  O   UNL     1      -0.848 -13.641  -6.132  0.00  0.00    -0.253 OA
ATOM      6  N   UNL     1      -2.172 -12.800  -4.420  0.00  0.00    -0.291 N 
ATOM      7  N   UNL     1      -0.243 -11.702  -5.009  0.00  0.00    -0.296 N 
ATOM     21  C   UNL     1      -1.069 -12.793  -5.267  0.00  0.00    +0.300 C 
ATOM     30  H   UNL     1      -2.221 -12.100  -3.686  0.00  0.00    +0.151 HD
ATOM     32  H   UNL     1      -0.518 -11.042  -4.287  0.00  0.00    +0.151 HD
BRANCH   7  26
ATOM     26  C   UNL     1       0.974 -11.451  -5.743  0.00  0.00    +0.132 C 
BRANCH  26  28
ATOM     28  C   UNL     1       2.052 -12.341  -5.220  0.00  0.00    -0.016 C 
ATOM     29  C   UNL     1       2.884 -13.041  -6.000  0.00  0.00    +0.005 C 
ENDBRANCH  26  28
ENDBRANCH   7  26
ENDBRANCH  10   6
BRANCH   8   5
ATOM      5  N   UNL     1      -1.955 -14.583  -1.510  0.00  0.00    -0.293 NA
ATOM     13  C   UNL     1      -2.062 -14.975  -0.099  0.00  0.00    +0.085 C 
ATOM     14  C   UNL     1      -0.634 -14.920  -2.056  0.00  0.00    +0.085 C 
ATOM     15  C   UNL     1       0.413 -14.562   0.218  0.00  0.00    -0.004 C 
ATOM     17  C   UNL     1      -0.995 -14.278   0.749  0.00  0.00    +0.019 C 
ATOM     18  C   UNL     1       0.481 -14.223  -1.275  0.00  0.00    +0.019 C 
BRANCH  15  19
ATOM     19  C   UNL     1       1.464 -13.786   1.005  0.00  0.00    +0.038 C 
BRANCH  19  20
ATOM     20  C   UNL     1       2.857 -14.267   0.696  0.00  0.00    -0.047 A 
ATOM     22  C   UNL     1       3.612 -13.628  -0.288  0.00  0.00    +0.003 A 
ATOM     23  C   UNL     1       3.391 -15.349   1.393  0.00  0.00    +0.003 A 
ATOM     24  C   UNL     1       4.901 -14.074  -0.575  0.00  0.00    +0.000 A 
ATOM     25  C   UNL     1       4.682 -15.795   1.106  0.00  0.00    +0.000 A 
ATOM     27  C   UNL     1       5.437 -15.157   0.122  0.00  0.00    +0.000 A 
ENDBRANCH  19  20
ENDBRANCH  15  19
ENDBRANCH   8   5
BRANCH   9   3
ATOM      3  O   UNL     1      -3.295 -16.240  -4.459  0.00  0.00    -0.388 OA
ATOM     31  H   UNL     1      -2.978 -16.252  -5.378  0.00  0.00    +0.210 HD
ENDBRANCH   9   3
TORSDOF 7
ENDMDL
