MODEL 1
REMARK VINA RESULT:      -5.5      0.000      0.000
REMARK  Name = 38027684
REMARK  13 active torsions:
REMARK  status: ('A' for Active; 'I' for Inactive)
REMARK    1  A    between atoms: O_3  and  C_27
REMARK    2  A    between atoms: O_3  and  C_28
REMARK    3  A    between atoms: N_4  and  C_13
REMARK    4  A    between atoms: N_5  and  C_26
REMARK    5  A    between atoms: C_6  and  C_10
REMARK    6  A    between atoms: C_7  and  C_13
REMARK    7  A    between atoms: C_9  and  C_14
REMARK    8  A    between atoms: C_10  and  C_15
REMARK    9  A    between atoms: C_10  and  C_16
REMARK   10  A    between atoms: C_11  and  C_18
REMARK   11  A    between atoms: C_14  and  C_25
REMARK   12  A    between atoms: C_17  and  C_21
REMARK   13  A    between atoms: C_26  and  C_27
REMARK                            x       y       z     vdW  Elec       q    Type
REMARK                         _______ _______ _______ _____ _____    ______ ____
ROOT
ATOM      6  C   UNL     1      -2.984 -12.281  12.507  0.00  0.00    +0.000 C 
ATOM      7  C   UNL     1      -1.924 -11.154  12.426  0.00  0.00    +0.032 C 
ATOM      8  C   UNL     1      -3.565 -12.571  11.115  0.00  0.00    +0.012 C 
ATOM      9  C   UNL     1      -4.222 -11.328  10.486  0.00  0.00    +0.023 C 
ATOM     11  C   UNL     1      -3.339 -10.102  10.609  0.00  0.00    -0.073 C 
ATOM     12  C   UNL     1      -2.308 -10.048  11.472  0.00  0.00    -0.022 C 
ATOM     18  C   UNL     1      -3.638  -8.957   9.684  0.00  0.00    +0.039 C 
ENDROOT
BRANCH   6  10
ATOM     10  C   UNL     1      -2.404 -13.566  13.105  0.00  0.00    -0.013 C 
ATOM     15  C   UNL     1      -3.145 -13.939  14.386  0.00  0.00    +0.007 C 
ATOM     16  C   UNL     1      -2.472 -14.703  12.091  0.00  0.00    +0.007 C 
ENDBRANCH   6  10
BRANCH   7  13
ATOM     13  C   UNL     1      -1.642 -10.559  13.810  0.00  0.00    +0.112 C 
BRANCH  13   4
ATOM      1  O   UNL     1      -2.206 -11.031  16.619  0.00  0.00    -0.276 OA
ATOM      4  N   UNL     1      -2.862 -10.296  14.507  0.00  0.00    -0.315 N 
ATOM     21  C   UNL     1      -3.049 -10.554  15.864  0.00  0.00    +0.216 C 
ATOM     29  H   UNL     1      -3.589  -9.800  14.001  0.00  0.00    +0.149 HD
BRANCH  21  17
ATOM     17  C   UNL     1      -4.414 -10.161  16.347  0.00  0.00    +0.075 C 
ATOM     19  C   UNL     1      -5.432 -10.191  15.205  0.00  0.00    +0.013 C 
ATOM     20  C   UNL     1      -4.827 -11.038  17.531  0.00  0.00    +0.013 C 
ATOM     22  C   UNL     1      -5.871 -11.604  14.819  0.00  0.00    +0.001 C 
ATOM     23  C   UNL     1      -5.255 -12.445  17.113  0.00  0.00    +0.001 C 
ATOM     24  C   UNL     1      -6.329 -12.407  16.032  0.00  0.00    +0.000 C 
ENDBRANCH  21  17
ENDBRANCH  13   4
ENDBRANCH   7  13
BRANCH   9  14
ATOM     14  C   UNL     1      -5.606 -11.069  11.090  0.00  0.00    +0.103 C 
BRANCH  14  25
ATOM      2  O   UNL     1      -6.868 -11.231   9.032  0.00  0.00    -0.276 OA
ATOM      5  N   UNL     1      -7.155  -9.379  10.408  0.00  0.00    -0.313 N 
ATOM     25  C   UNL     1      -6.601 -10.601  10.052  0.00  0.00    +0.214 C 
ATOM     30  H   UNL     1      -6.863  -8.935  11.273  0.00  0.00    +0.149 HD
BRANCH   5  26
ATOM     26  C   UNL     1      -8.135  -8.692   9.600  0.00  0.00    +0.132 C 
BRANCH  26  27
ATOM     27  C   UNL     1      -7.479  -7.714   8.641  0.00  0.00    +0.178 C 
BRANCH  27   3
ATOM      3  O   UNL     1      -7.858  -8.033   7.309  0.00  0.00    -0.381 OA
ATOM     28  C   UNL     1      -8.702  -7.033   6.753  0.00  0.00    +0.194 C 
ENDBRANCH  27   3
ENDBRANCH  26  27
ENDBRANCH   5  26
ENDBRANCH  14  25
ENDBRANCH   9  14
TORSDOF 9
ENDMDL
MODEL 2
REMARK VINA RESULT:      -5.3     23.300     25.720
REMARK  Name = 38027684
REMARK  13 active torsions:
REMARK  status: ('A' for Active; 'I' for Inactive)
REMARK    1  A    between atoms: O_3  and  C_27
REMARK    2  A    between atoms: O_3  and  C_28
REMARK    3  A    between atoms: N_4  and  C_13
REMARK    4  A    between atoms: N_5  and  C_26
REMARK    5  A    between atoms: C_6  and  C_10
REMARK    6  A    between atoms: C_7  and  C_13
REMARK    7  A    between atoms: C_9  and  C_14
REMARK    8  A    between atoms: C_10  and  C_15
REMARK    9  A    between atoms: C_10  and  C_16
REMARK   10  A    between atoms: C_11  and  C_18
REMARK   11  A    between atoms: C_14  and  C_25
REMARK   12  A    between atoms: C_17  and  C_21
REMARK   13  A    between atoms: C_26  and  C_27
REMARK                            x       y       z     vdW  Elec       q    Type
REMARK                         _______ _______ _______ _____ _____    ______ ____
ROOT
ATOM      6  C   UNL     1      12.334   8.017   5.229  0.00  0.00    +0.000 C 
ATOM      7  C   UNL     1      11.897   9.395   4.670  0.00  0.00    +0.032 C 
ATOM      8  C   UNL     1      13.146   7.245   4.178  0.00  0.00    +0.012 C 
ATOM      9  C   UNL     1      12.350   7.015   2.879  0.00  0.00    +0.023 C 
ATOM     11  C   UNL     1      11.663   8.281   2.408  0.00  0.00    -0.073 C 
ATOM     12  C   UNL     1      11.482   9.339   3.218  0.00  0.00    -0.022 C 
ATOM     18  C   UNL     1      11.231   8.321   0.969  0.00  0.00    +0.039 C 
ENDROOT
BRANCH   6  10
ATOM     10  C   UNL     1      13.152   8.159   6.515  0.00  0.00    -0.013 C 
ATOM     15  C   UNL     1      13.381   6.793   7.155  0.00  0.00    +0.007 C 
ATOM     16  C   UNL     1      14.481   8.850   6.227  0.00  0.00    +0.007 C 
ENDBRANCH   6  10
BRANCH   7  13
ATOM     13  C   UNL     1      10.760   9.995   5.503  0.00  0.00    +0.112 C 
BRANCH  13   4
ATOM      1  O   UNL     1      10.173   9.135   8.214  0.00  0.00    -0.276 OA
ATOM      4  N   UNL     1       9.841   8.981   5.912  0.00  0.00    -0.315 N 
ATOM     21  C   UNL     1       9.619   8.628   7.242  0.00  0.00    +0.216 C 
ATOM     29  H   UNL     1       9.248   8.573   5.195  0.00  0.00    +0.149 HD
BRANCH  21  17
ATOM     17  C   UNL     1       8.585   7.551   7.393  0.00  0.00    +0.075 C 
ATOM     19  C   UNL     1       8.501   6.688   6.132  0.00  0.00    +0.013 C 
ATOM     20  C   UNL     1       8.860   6.729   8.654  0.00  0.00    +0.013 C 
ATOM     22  C   UNL     1       9.655   5.694   5.997  0.00  0.00    +0.001 C 
ATOM     23  C   UNL     1      10.021   5.750   8.490  0.00  0.00    +0.001 C 
ATOM     24  C   UNL     1       9.839   4.863   7.263  0.00  0.00    +0.000 C 
ENDBRANCH  21  17
ENDBRANCH  13   4
ENDBRANCH   7  13
BRANCH   9  14
ATOM     14  C   UNL     1      11.341   5.873   3.045  0.00  0.00    +0.103 C 
BRANCH  14  25
ATOM      2  O   UNL     1      10.866   3.976   1.621  0.00  0.00    -0.276 OA
ATOM      5  N   UNL     1      13.070   4.475   2.166  0.00  0.00    -0.313 N 
ATOM     25  C   UNL     1      11.697   4.674   2.197  0.00  0.00    +0.214 C 
ATOM     30  H   UNL     1      13.675   5.107   2.681  0.00  0.00    +0.149 HD
BRANCH   5  26
ATOM     26  C   UNL     1      13.695   3.399   1.433  0.00  0.00    +0.132 C 
BRANCH  26  27
ATOM     27  C   UNL     1      15.209   3.516   1.453  0.00  0.00    +0.178 C 
BRANCH  27   3
ATOM      3  O   UNL     1      15.619   4.489   0.502  0.00  0.00    -0.381 OA
ATOM     28  C   UNL     1      15.150   4.174  -0.802  0.00  0.00    +0.194 C 
ENDBRANCH  27   3
ENDBRANCH  26  27
ENDBRANCH   5  26
ENDBRANCH  14  25
ENDBRANCH   9  14
TORSDOF 9
ENDMDL
MODEL 3
REMARK VINA RESULT:      -5.3     23.389     25.881
REMARK  Name = 38027684
REMARK  13 active torsions:
REMARK  status: ('A' for Active; 'I' for Inactive)
REMARK    1  A    between atoms: O_3  and  C_27
REMARK    2  A    between atoms: O_3  and  C_28
REMARK    3  A    between atoms: N_4  and  C_13
REMARK    4  A    between atoms: N_5  and  C_26
REMARK    5  A    between atoms: C_6  and  C_10
REMARK    6  A    between atoms: C_7  and  C_13
REMARK    7  A    between atoms: C_9  and  C_14
REMARK    8  A    between atoms: C_10  and  C_15
REMARK    9  A    between atoms: C_10  and  C_16
REMARK   10  A    between atoms: C_11  and  C_18
REMARK   11  A    between atoms: C_14  and  C_25
REMARK   12  A    between atoms: C_17  and  C_21
REMARK   13  A    between atoms: C_26  and  C_27
REMARK                            x       y       z     vdW  Elec       q    Type
REMARK                         _______ _______ _______ _____ _____    ______ ____
ROOT
ATOM      6  C   UNL     1      13.123   8.096   4.399  0.00  0.00    +0.000 C 
ATOM      7  C   UNL     1      12.196   9.189   4.988  0.00  0.00    +0.032 C 
ATOM      8  C   UNL     1      12.854   7.918   2.897  0.00  0.00    +0.012 C 
ATOM      9  C   UNL     1      11.392   7.526   2.609  0.00  0.00    +0.023 C 
ATOM     11  C   UNL     1      10.415   8.396   3.373  0.00  0.00    -0.073 C 
ATOM     12  C   UNL     1      10.795   9.143   4.425  0.00  0.00    -0.022 C 
ATOM     18  C   UNL     1       8.998   8.425   2.872  0.00  0.00    +0.039 C 
ENDROOT
BRANCH   6  10
ATOM     10  C   UNL     1      14.602   8.422   4.626  0.00  0.00    -0.013 C 
ATOM     15  C   UNL     1      15.484   7.307   4.071  0.00  0.00    +0.007 C 
ATOM     16  C   UNL     1      14.956   9.760   3.985  0.00  0.00    +0.007 C 
ENDBRANCH   6  10
BRANCH   7  13
ATOM     13  C   UNL     1      12.136   9.098   6.517  0.00  0.00    +0.112 C 
BRANCH  13   4
ATOM      1  O   UNL     1      12.377   6.342   7.401  0.00  0.00    -0.276 OA
ATOM      4  N   UNL     1      11.083   8.224   6.931  0.00  0.00    -0.315 N 
ATOM     21  C   UNL     1      11.288   6.908   7.343  0.00  0.00    +0.216 C 
ATOM     29  H   UNL     1      10.155   8.625   7.025  0.00  0.00    +0.149 HD
BRANCH  21  17
ATOM     17  C   UNL     1      10.016   6.222   7.748  0.00  0.00    +0.075 C 
ATOM     19  C   UNL     1       8.843   7.205   7.770  0.00  0.00    +0.013 C 
ATOM     20  C   UNL     1       9.758   5.014   6.844  0.00  0.00    +0.013 C 
ATOM     22  C   UNL     1       8.320   7.560   6.378  0.00  0.00    +0.001 C 
ATOM     23  C   UNL     1       9.242   5.402   5.459  0.00  0.00    +0.001 C 
ATOM     24  C   UNL     1       8.024   6.315   5.549  0.00  0.00    +0.000 C 
ENDBRANCH  21  17
ENDBRANCH  13   4
ENDBRANCH   7  13
BRANCH   9  14
ATOM     14  C   UNL     1      11.150   6.041   2.903  0.00  0.00    +0.103 C 
BRANCH  14  25
ATOM      2  O   UNL     1      11.471   5.267   0.634  0.00  0.00    -0.276 OA
ATOM      5  N   UNL     1      12.567   4.189   2.377  0.00  0.00    -0.313 N 
ATOM     25  C   UNL     1      11.727   5.148   1.829  0.00  0.00    +0.214 C 
ATOM     30  H   UNL     1      12.710   4.169   3.382  0.00  0.00    +0.149 HD
BRANCH   5  26
ATOM     26  C   UNL     1      13.256   3.197   1.584  0.00  0.00    +0.132 C 
BRANCH  26  27
ATOM     27  C   UNL     1      14.696   3.596   1.320  0.00  0.00    +0.178 C 
BRANCH  27   3
ATOM      3  O   UNL     1      14.850   3.930  -0.053  0.00  0.00    -0.381 OA
ATOM     28  C   UNL     1      16.215   4.144  -0.388  0.00  0.00    +0.194 C 
ENDBRANCH  27   3
ENDBRANCH  26  27
ENDBRANCH   5  26
ENDBRANCH  14  25
ENDBRANCH   9  14
TORSDOF 9
ENDMDL
MODEL 4
REMARK VINA RESULT:      -5.2     22.967     26.159
REMARK  Name = 38027684
REMARK  13 active torsions:
REMARK  status: ('A' for Active; 'I' for Inactive)
REMARK    1  A    between atoms: O_3  and  C_27
REMARK    2  A    between atoms: O_3  and  C_28
REMARK    3  A    between atoms: N_4  and  C_13
REMARK    4  A    between atoms: N_5  and  C_26
REMARK    5  A    between atoms: C_6  and  C_10
REMARK    6  A    between atoms: C_7  and  C_13
REMARK    7  A    between atoms: C_9  and  C_14
REMARK    8  A    between atoms: C_10  and  C_15
REMARK    9  A    between atoms: C_10  and  C_16
REMARK   10  A    between atoms: C_11  and  C_18
REMARK   11  A    between atoms: C_14  and  C_25
REMARK   12  A    between atoms: C_17  and  C_21
REMARK   13  A    between atoms: C_26  and  C_27
REMARK                            x       y       z     vdW  Elec       q    Type
REMARK                         _______ _______ _______ _____ _____    ______ ____
ROOT
ATOM      6  C   UNL     1      10.229   6.904   3.463  0.00  0.00    +0.000 C 
ATOM      7  C   UNL     1      10.619   6.613   1.992  0.00  0.00    +0.032 C 
ATOM      8  C   UNL     1      11.024   8.103   4.002  0.00  0.00    +0.012 C 
ATOM      9  C   UNL     1      12.546   7.870   3.937  0.00  0.00    +0.023 C 
ATOM     11  C   UNL     1      12.975   7.322   2.590  0.00  0.00    -0.073 C 
ATOM     12  C   UNL     1      12.097   6.777   1.729  0.00  0.00    -0.022 C 
ATOM     18  C   UNL     1      14.429   7.459   2.236  0.00  0.00    +0.039 C 
ENDROOT
BRANCH   6  10
ATOM     10  C   UNL     1       8.728   7.168   3.612  0.00  0.00    -0.013 C 
ATOM     15  C   UNL     1       8.290   6.952   5.057  0.00  0.00    +0.007 C 
ATOM     16  C   UNL     1       8.389   8.582   3.150  0.00  0.00    +0.007 C 
ENDBRANCH   6  10
BRANCH   7  13
ATOM     13  C   UNL     1      10.178   5.207   1.571  0.00  0.00    +0.112 C 
BRANCH  13   4
ATOM      1  O   UNL     1      10.508   4.033  -1.065  0.00  0.00    -0.276 OA
ATOM      4  N   UNL     1      11.291   4.449   1.091  0.00  0.00    -0.315 N 
ATOM     21  C   UNL     1      11.369   3.919  -0.196  0.00  0.00    +0.216 C 
ATOM     29  H   UNL     1      12.106   4.387   1.693  0.00  0.00    +0.149 HD
BRANCH  21  17
ATOM     17  C   UNL     1      12.656   3.188  -0.446  0.00  0.00    +0.075 C 
ATOM     19  C   UNL     1      12.787   2.792  -1.918  0.00  0.00    +0.013 C 
ATOM     20  C   UNL     1      13.839   4.021   0.050  0.00  0.00    +0.013 C 
ATOM     22  C   UNL     1      13.162   3.960  -2.831  0.00  0.00    +0.001 C 
ATOM     23  C   UNL     1      14.186   5.183  -0.879  0.00  0.00    +0.001 C 
ATOM     24  C   UNL     1      14.384   4.712  -2.316  0.00  0.00    +0.000 C 
ENDBRANCH  21  17
ENDBRANCH  13   4
ENDBRANCH   7  13
BRANCH   9  14
ATOM     14  C   UNL     1      13.013   6.955   5.074  0.00  0.00    +0.103 C 
BRANCH  14  25
ATOM      2  O   UNL     1      12.336   8.337   6.941  0.00  0.00    -0.276 OA
ATOM      5  N   UNL     1      11.600   6.135   6.820  0.00  0.00    -0.313 N 
ATOM     25  C   UNL     1      12.296   7.250   6.372  0.00  0.00    +0.214 C 
ATOM     30  H   UNL     1      11.633   5.278   6.277  0.00  0.00    +0.149 HD
BRANCH   5  26
ATOM     26  C   UNL     1      10.824   6.127   8.038  0.00  0.00    +0.132 C 
BRANCH  26  27
ATOM     27  C   UNL     1       9.829   4.981   8.058  0.00  0.00    +0.178 C 
BRANCH  27   3
ATOM      3  O   UNL     1      10.009   4.220   9.246  0.00  0.00    -0.381 OA
ATOM     28  C   UNL     1       9.045   4.560  10.233  0.00  0.00    +0.194 C 
ENDBRANCH  27   3
ENDBRANCH  26  27
ENDBRANCH   5  26
ENDBRANCH  14  25
ENDBRANCH   9  14
TORSDOF 9
ENDMDL
MODEL 5
REMARK VINA RESULT:      -5.1      3.912      6.325
REMARK  Name = 38027684
REMARK  13 active torsions:
REMARK  status: ('A' for Active; 'I' for Inactive)
REMARK    1  A    between atoms: O_3  and  C_27
REMARK    2  A    between atoms: O_3  and  C_28
REMARK    3  A    between atoms: N_4  and  C_13
REMARK    4  A    between atoms: N_5  and  C_26
REMARK    5  A    between atoms: C_6  and  C_10
REMARK    6  A    between atoms: C_7  and  C_13
REMARK    7  A    between atoms: C_9  and  C_14
REMARK    8  A    between atoms: C_10  and  C_15
REMARK    9  A    between atoms: C_10  and  C_16
REMARK   10  A    between atoms: C_11  and  C_18
REMARK   11  A    between atoms: C_14  and  C_25
REMARK   12  A    between atoms: C_17  and  C_21
REMARK   13  A    between atoms: C_26  and  C_27
REMARK                            x       y       z     vdW  Elec       q    Type
REMARK                         _______ _______ _______ _____ _____    ______ ____
ROOT
ATOM      6  C   UNL     1      -5.618 -10.751  17.252  0.00  0.00    +0.000 C 
ATOM      7  C   UNL     1      -4.884 -11.590  16.175  0.00  0.00    +0.032 C 
ATOM      8  C   UNL     1      -7.110 -11.117  17.290  0.00  0.00    +0.012 C 
ATOM      9  C   UNL     1      -7.803 -10.885  15.934  0.00  0.00    +0.023 C 
ATOM     11  C   UNL     1      -6.995 -11.455  14.785  0.00  0.00    -0.073 C 
ATOM     12  C   UNL     1      -5.696 -11.777  14.915  0.00  0.00    -0.022 C 
ATOM     18  C   UNL     1      -7.728 -11.691  13.494  0.00  0.00    +0.039 C 
ENDROOT
BRANCH   6  10
ATOM     10  C   UNL     1      -5.001 -10.942  18.640  0.00  0.00    -0.013 C 
ATOM     15  C   UNL     1      -6.009 -10.577  19.726  0.00  0.00    +0.007 C 
ATOM     16  C   UNL     1      -4.516 -12.378  18.813  0.00  0.00    +0.007 C 
ENDBRANCH   6  10
BRANCH   7  13
ATOM     13  C   UNL     1      -3.527 -10.970  15.822  0.00  0.00    +0.112 C 
BRANCH  13   4
ATOM      1  O   UNL     1      -1.465  -9.735  14.192  0.00  0.00    -0.276 OA
ATOM      4  N   UNL     1      -3.134 -11.334  14.497  0.00  0.00    -0.315 N 
ATOM     21  C   UNL     1      -2.129 -10.684  13.782  0.00  0.00    +0.216 C 
ATOM     29  H   UNL     1      -3.544 -12.176  14.104  0.00  0.00    +0.149 HD
BRANCH  21  17
ATOM     17  C   UNL     1      -1.901 -11.283  12.425  0.00  0.00    +0.075 C 
ATOM     19  C   UNL     1      -3.097 -12.133  11.991  0.00  0.00    +0.013 C 
ATOM     20  C   UNL     1      -1.558 -10.186  11.416  0.00  0.00    +0.013 C 
ATOM     22  C   UNL     1      -4.296 -11.305  11.529  0.00  0.00    +0.001 C 
ATOM     23  C   UNL     1      -2.775  -9.373  10.978  0.00  0.00    +0.001 C 
ATOM     24  C   UNL     1      -3.901 -10.272  10.479  0.00  0.00    +0.000 C 
ENDBRANCH  21  17
ENDBRANCH  13   4
ENDBRANCH   7  13
BRANCH   9  14
ATOM     14  C   UNL     1      -8.098  -9.397  15.712  0.00  0.00    +0.103 C 
BRANCH  14  25
ATOM      2  O   UNL     1     -10.348  -9.844  16.478  0.00  0.00    -0.276 OA
ATOM      5  N   UNL     1      -9.678  -7.649  16.116  0.00  0.00    -0.313 N 
ATOM     25  C   UNL     1      -9.497  -9.024  16.147  0.00  0.00    +0.214 C 
ATOM     30  H   UNL     1      -8.910  -7.053  15.821  0.00  0.00    +0.149 HD
BRANCH   5  26
ATOM     26  C   UNL     1     -10.920  -7.008  16.479  0.00  0.00    +0.132 C 
BRANCH  26  27
ATOM     27  C   UNL     1     -11.253  -5.863  15.540  0.00  0.00    +0.178 C 
BRANCH  27   3
ATOM      3  O   UNL     1     -12.565  -6.042  15.024  0.00  0.00    -0.381 OA
ATOM     28  C   UNL     1     -13.354  -6.859  15.879  0.00  0.00    +0.194 C 
ENDBRANCH  27   3
ENDBRANCH  26  27
ENDBRANCH   5  26
ENDBRANCH  14  25
ENDBRANCH   9  14
TORSDOF 9
ENDMDL
MODEL 6
REMARK VINA RESULT:      -5.1     23.798     26.761
REMARK  Name = 38027684
REMARK  13 active torsions:
REMARK  status: ('A' for Active; 'I' for Inactive)
REMARK    1  A    between atoms: O_3  and  C_27
REMARK    2  A    between atoms: O_3  and  C_28
REMARK    3  A    between atoms: N_4  and  C_13
REMARK    4  A    between atoms: N_5  and  C_26
REMARK    5  A    between atoms: C_6  and  C_10
REMARK    6  A    between atoms: C_7  and  C_13
REMARK    7  A    between atoms: C_9  and  C_14
REMARK    8  A    between atoms: C_10  and  C_15
REMARK    9  A    between atoms: C_10  and  C_16
REMARK   10  A    between atoms: C_11  and  C_18
REMARK   11  A    between atoms: C_14  and  C_25
REMARK   12  A    between atoms: C_17  and  C_21
REMARK   13  A    between atoms: C_26  and  C_27
REMARK                            x       y       z     vdW  Elec       q    Type
REMARK                         _______ _______ _______ _____ _____    ______ ____
ROOT
ATOM      6  C   UNL     1      13.338   7.930   2.043  0.00  0.00    +0.000 C 
ATOM      7  C   UNL     1      14.873   7.857   2.245  0.00  0.00    +0.032 C 
ATOM      8  C   UNL     1      12.675   8.650   3.227  0.00  0.00    +0.012 C 
ATOM      9  C   UNL     1      12.959   7.948   4.569  0.00  0.00    +0.023 C 
ATOM     11  C   UNL     1      14.425   7.601   4.724  0.00  0.00    -0.073 C 
ATOM     12  C   UNL     1      15.269   7.579   3.676  0.00  0.00    -0.022 C 
ATOM     18  C   UNL     1      14.912   7.324   6.118  0.00  0.00    +0.039 C 
ENDROOT
BRANCH   6  10
ATOM     10  C   UNL     1      12.969   8.635   0.735  0.00  0.00    -0.013 C 
ATOM     15  C   UNL     1      12.013   7.772  -0.084  0.00  0.00    +0.007 C 
ATOM     16  C   UNL     1      12.353  10.000   1.022  0.00  0.00    +0.007 C 
ENDBRANCH   6  10
BRANCH   7  13
ATOM     13  C   UNL     1      15.503   6.805   1.327  0.00  0.00    +0.112 C 
BRANCH  13   4
ATOM      1  O   UNL     1      14.609   5.233  -0.945  0.00  0.00    -0.276 OA
ATOM      4  N   UNL     1      14.749   5.592   1.354  0.00  0.00    -0.315 N 
ATOM     21  C   UNL     1      14.359   4.897   0.210  0.00  0.00    +0.216 C 
ATOM     29  H   UNL     1      14.582   5.167   2.262  0.00  0.00    +0.149 HD
BRANCH  21  17
ATOM     17  C   UNL     1      13.598   3.642   0.523  0.00  0.00    +0.075 C 
ATOM     19  C   UNL     1      12.859   3.765   1.858  0.00  0.00    +0.013 C 
ATOM     20  C   UNL     1      12.667   3.286  -0.638  0.00  0.00    +0.013 C 
ATOM     22  C   UNL     1      11.596   4.623   1.777  0.00  0.00    +0.001 C 
ATOM     23  C   UNL     1      11.418   4.165  -0.695  0.00  0.00    +0.001 C 
ATOM     24  C   UNL     1      10.681   4.181   0.640  0.00  0.00    +0.000 C 
ENDBRANCH  21  17
ENDBRANCH  13   4
ENDBRANCH   7  13
BRANCH   9  14
ATOM     14  C   UNL     1      12.080   6.704   4.739  0.00  0.00    +0.103 C 
BRANCH  14  25
ATOM      2  O   UNL     1      11.456   7.577   6.908  0.00  0.00    -0.276 OA
ATOM      5  N   UNL     1      10.349   5.716   6.060  0.00  0.00    -0.313 N 
ATOM     25  C   UNL     1      11.283   6.742   6.023  0.00  0.00    +0.214 C 
ATOM     30  H   UNL     1      10.287   5.072   5.278  0.00  0.00    +0.149 HD
BRANCH   5  26
ATOM     26  C   UNL     1       9.450   5.508   7.171  0.00  0.00    +0.132 C 
BRANCH  26  27
ATOM     27  C   UNL     1       9.943   4.402   8.087  0.00  0.00    +0.178 C 
BRANCH  27   3
ATOM      3  O   UNL     1      10.114   4.918   9.401  0.00  0.00    -0.381 OA
ATOM     28  C   UNL     1       9.000   4.612  10.230  0.00  0.00    +0.194 C 
ENDBRANCH  27   3
ENDBRANCH  26  27
ENDBRANCH   5  26
ENDBRANCH  14  25
ENDBRANCH   9  14
TORSDOF 9
ENDMDL
MODEL 7
REMARK VINA RESULT:      -5.0     25.229     27.848
REMARK  Name = 38027684
REMARK  13 active torsions:
REMARK  status: ('A' for Active; 'I' for Inactive)
REMARK    1  A    between atoms: O_3  and  C_27
REMARK    2  A    between atoms: O_3  and  C_28
REMARK    3  A    between atoms: N_4  and  C_13
REMARK    4  A    between atoms: N_5  and  C_26
REMARK    5  A    between atoms: C_6  and  C_10
REMARK    6  A    between atoms: C_7  and  C_13
REMARK    7  A    between atoms: C_9  and  C_14
REMARK    8  A    between atoms: C_10  and  C_15
REMARK    9  A    between atoms: C_10  and  C_16
REMARK   10  A    between atoms: C_11  and  C_18
REMARK   11  A    between atoms: C_14  and  C_25
REMARK   12  A    between atoms: C_17  and  C_21
REMARK   13  A    between atoms: C_26  and  C_27
REMARK                            x       y       z     vdW  Elec       q    Type
REMARK                         _______ _______ _______ _____ _____    ______ ____
ROOT
ATOM      6  C   UNL     1      19.295  -5.761  25.143  0.00  0.00    +0.000 C 
ATOM      7  C   UNL     1      18.317  -6.730  24.432  0.00  0.00    +0.032 C 
ATOM      8  C   UNL     1      19.318  -6.035  26.654  0.00  0.00    +0.012 C 
ATOM      9  C   UNL     1      17.926  -5.880  27.296  0.00  0.00    +0.023 C 
ATOM     11  C   UNL     1      16.855  -6.592  26.495  0.00  0.00    -0.073 C 
ATOM     12  C   UNL     1      17.052  -6.977  25.221  0.00  0.00    -0.022 C 
ATOM     18  C   UNL     1      15.566  -6.895  27.207  0.00  0.00    +0.039 C 
ENDROOT
BRANCH   6  10
ATOM     10  C   UNL     1      20.713  -5.868  24.575  0.00  0.00    -0.013 C 
ATOM     15  C   UNL     1      21.521  -4.621  24.922  0.00  0.00    +0.007 C 
ATOM     16  C   UNL     1      21.403  -7.123  25.100  0.00  0.00    +0.007 C 
ENDBRANCH   6  10
BRANCH   7  13
ATOM     13  C   UNL     1      17.954  -6.223  23.032  0.00  0.00    +0.112 C 
BRANCH  13   4
ATOM      1  O   UNL     1      18.551  -3.483  22.279  0.00  0.00    -0.276 OA
ATOM      4  N   UNL     1      17.084  -5.092  23.112  0.00  0.00    -0.315 N 
ATOM     21  C   UNL     1      17.453  -3.804  22.728  0.00  0.00    +0.216 C 
ATOM     29  H   UNL     1      16.117  -5.266  23.367  0.00  0.00    +0.149 HD
BRANCH  21  17
ATOM     17  C   UNL     1      16.342  -2.808  22.892  0.00  0.00    +0.075 C 
ATOM     19  C   UNL     1      15.799  -2.821  24.322  0.00  0.00    +0.013 C 
ATOM     20  C   UNL     1      16.809  -1.420  22.448  0.00  0.00    +0.013 C 
ATOM     22  C   UNL     1      16.709  -2.113  25.325  0.00  0.00    +0.001 C 
ATOM     23  C   UNL     1      17.721  -0.741  23.468  0.00  0.00    +0.001 C 
ATOM     24  C   UNL     1      17.089  -0.712  24.856  0.00  0.00    +0.000 C 
ENDBRANCH  21  17
ENDBRANCH  13   4
ENDBRANCH   7  13
BRANCH   9  14
ATOM     14  C   UNL     1      17.570  -4.403  27.495  0.00  0.00    +0.103 C 
BRANCH  14  25
ATOM      2  O   UNL     1      18.334  -4.650  29.777  0.00  0.00    -0.276 OA
ATOM      5  N   UNL     1      17.672  -2.557  29.011  0.00  0.00    -0.313 N 
ATOM     25  C   UNL     1      17.909  -3.919  28.886  0.00  0.00    +0.214 C 
ATOM     30  H   UNL     1      17.313  -2.040  28.214  0.00  0.00    +0.149 HD
BRANCH   5  26
ATOM     26  C   UNL     1      17.904  -1.825  30.235  0.00  0.00    +0.132 C 
BRANCH  26  27
ATOM     27  C   UNL     1      16.618  -1.624  31.017  0.00  0.00    +0.178 C 
BRANCH  27   3
ATOM      3  O   UNL     1      16.473  -2.674  31.964  0.00  0.00    -0.381 OA
ATOM     28  C   UNL     1      15.307  -3.447  31.712  0.00  0.00    +0.194 C 
ENDBRANCH  27   3
ENDBRANCH  26  27
ENDBRANCH   5  26
ENDBRANCH  14  25
ENDBRANCH   9  14
TORSDOF 9
ENDMDL
MODEL 8
REMARK VINA RESULT:      -5.0     25.616     29.154
REMARK  Name = 38027684
REMARK  13 active torsions:
REMARK  status: ('A' for Active; 'I' for Inactive)
REMARK    1  A    between atoms: O_3  and  C_27
REMARK    2  A    between atoms: O_3  and  C_28
REMARK    3  A    between atoms: N_4  and  C_13
REMARK    4  A    between atoms: N_5  and  C_26
REMARK    5  A    between atoms: C_6  and  C_10
REMARK    6  A    between atoms: C_7  and  C_13
REMARK    7  A    between atoms: C_9  and  C_14
REMARK    8  A    between atoms: C_10  and  C_15
REMARK    9  A    between atoms: C_10  and  C_16
REMARK   10  A    between atoms: C_11  and  C_18
REMARK   11  A    between atoms: C_14  and  C_25
REMARK   12  A    between atoms: C_17  and  C_21
REMARK   13  A    between atoms: C_26  and  C_27
REMARK                            x       y       z     vdW  Elec       q    Type
REMARK                         _______ _______ _______ _____ _____    ______ ____
ROOT
ATOM      6  C   UNL     1      20.437  -5.049  24.918  0.00  0.00    +0.000 C 
ATOM      7  C   UNL     1      19.151  -5.681  25.508  0.00  0.00    +0.032 C 
ATOM      8  C   UNL     1      21.220  -4.306  26.011  0.00  0.00    +0.012 C 
ATOM      9  C   UNL     1      20.386  -3.192  26.671  0.00  0.00    +0.023 C 
ATOM     11  C   UNL     1      18.997  -3.672  27.041  0.00  0.00    -0.073 C 
ATOM     12  C   UNL     1      18.467  -4.794  26.522  0.00  0.00    -0.022 C 
ATOM     18  C   UNL     1      18.248  -2.858  28.058  0.00  0.00    +0.039 C 
ENDROOT
BRANCH   6  10
ATOM     10  C   UNL     1      21.335  -6.098  24.257  0.00  0.00    -0.013 C 
ATOM     15  C   UNL     1      21.333  -5.923  22.741  0.00  0.00    +0.007 C 
ATOM     16  C   UNL     1      22.754  -6.007  24.810  0.00  0.00    +0.007 C 
ENDBRANCH   6  10
BRANCH   7  13
ATOM     13  C   UNL     1      18.158  -6.052  24.402  0.00  0.00    +0.112 C 
BRANCH  13   4
ATOM      1  O   UNL     1      18.520  -4.036  22.343  0.00  0.00    -0.276 OA
ATOM      4  N   UNL     1      17.297  -4.952  24.104  0.00  0.00    -0.315 N 
ATOM     21  C   UNL     1      17.547  -4.025  23.093  0.00  0.00    +0.216 C 
ATOM     29  H   UNL     1      16.408  -4.911  24.592  0.00  0.00    +0.149 HD
BRANCH  21  17
ATOM     17  C   UNL     1      16.471  -2.986  22.978  0.00  0.00    +0.075 C 
ATOM     19  C   UNL     1      15.793  -2.743  24.328  0.00  0.00    +0.013 C 
ATOM     20  C   UNL     1      17.038  -1.705  22.362  0.00  0.00    +0.013 C 
ATOM     22  C   UNL     1      16.635  -1.902  25.288  0.00  0.00    +0.001 C 
ATOM     23  C   UNL     1      17.879  -0.890  23.344  0.00  0.00    +0.001 C 
ATOM     24  C   UNL     1      17.119  -0.611  24.637  0.00  0.00    +0.000 C 
ENDBRANCH  21  17
ENDBRANCH  13   4
ENDBRANCH   7  13
BRANCH   9  14
ATOM     14  C   UNL     1      20.316  -1.950  25.776  0.00  0.00    +0.103 C 
BRANCH  14  25
ATOM      2  O   UNL     1      21.159  -0.553  27.562  0.00  0.00    -0.276 OA
ATOM      5  N   UNL     1      21.676  -0.029  25.357  0.00  0.00    -0.313 N 
ATOM     25  C   UNL     1      21.084  -0.785  26.359  0.00  0.00    +0.214 C 
ATOM     30  H   UNL     1      21.550  -0.301  24.388  0.00  0.00    +0.149 HD
BRANCH   5  26
ATOM     26  C   UNL     1      22.470   1.148  25.624  0.00  0.00    +0.132 C 
BRANCH  26  27
ATOM     27  C   UNL     1      22.929   1.814  24.338  0.00  0.00    +0.178 C 
BRANCH  27   3
ATOM      3  O   UNL     1      23.756   0.916  23.611  0.00  0.00    -0.381 OA
ATOM     28  C   UNL     1      25.116   1.018  24.012  0.00  0.00    +0.194 C 
ENDBRANCH  27   3
ENDBRANCH  26  27
ENDBRANCH   5  26
ENDBRANCH  14  25
ENDBRANCH   9  14
TORSDOF 9
ENDMDL
MODEL 9
REMARK VINA RESULT:      -5.0      5.939      8.466
REMARK  Name = 38027684
REMARK  13 active torsions:
REMARK  status: ('A' for Active; 'I' for Inactive)
REMARK    1  A    between atoms: O_3  and  C_27
REMARK    2  A    between atoms: O_3  and  C_28
REMARK    3  A    between atoms: N_4  and  C_13
REMARK    4  A    between atoms: N_5  and  C_26
REMARK    5  A    between atoms: C_6  and  C_10
REMARK    6  A    between atoms: C_7  and  C_13
REMARK    7  A    between atoms: C_9  and  C_14
REMARK    8  A    between atoms: C_10  and  C_15
REMARK    9  A    between atoms: C_10  and  C_16
REMARK   10  A    between atoms: C_11  and  C_18
REMARK   11  A    between atoms: C_14  and  C_25
REMARK   12  A    between atoms: C_17  and  C_21
REMARK   13  A    between atoms: C_26  and  C_27
REMARK                            x       y       z     vdW  Elec       q    Type
REMARK                         _______ _______ _______ _____ _____    ______ ____
ROOT
ATOM      6  C   UNL     1     -11.847  -9.804  18.730  0.00  0.00    +0.000 C 
ATOM      7  C   UNL     1     -10.718 -10.837  18.483  0.00  0.00    +0.032 C 
ATOM      8  C   UNL     1     -12.460  -9.351  17.396  0.00  0.00    +0.012 C 
ATOM      9  C   UNL     1     -11.415  -8.718  16.458  0.00  0.00    +0.023 C 
ATOM     11  C   UNL     1     -10.154  -9.554  16.374  0.00  0.00    -0.073 C 
ATOM     12  C   UNL     1      -9.866 -10.506  17.280  0.00  0.00    -0.022 C 
ATOM     18  C   UNL     1      -9.253  -9.304  15.198  0.00  0.00    +0.039 C 
ENDROOT
BRANCH   6  10
ATOM     10  C   UNL     1     -12.942 -10.365  19.641  0.00  0.00    -0.013 C 
ATOM     15  C   UNL     1     -13.076  -9.513  20.899  0.00  0.00    +0.007 C 
ATOM     16  C   UNL     1     -14.270 -10.437  18.893  0.00  0.00    +0.007 C 
ENDBRANCH   6  10
BRANCH   7  13
ATOM     13  C   UNL     1      -9.823 -10.984  19.718  0.00  0.00    +0.112 C 
BRANCH  13   4
ATOM      1  O   UNL     1      -7.423 -12.600  19.965  0.00  0.00    -0.276 OA
ATOM      4  N   UNL     1      -8.481 -10.595  19.420  0.00  0.00    -0.315 N 
ATOM     21  C   UNL     1      -7.380 -11.438  19.568  0.00  0.00    +0.216 C 
ATOM     29  H   UNL     1      -8.344  -9.689  18.982  0.00  0.00    +0.149 HD
BRANCH  21  17
ATOM     17  C   UNL     1      -6.091 -10.787  19.162  0.00  0.00    +0.075 C 
ATOM     19  C   UNL     1      -4.919 -11.764  19.281  0.00  0.00    +0.013 C 
ATOM     20  C   UNL     1      -6.222 -10.189  17.760  0.00  0.00    +0.013 C 
ATOM     22  C   UNL     1      -4.867 -12.791  18.150  0.00  0.00    +0.001 C 
ATOM     23  C   UNL     1      -6.171 -11.240  16.653  0.00  0.00    +0.001 C 
ATOM     24  C   UNL     1      -4.939 -12.130  16.778  0.00  0.00    +0.000 C 
ENDBRANCH  21  17
ENDBRANCH  13   4
ENDBRANCH   7  13
BRANCH   9  14
ATOM     14  C   UNL     1     -11.092  -7.281  16.881  0.00  0.00    +0.103 C 
BRANCH  14  25
ATOM      2  O   UNL     1     -10.101  -5.803  15.242  0.00  0.00    -0.276 OA
ATOM      5  N   UNL     1     -12.403  -6.127  15.248  0.00  0.00    -0.313 N 
ATOM     25  C   UNL     1     -11.109  -6.326  15.709  0.00  0.00    +0.214 C 
ATOM     30  H   UNL     1     -13.173  -6.604  15.707  0.00  0.00    +0.149 HD
BRANCH   5  26
ATOM     26  C   UNL     1     -12.720  -5.260  14.137  0.00  0.00    +0.132 C 
BRANCH  26  27
ATOM     27  C   UNL     1     -13.201  -6.050  12.933  0.00  0.00    +0.178 C 
BRANCH  27   3
ATOM      3  O   UNL     1     -13.048  -7.440  13.188  0.00  0.00    -0.381 OA
ATOM     28  C   UNL     1     -12.166  -8.048  12.254  0.00  0.00    +0.194 C 
ENDBRANCH  27   3
ENDBRANCH  26  27
ENDBRANCH   5  26
ENDBRANCH  14  25
ENDBRANCH   9  14
TORSDOF 9
ENDMDL
MODEL 10
REMARK VINA RESULT:      -5.0     22.985     25.544
REMARK  Name = 38027684
REMARK  13 active torsions:
REMARK  status: ('A' for Active; 'I' for Inactive)
REMARK    1  A    between atoms: O_3  and  C_27
REMARK    2  A    between atoms: O_3  and  C_28
REMARK    3  A    between atoms: N_4  and  C_13
REMARK    4  A    between atoms: N_5  and  C_26
REMARK    5  A    between atoms: C_6  and  C_10
REMARK    6  A    between atoms: C_7  and  C_13
REMARK    7  A    between atoms: C_9  and  C_14
REMARK    8  A    between atoms: C_10  and  C_15
REMARK    9  A    between atoms: C_10  and  C_16
REMARK   10  A    between atoms: C_11  and  C_18
REMARK   11  A    between atoms: C_14  and  C_25
REMARK   12  A    between atoms: C_17  and  C_21
REMARK   13  A    between atoms: C_26  and  C_27
REMARK                            x       y       z     vdW  Elec       q    Type
REMARK                         _______ _______ _______ _____ _____    ______ ____
ROOT
ATOM      6  C   UNL     1       9.915   6.786   4.911  0.00  0.00    +0.000 C 
ATOM      7  C   UNL     1      10.424   6.389   3.502  0.00  0.00    +0.032 C 
ATOM      8  C   UNL     1       8.413   7.107   4.868  0.00  0.00    +0.012 C 
ATOM      9  C   UNL     1       8.090   8.254   3.891  0.00  0.00    +0.023 C 
ATOM     11  C   UNL     1       8.781   8.067   2.555  0.00  0.00    -0.073 C 
ATOM     12  C   UNL     1       9.813   7.219   2.397  0.00  0.00    -0.022 C 
ATOM     18  C   UNL     1       8.229   8.842   1.393  0.00  0.00    +0.039 C 
ENDROOT
BRANCH   6  10
ATOM     10  C   UNL     1      10.181   5.686   5.943  0.00  0.00    -0.013 C 
ATOM     15  C   UNL     1       9.422   5.972   7.235  0.00  0.00    +0.007 C 
ATOM     16  C   UNL     1       9.792   4.323   5.378  0.00  0.00    +0.007 C 
ENDBRANCH   6  10
BRANCH   7  13
ATOM     13  C   UNL     1      11.952   6.475   3.421  0.00  0.00    +0.112 C 
BRANCH  13   4
ATOM      1  O   UNL     1      14.379   6.231   1.845  0.00  0.00    -0.276 OA
ATOM      4  N   UNL     1      12.496   5.286   2.843  0.00  0.00    -0.315 N 
ATOM     21  C   UNL     1      13.673   5.258   2.097  0.00  0.00    +0.216 C 
ATOM     29  H   UNL     1      12.050   4.406   3.082  0.00  0.00    +0.149 HD
BRANCH  21  17
ATOM     17  C   UNL     1      14.031   3.877   1.629  0.00  0.00    +0.075 C 
ATOM     19  C   UNL     1      12.797   3.133   1.115  0.00  0.00    +0.013 C 
ATOM     20  C   UNL     1      15.154   3.947   0.592  0.00  0.00    +0.013 C 
ATOM     22  C   UNL     1      12.345   3.589  -0.272  0.00  0.00    +0.001 C 
ATOM     23  C   UNL     1      14.672   4.412  -0.782  0.00  0.00    +0.001 C 
ATOM     24  C   UNL     1      13.494   3.578  -1.275  0.00  0.00    +0.000 C 
ENDBRANCH  21  17
ENDBRANCH  13   4
ENDBRANCH   7  13
BRANCH   9  14
ATOM     14  C   UNL     1       8.439   9.615   4.502  0.00  0.00    +0.103 C 
BRANCH  14  25
ATOM      2  O   UNL     1       7.489  11.839   4.427  0.00  0.00    -0.276 OA
ATOM      5  N   UNL     1       6.140  10.002   3.968  0.00  0.00    -0.313 N 
ATOM     25  C   UNL     1       7.334  10.627   4.302  0.00  0.00    +0.214 C 
ATOM     30  H   UNL     1       6.114   8.990   3.895  0.00  0.00    +0.149 HD
BRANCH   5  26
ATOM     26  C   UNL     1       4.914  10.724   3.721  0.00  0.00    +0.132 C 
BRANCH  26  27
ATOM     27  C   UNL     1       4.222  10.233   2.462  0.00  0.00    +0.178 C 
BRANCH  27   3
ATOM      3  O   UNL     1       5.139  10.266   1.377  0.00  0.00    -0.381 OA
ATOM     28  C   UNL     1       4.464  10.275   0.125  0.00  0.00    +0.194 C 
ENDBRANCH  27   3
ENDBRANCH  26  27
ENDBRANCH   5  26
ENDBRANCH  14  25
ENDBRANCH   9  14
TORSDOF 9
ENDMDL
