MODEL 1
REMARK VINA RESULT:      -6.8      0.000      0.000
REMARK  Name = 26742466
REMARK  6 active torsions:
REMARK  status: ('A' for Active; 'I' for Inactive)
REMARK    1  A    between atoms: N_4  and  C_15
REMARK    2  A    between atoms: N_6  and  C_18
REMARK    3  A    between atoms: C_9  and  C_16
REMARK    4  A    between atoms: C_10  and  C_15
REMARK    5  A    between atoms: C_20  and  C_27
REMARK    6  A    between atoms: C_23  and  C_28
REMARK                            x       y       z     vdW  Elec       q    Type
REMARK                         _______ _______ _______ _____ _____    ______ ____
ROOT
ATOM      3  N   UNL     1      -5.460 -10.889   9.560  0.00  0.00    -0.297 NA
ATOM      8  C   UNL     1      -3.783  -9.279  10.735  0.00  0.00    +0.002 C 
ATOM      9  C   UNL     1      -3.254 -10.740  10.776  0.00  0.00    +0.055 C 
ATOM     10  C   UNL     1      -6.178 -10.035  10.542  0.00  0.00    +0.074 C 
ATOM     11  C   UNL     1      -5.178  -9.223  11.392  0.00  0.00    +0.024 C 
ATOM     12  C   UNL     1      -3.968  -8.915   9.246  0.00  0.00    +0.019 C 
ATOM     13  C   UNL     1      -4.390 -11.660  10.243  0.00  0.00    +0.094 C 
ATOM     14  C   UNL     1      -4.822  -9.997   8.563  0.00  0.00    +0.085 C 
ENDROOT
BRANCH   9  16
ATOM      5  N   UNL     1      -2.234 -10.322  12.960  0.00  0.00    -0.237 NA
ATOM      7  N   UNL     1      -1.585 -12.112  14.437  0.00  0.00    -0.229 NA
ATOM     16  C   UNL     1      -2.660 -11.252  12.080  0.00  0.00    +0.050 A 
ATOM     17  C   UNL     1      -2.584 -12.611  12.304  0.00  0.00    +0.055 A 
ATOM     20  C   UNL     1      -2.032 -12.988  13.512  0.00  0.00    +0.110 A 
ATOM     23  C   UNL     1      -1.716 -10.815  14.101  0.00  0.00    +0.127 A 
ATOM     28  C   UNL     1      -1.234  -9.817  15.099  0.00  0.00    +0.088 C 
BRANCH  20  27
ATOM      2  O   UNL     1      -0.732 -14.964  13.479  0.00  0.00    -0.461 OA
ATOM     27  C   UNL     1      -1.890 -14.372  13.875  0.00  0.00    +0.153 A 
ATOM     29  C   UNL     1      -2.684 -15.269  14.552  0.00  0.00    +0.051 A 
ATOM     30  C   UNL     1      -1.966 -16.489  14.575  0.00  0.00    +0.042 A 
ATOM     31  C   UNL     1      -0.787 -16.251  13.910  0.00  0.00    +0.196 A 
ENDBRANCH  20  27
ENDBRANCH   9  16
BRANCH  10  15
ATOM     15  C   UNL     1      -7.148 -10.837  11.412  0.00  0.00    +0.124 C 
BRANCH  15   4
ATOM      1  O   UNL     1      -6.542 -12.999  13.208  0.00  0.00    -0.253 OA
ATOM      4  N   UNL     1      -6.801 -10.729  12.796  0.00  0.00    -0.298 N 
ATOM      6  N   UNL     1      -6.211 -11.454  14.909  0.00  0.00    -0.297 N 
ATOM     19  C   UNL     1      -6.519 -11.835  13.606  0.00  0.00    +0.300 C 
ATOM     32  H   UNL     1      -6.760  -9.804  13.212  0.00  0.00    +0.150 HD
ATOM     33  H   UNL     1      -6.294 -10.471  15.148  0.00  0.00    +0.151 HD
BRANCH   6  18
ATOM     18  C   UNL     1      -5.880 -12.399  15.952  0.00  0.00    +0.074 C 
ATOM     21  C   UNL     1      -4.413 -12.262  16.374  0.00  0.00    +0.022 C 
ATOM     22  C   UNL     1      -6.820 -12.245  17.153  0.00  0.00    +0.022 C 
ATOM     24  C   UNL     1      -4.150 -10.983  17.168  0.00  0.00    +0.002 C 
ATOM     25  C   UNL     1      -6.552 -10.965  17.945  0.00  0.00    +0.002 C 
ATOM     26  C   UNL     1      -5.089 -10.859  18.364  0.00  0.00    +0.000 C 
ENDBRANCH   6  18
ENDBRANCH  15   4
ENDBRANCH  10  15
TORSDOF 5
ENDMDL
MODEL 2
REMARK VINA RESULT:      -6.6      2.264      6.188
REMARK  Name = 26742466
REMARK  6 active torsions:
REMARK  status: ('A' for Active; 'I' for Inactive)
REMARK    1  A    between atoms: N_4  and  C_15
REMARK    2  A    between atoms: N_6  and  C_18
REMARK    3  A    between atoms: C_9  and  C_16
REMARK    4  A    between atoms: C_10  and  C_15
REMARK    5  A    between atoms: C_20  and  C_27
REMARK    6  A    between atoms: C_23  and  C_28
REMARK                            x       y       z     vdW  Elec       q    Type
REMARK                         _______ _______ _______ _____ _____    ______ ____
ROOT
ATOM      3  N   UNL     1      -7.406 -11.726  17.661  0.00  0.00    -0.297 NA
ATOM      8  C   UNL     1      -5.008 -11.076  18.443  0.00  0.00    +0.002 C 
ATOM      9  C   UNL     1      -5.321 -10.438  17.061  0.00  0.00    +0.055 C 
ATOM     10  C   UNL     1      -6.661 -12.942  18.078  0.00  0.00    +0.074 C 
ATOM     11  C   UNL     1      -5.178 -12.608  18.347  0.00  0.00    +0.024 C 
ATOM     12  C   UNL     1      -6.082 -10.561  19.424  0.00  0.00    +0.019 C 
ATOM     13  C   UNL     1      -6.674 -11.029  16.572  0.00  0.00    +0.094 C 
ATOM     14  C   UNL     1      -7.477 -10.814  18.827  0.00  0.00    +0.085 C 
ENDROOT
BRANCH   9  16
ATOM      5  N   UNL     1      -2.965 -10.405  16.402  0.00  0.00    -0.237 NA
ATOM      7  N   UNL     1      -2.273 -10.580  14.101  0.00  0.00    -0.229 NA
ATOM     16  C   UNL     1      -4.245 -10.490  15.986  0.00  0.00    +0.050 A 
ATOM     17  C   UNL     1      -4.614 -10.621  14.662  0.00  0.00    +0.055 A 
ATOM     20  C   UNL     1      -3.576 -10.660  13.754  0.00  0.00    +0.110 A 
ATOM     23  C   UNL     1      -2.044 -10.456  15.422  0.00  0.00    +0.127 A 
ATOM     28  C   UNL     1      -0.616 -10.366  15.843  0.00  0.00    +0.088 C 
BRANCH  20  27
ATOM      2  O   UNL     1      -5.001 -11.366  12.003  0.00  0.00    -0.461 OA
ATOM     27  C   UNL     1      -3.817 -10.792  12.342  0.00  0.00    +0.153 A 
ATOM     29  C   UNL     1      -3.100 -10.460  11.215  0.00  0.00    +0.051 A 
ATOM     30  C   UNL     1      -3.896 -10.855  10.114  0.00  0.00    +0.042 A 
ATOM     31  C   UNL     1      -5.041 -11.400  10.646  0.00  0.00    +0.196 A 
ENDBRANCH  20  27
ENDBRANCH   9  16
BRANCH  10  15
ATOM     15  C   UNL     1      -6.814 -14.091  17.079  0.00  0.00    +0.124 C 
BRANCH  15   4
ATOM      1  O   UNL     1      -6.327 -14.900  14.364  0.00  0.00    -0.253 OA
ATOM      4  N   UNL     1      -5.552 -14.439  16.503  0.00  0.00    -0.298 N 
ATOM      6  N   UNL     1      -4.069 -15.108  14.863  0.00  0.00    -0.297 N 
ATOM     19  C   UNL     1      -5.397 -14.824  15.166  0.00  0.00    +0.300 C 
ATOM     32  H   UNL     1      -4.726 -14.407  17.094  0.00  0.00    +0.150 HD
ATOM     33  H   UNL     1      -3.393 -15.084  15.620  0.00  0.00    +0.151 HD
BRANCH   6  18
ATOM     18  C   UNL     1      -3.630 -15.530  13.551  0.00  0.00    +0.074 C 
ATOM     21  C   UNL     1      -2.942 -14.382  12.805  0.00  0.00    +0.022 C 
ATOM     22  C   UNL     1      -2.718 -16.758  13.643  0.00  0.00    +0.022 C 
ATOM     24  C   UNL     1      -1.566 -14.052  13.382  0.00  0.00    +0.002 C 
ATOM     25  C   UNL     1      -1.342 -16.423  14.221  0.00  0.00    +0.002 C 
ATOM     26  C   UNL     1      -0.673 -15.287  13.453  0.00  0.00    +0.000 C 
ENDBRANCH   6  18
ENDBRANCH  15   4
ENDBRANCH  10  15
TORSDOF 5
ENDMDL
MODEL 3
REMARK VINA RESULT:      -6.5     22.099     24.553
REMARK  Name = 26742466
REMARK  6 active torsions:
REMARK  status: ('A' for Active; 'I' for Inactive)
REMARK    1  A    between atoms: N_4  and  C_15
REMARK    2  A    between atoms: N_6  and  C_18
REMARK    3  A    between atoms: C_9  and  C_16
REMARK    4  A    between atoms: C_10  and  C_15
REMARK    5  A    between atoms: C_20  and  C_27
REMARK    6  A    between atoms: C_23  and  C_28
REMARK                            x       y       z     vdW  Elec       q    Type
REMARK                         _______ _______ _______ _____ _____    ______ ____
ROOT
ATOM      3  N   UNL     1     -18.677   2.866  26.570  0.00  0.00    -0.297 NA
ATOM      8  C   UNL     1     -16.890   0.993  26.288  0.00  0.00    +0.002 C 
ATOM      9  C   UNL     1     -17.198   1.228  27.793  0.00  0.00    +0.055 C 
ATOM     10  C   UNL     1     -17.594   3.330  25.664  0.00  0.00    +0.074 C 
ATOM     11  C   UNL     1     -16.428   2.319  25.648  0.00  0.00    +0.024 C 
ATOM     12  C   UNL     1     -18.225   0.606  25.616  0.00  0.00    +0.019 C 
ATOM     13  C   UNL     1     -18.110   2.485  27.888  0.00  0.00    +0.094 C 
ATOM     14  C   UNL     1     -19.291   1.660  25.965  0.00  0.00    +0.085 C 
ENDROOT
BRANCH   9  16
ATOM      5  N   UNL     1     -15.222   0.208  28.813  0.00  0.00    -0.237 NA
ATOM      7  N   UNL     1     -13.912   1.342  30.487  0.00  0.00    -0.229 NA
ATOM     16  C   UNL     1     -16.027   1.289  28.764  0.00  0.00    +0.050 A 
ATOM     17  C   UNL     1     -15.842   2.419  29.534  0.00  0.00    +0.055 A 
ATOM     20  C   UNL     1     -14.757   2.389  30.387  0.00  0.00    +0.110 A 
ATOM     23  C   UNL     1     -14.199   0.301  29.683  0.00  0.00    +0.127 A 
ATOM     28  C   UNL     1     -13.285  -0.875  29.766  0.00  0.00    +0.088 C 
BRANCH  20  27
ATOM      2  O   UNL     1     -15.251   4.587  31.110  0.00  0.00    -0.461 OA
ATOM     27  C   UNL     1     -14.448   3.499  31.248  0.00  0.00    +0.153 A 
ATOM     29  C   UNL     1     -13.492   3.723  32.212  0.00  0.00    +0.051 A 
ATOM     30  C   UNL     1     -13.724   5.032  32.698  0.00  0.00    +0.042 A 
ATOM     31  C   UNL     1     -14.804   5.514  31.996  0.00  0.00    +0.196 A 
ENDBRANCH  20  27
ENDBRANCH   9  16
BRANCH  10  15
ATOM     15  C   UNL     1     -17.118   4.744  26.001  0.00  0.00    +0.124 C 
BRANCH  15   4
ATOM      1  O   UNL     1     -17.720   6.233  23.616  0.00  0.00    -0.253 OA
ATOM      4  N   UNL     1     -16.182   5.214  25.026  0.00  0.00    -0.298 N 
ATOM      6  N   UNL     1     -15.455   6.271  23.105  0.00  0.00    -0.297 N 
ATOM     19  C   UNL     1     -16.557   5.935  23.887  0.00  0.00    +0.300 C 
ATOM     32  H   UNL     1     -15.197   5.012  25.166  0.00  0.00    +0.150 HD
ATOM     33  H   UNL     1     -14.548   5.912  23.384  0.00  0.00    +0.151 HD
BRANCH   6  18
ATOM     18  C   UNL     1     -15.559   7.017  21.870  0.00  0.00    +0.074 C 
ATOM     21  C   UNL     1     -15.435   8.523  22.125  0.00  0.00    +0.022 C 
ATOM     22  C   UNL     1     -14.522   6.539  20.849  0.00  0.00    +0.022 C 
ATOM     24  C   UNL     1     -14.011   8.938  22.493  0.00  0.00    +0.002 C 
ATOM     25  C   UNL     1     -13.099   6.958  21.220  0.00  0.00    +0.002 C 
ATOM     26  C   UNL     1     -12.999   8.462  21.456  0.00  0.00    +0.000 C 
ENDBRANCH   6  18
ENDBRANCH  15   4
ENDBRANCH  10  15
TORSDOF 5
ENDMDL
MODEL 4
REMARK VINA RESULT:      -6.5     13.176     17.013
REMARK  Name = 26742466
REMARK  6 active torsions:
REMARK  status: ('A' for Active; 'I' for Inactive)
REMARK    1  A    between atoms: N_4  and  C_15
REMARK    2  A    between atoms: N_6  and  C_18
REMARK    3  A    between atoms: C_9  and  C_16
REMARK    4  A    between atoms: C_10  and  C_15
REMARK    5  A    between atoms: C_20  and  C_27
REMARK    6  A    between atoms: C_23  and  C_28
REMARK                            x       y       z     vdW  Elec       q    Type
REMARK                         _______ _______ _______ _____ _____    ______ ____
ROOT
ATOM      3  N   UNL     1       4.296 -17.422   0.232  0.00  0.00    -0.297 NA
ATOM      8  C   UNL     1       4.046 -15.085   1.355  0.00  0.00    +0.002 C 
ATOM      9  C   UNL     1       2.724 -15.893   1.481  0.00  0.00    +0.055 C 
ATOM     10  C   UNL     1       4.759 -16.359  -0.698  0.00  0.00    +0.074 C 
ATOM     11  C   UNL     1       4.427 -14.960  -0.135  0.00  0.00    +0.024 C 
ATOM     12  C   UNL     1       5.147 -15.925   2.037  0.00  0.00    +0.019 C 
ATOM     13  C   UNL     1       2.883 -17.179   0.620  0.00  0.00    +0.094 C 
ATOM     14  C   UNL     1       5.130 -17.349   1.456  0.00  0.00    +0.085 C 
ENDROOT
BRANCH   9  16
ATOM      5  N   UNL     1       1.098 -14.957  -0.089  0.00  0.00    -0.237 NA
ATOM      7  N   UNL     1      -0.928 -13.883   0.650  0.00  0.00    -0.229 NA
ATOM     16  C   UNL     1       1.413 -15.172   1.205  0.00  0.00    +0.050 A 
ATOM     17  C   UNL     1       0.619 -14.778   2.263  0.00  0.00    +0.055 A 
ATOM     20  C   UNL     1      -0.552 -14.131   1.922  0.00  0.00    +0.110 A 
ATOM     23  C   UNL     1      -0.069 -14.317  -0.291  0.00  0.00    +0.127 A 
ATOM     28  C   UNL     1      -0.452 -14.062  -1.710  0.00  0.00    +0.088 C 
BRANCH  20  27
ATOM      2  O   UNL     1      -2.197 -12.566   2.586  0.00  0.00    -0.461 OA
ATOM     27  C   UNL     1      -1.472 -13.664   2.925  0.00  0.00    +0.153 A 
ATOM     29  C   UNL     1      -1.800 -14.087   4.193  0.00  0.00    +0.051 A 
ATOM     30  C   UNL     1      -2.789 -13.191   4.661  0.00  0.00    +0.042 A 
ATOM     31  C   UNL     1      -2.995 -12.284   3.648  0.00  0.00    +0.196 A 
ENDBRANCH  20  27
ENDBRANCH   9  16
BRANCH  10  15
ATOM     15  C   UNL     1       4.213 -16.547  -2.115  0.00  0.00    +0.124 C 
BRANCH  15   4
ATOM      1  O   UNL     1       2.233 -16.261  -4.179  0.00  0.00    -0.253 OA
ATOM      4  N   UNL     1       3.677 -15.322  -2.623  0.00  0.00    -0.298 N 
ATOM      6  N   UNL     1       2.361 -13.955  -3.941  0.00  0.00    -0.297 N 
ATOM     19  C   UNL     1       2.711 -15.267  -3.634  0.00  0.00    +0.300 C 
ATOM     32  H   UNL     1       4.017 -14.448  -2.232  0.00  0.00    +0.150 HD
ATOM     33  H   UNL     1       2.872 -13.208  -3.482  0.00  0.00    +0.151 HD
BRANCH   6  18
ATOM     18  C   UNL     1       1.384 -13.613  -4.951  0.00  0.00    +0.074 C 
ATOM     21  C   UNL     1       0.706 -12.277  -4.629  0.00  0.00    +0.022 C 
ATOM     22  C   UNL     1       2.018 -13.592  -6.346  0.00  0.00    +0.022 C 
ATOM     24  C   UNL     1       1.638 -11.083  -4.836  0.00  0.00    +0.002 C 
ATOM     25  C   UNL     1       2.948 -12.396  -6.549  0.00  0.00    +0.002 C 
ATOM     26  C   UNL     1       2.246 -11.078  -6.235  0.00  0.00    +0.000 C 
ENDBRANCH   6  18
ENDBRANCH  15   4
ENDBRANCH  10  15
TORSDOF 5
ENDMDL
MODEL 5
REMARK VINA RESULT:      -6.3     23.192     25.779
REMARK  Name = 26742466
REMARK  6 active torsions:
REMARK  status: ('A' for Active; 'I' for Inactive)
REMARK    1  A    between atoms: N_4  and  C_15
REMARK    2  A    between atoms: N_6  and  C_18
REMARK    3  A    between atoms: C_9  and  C_16
REMARK    4  A    between atoms: C_10  and  C_15
REMARK    5  A    between atoms: C_20  and  C_27
REMARK    6  A    between atoms: C_23  and  C_28
REMARK                            x       y       z     vdW  Elec       q    Type
REMARK                         _______ _______ _______ _____ _____    ______ ____
ROOT
ATOM      3  N   UNL     1      10.391   6.940   7.004  0.00  0.00    -0.297 NA
ATOM      8  C   UNL     1       9.262   5.048   5.615  0.00  0.00    +0.002 C 
ATOM      9  C   UNL     1      10.540   5.562   4.896  0.00  0.00    +0.055 C 
ATOM     10  C   UNL     1       8.941   7.226   6.840  0.00  0.00    +0.074 C 
ATOM     11  C   UNL     1       8.298   6.231   5.851  0.00  0.00    +0.024 C 
ATOM     12  C   UNL     1       9.706   4.542   7.004  0.00  0.00    +0.019 C 
ATOM     13  C   UNL     1      11.038   6.814   5.673  0.00  0.00    +0.094 C 
ATOM     14  C   UNL     1      10.521   5.642   7.707  0.00  0.00    +0.085 C 
ENDROOT
BRANCH   9  16
ATOM      5  N   UNL     1       9.859   6.938   2.991  0.00  0.00    -0.237 NA
ATOM      7  N   UNL     1      10.315   6.293   0.714  0.00  0.00    -0.229 NA
ATOM     16  C   UNL     1      10.470   5.805   3.395  0.00  0.00    +0.050 A 
ATOM     17  C   UNL     1      11.021   4.881   2.531  0.00  0.00    +0.055 A 
ATOM     20  C   UNL     1      10.913   5.180   1.188  0.00  0.00    +0.110 A 
ATOM     23  C   UNL     1       9.818   7.116   1.657  0.00  0.00    +0.127 A 
ATOM     28  C   UNL     1       9.151   8.358   1.171  0.00  0.00    +0.088 C 
BRANCH  20  27
ATOM      2  O   UNL     1      10.623   4.072  -0.882  0.00  0.00    -0.461 OA
ATOM     27  C   UNL     1      11.442   4.303   0.178  0.00  0.00    +0.153 A 
ATOM     29  C   UNL     1      12.628   3.619   0.031  0.00  0.00    +0.051 A 
ATOM     30  C   UNL     1      12.529   2.925  -1.198  0.00  0.00    +0.042 A 
ATOM     31  C   UNL     1      11.292   3.232  -1.714  0.00  0.00    +0.196 A 
ENDBRANCH  20  27
ENDBRANCH   9  16
BRANCH  10  15
ATOM     15  C   UNL     1       8.675   8.679   6.441  0.00  0.00    +0.124 C 
BRANCH  15   4
ATOM      1  O   UNL     1       8.433  10.779   4.492  0.00  0.00    -0.253 OA
ATOM      4  N   UNL     1       7.727   8.750   5.373  0.00  0.00    -0.298 N 
ATOM      6  N   UNL     1       6.660   9.634   3.524  0.00  0.00    -0.297 N 
ATOM     19  C   UNL     1       7.673   9.811   4.461  0.00  0.00    +0.300 C 
ATOM     32  H   UNL     1       7.056   7.994   5.272  0.00  0.00    +0.150 HD
ATOM     33  H   UNL     1       6.044   8.835   3.635  0.00  0.00    +0.151 HD
BRANCH   6  18
ATOM     18  C   UNL     1       6.385  10.583   2.467  0.00  0.00    +0.074 C 
ATOM     21  C   UNL     1       5.639   9.914   1.308  0.00  0.00    +0.022 C 
ATOM     22  C   UNL     1       5.612  11.793   3.001  0.00  0.00    +0.022 C 
ATOM     24  C   UNL     1       4.190   9.578   1.661  0.00  0.00    +0.002 C 
ATOM     25  C   UNL     1       4.163  11.453   3.352  0.00  0.00    +0.002 C 
ATOM     26  C   UNL     1       3.439  10.801   2.178  0.00  0.00    +0.000 C 
ENDBRANCH   6  18
ENDBRANCH  15   4
ENDBRANCH  10  15
TORSDOF 5
ENDMDL
MODEL 6
REMARK VINA RESULT:      -6.2      3.641      6.688
REMARK  Name = 26742466
REMARK  6 active torsions:
REMARK  status: ('A' for Active; 'I' for Inactive)
REMARK    1  A    between atoms: N_4  and  C_15
REMARK    2  A    between atoms: N_6  and  C_18
REMARK    3  A    between atoms: C_9  and  C_16
REMARK    4  A    between atoms: C_10  and  C_15
REMARK    5  A    between atoms: C_20  and  C_27
REMARK    6  A    between atoms: C_23  and  C_28
REMARK                            x       y       z     vdW  Elec       q    Type
REMARK                         _______ _______ _______ _____ _____    ______ ____
ROOT
ATOM      3  N   UNL     1      -6.581 -10.479  17.827  0.00  0.00    -0.297 NA
ATOM      8  C   UNL     1      -4.711 -12.291  17.778  0.00  0.00    +0.002 C 
ATOM      9  C   UNL     1      -4.383 -11.145  16.782  0.00  0.00    +0.055 C 
ATOM     10  C   UNL     1      -7.185 -11.827  17.668  0.00  0.00    +0.074 C 
ATOM     11  C   UNL     1      -6.091 -12.890  17.430  0.00  0.00    +0.024 C 
ATOM     12  C   UNL     1      -4.836 -11.646  19.174  0.00  0.00    +0.019 C 
ATOM     13  C   UNL     1      -5.628 -10.214  16.719  0.00  0.00    +0.094 C 
ATOM     14  C   UNL     1      -5.823 -10.467  19.101  0.00  0.00    +0.085 C 
ENDROOT
BRANCH   9  16
ATOM      5  N   UNL     1      -3.271 -12.722  15.278  0.00  0.00    -0.237 NA
ATOM      7  N   UNL     1      -2.935 -12.246  12.940  0.00  0.00    -0.229 NA
ATOM     16  C   UNL     1      -3.872 -11.520  15.398  0.00  0.00    +0.050 A 
ATOM     17  C   UNL     1      -4.040 -10.638  14.350  0.00  0.00    +0.055 A 
ATOM     20  C   UNL     1      -3.547 -11.058  13.132  0.00  0.00    +0.110 A 
ATOM     23  C   UNL     1      -2.833 -13.016  14.039  0.00  0.00    +0.127 A 
ATOM     28  C   UNL     1      -2.164 -14.338  13.866  0.00  0.00    +0.088 C 
BRANCH  20  27
ATOM      2  O   UNL     1      -4.863  -9.650  11.760  0.00  0.00    -0.461 OA
ATOM     27  C   UNL     1      -3.653 -10.238  11.955  0.00  0.00    +0.153 A 
ATOM     29  C   UNL     1      -2.783  -9.899  10.943  0.00  0.00    +0.051 A 
ATOM     30  C   UNL     1      -3.505  -9.048  10.073  0.00  0.00    +0.042 A 
ATOM     31  C   UNL     1      -4.764  -8.928  10.614  0.00  0.00    +0.196 A 
ENDBRANCH  20  27
ENDBRANCH   9  16
BRANCH  10  15
ATOM     15  C   UNL     1      -8.259 -11.860  16.579  0.00  0.00    +0.124 C 
BRANCH  15   4
ATOM      1  O   UNL     1      -8.791 -10.071  14.393  0.00  0.00    -0.253 OA
ATOM      4  N   UNL     1      -9.062 -10.677  16.618  0.00  0.00    -0.298 N 
ATOM      6  N   UNL     1     -10.092  -8.772  15.812  0.00  0.00    -0.297 N 
ATOM     19  C   UNL     1      -9.273  -9.855  15.504  0.00  0.00    +0.300 C 
ATOM     32  H   UNL     1      -9.499 -10.419  17.497  0.00  0.00    +0.150 HD
ATOM     33  H   UNL     1     -10.375  -8.650  16.779  0.00  0.00    +0.151 HD
BRANCH   6  18
ATOM     18  C   UNL     1     -10.470  -7.766  14.844  0.00  0.00    +0.074 C 
ATOM     21  C   UNL     1     -11.857  -8.058  14.261  0.00  0.00    +0.022 C 
ATOM     22  C   UNL     1     -10.408  -6.362  15.455  0.00  0.00    +0.022 C 
ATOM     24  C   UNL     1     -12.979  -7.803  15.267  0.00  0.00    +0.002 C 
ATOM     25  C   UNL     1     -11.533  -6.111  16.459  0.00  0.00    +0.002 C 
ATOM     26  C   UNL     1     -12.903  -6.396  15.851  0.00  0.00    +0.000 C 
ENDBRANCH   6  18
ENDBRANCH  15   4
ENDBRANCH  10  15
TORSDOF 5
ENDMDL
MODEL 7
REMARK VINA RESULT:      -6.2      3.247      8.322
REMARK  Name = 26742466
REMARK  6 active torsions:
REMARK  status: ('A' for Active; 'I' for Inactive)
REMARK    1  A    between atoms: N_4  and  C_15
REMARK    2  A    between atoms: N_6  and  C_18
REMARK    3  A    between atoms: C_9  and  C_16
REMARK    4  A    between atoms: C_10  and  C_15
REMARK    5  A    between atoms: C_20  and  C_27
REMARK    6  A    between atoms: C_23  and  C_28
REMARK                            x       y       z     vdW  Elec       q    Type
REMARK                         _______ _______ _______ _____ _____    ______ ____
ROOT
ATOM      3  N   UNL     1      -5.148 -12.943  17.086  0.00  0.00    -0.297 NA
ATOM      8  C   UNL     1      -5.384 -10.360  17.313  0.00  0.00    +0.002 C 
ATOM      9  C   UNL     1      -6.759 -11.004  16.983  0.00  0.00    +0.055 C 
ATOM     10  C   UNL     1      -4.114 -12.264  16.262  0.00  0.00    +0.074 C 
ATOM     11  C   UNL     1      -4.365 -10.742  16.219  0.00  0.00    +0.024 C 
ATOM     12  C   UNL     1      -4.897 -11.001  18.630  0.00  0.00    +0.019 C 
ATOM     13  C   UNL     1      -6.503 -12.505  16.665  0.00  0.00    +0.094 C 
ATOM     14  C   UNL     1      -4.947 -12.533  18.496  0.00  0.00    +0.085 C 
ENDROOT
BRANCH   9  16
ATOM      5  N   UNL     1      -7.405 -10.669  14.647  0.00  0.00    -0.237 NA
ATOM      7  N   UNL     1      -9.172  -9.160  14.008  0.00  0.00    -0.229 NA
ATOM     16  C   UNL     1      -7.634 -10.333  15.934  0.00  0.00    +0.050 A 
ATOM     17  C   UNL     1      -8.600  -9.431  16.331  0.00  0.00    +0.055 A 
ATOM     20  C   UNL     1      -9.346  -8.869  15.315  0.00  0.00    +0.110 A 
ATOM     23  C   UNL     1      -8.199 -10.054  13.750  0.00  0.00    +0.127 A 
ATOM     28  C   UNL     1      -7.978 -10.400  12.317  0.00  0.00    +0.088 C 
BRANCH  20  27
ATOM      2  O   UNL     1     -11.622  -8.438  15.794  0.00  0.00    -0.461 OA
ATOM     27  C   UNL     1     -10.386  -7.913  15.587  0.00  0.00    +0.153 A 
ATOM     29  C   UNL     1     -10.420  -6.541  15.687  0.00  0.00    +0.051 A 
ATOM     30  C   UNL     1     -11.763  -6.202  15.976  0.00  0.00    +0.042 A 
ATOM     31  C   UNL     1     -12.454  -7.390  16.030  0.00  0.00    +0.196 A 
ENDBRANCH  20  27
ENDBRANCH   9  16
BRANCH  10  15
ATOM     15  C   UNL     1      -4.001 -12.864  14.859  0.00  0.00    +0.124 C 
BRANCH  15   4
ATOM      1  O   UNL     1      -2.812 -12.756  12.243  0.00  0.00    -0.253 OA
ATOM      4  N   UNL     1      -4.224 -11.866  13.858  0.00  0.00    -0.298 N 
ATOM      6  N   UNL     1      -3.993 -10.803  11.820  0.00  0.00    -0.297 N 
ATOM     19  C   UNL     1      -3.604 -11.885  12.603  0.00  0.00    +0.300 C 
ATOM     32  H   UNL     1      -4.862 -11.105  14.069  0.00  0.00    +0.150 HD
ATOM     33  H   UNL     1      -4.595 -10.103  12.243  0.00  0.00    +0.151 HD
BRANCH   6  18
ATOM     18  C   UNL     1      -3.502 -10.579  10.478  0.00  0.00    +0.074 C 
ATOM     21  C   UNL     1      -4.356 -11.327   9.448  0.00  0.00    +0.022 C 
ATOM     22  C   UNL     1      -3.431  -9.082  10.159  0.00  0.00    +0.022 C 
ATOM     24  C   UNL     1      -5.737 -10.698   9.266  0.00  0.00    +0.002 C 
ATOM     25  C   UNL     1      -4.815  -8.457   9.976  0.00  0.00    +0.002 C 
ATOM     26  C   UNL     1      -5.640  -9.211   8.938  0.00  0.00    +0.000 C 
ENDBRANCH   6  18
ENDBRANCH  15   4
ENDBRANCH  10  15
TORSDOF 5
ENDMDL
MODEL 8
REMARK VINA RESULT:      -6.2     24.324     27.438
REMARK  Name = 26742466
REMARK  6 active torsions:
REMARK  status: ('A' for Active; 'I' for Inactive)
REMARK    1  A    between atoms: N_4  and  C_15
REMARK    2  A    between atoms: N_6  and  C_18
REMARK    3  A    between atoms: C_9  and  C_16
REMARK    4  A    between atoms: C_10  and  C_15
REMARK    5  A    between atoms: C_20  and  C_27
REMARK    6  A    between atoms: C_23  and  C_28
REMARK                            x       y       z     vdW  Elec       q    Type
REMARK                         _______ _______ _______ _____ _____    ______ ____
ROOT
ATOM      3  N   UNL     1      18.699  -2.803  31.489  0.00  0.00    -0.297 NA
ATOM      8  C   UNL     1      16.191  -2.339  30.964  0.00  0.00    +0.002 C 
ATOM      9  C   UNL     1      16.394  -3.823  31.375  0.00  0.00    +0.055 C 
ATOM     10  C   UNL     1      18.574  -2.114  30.178  0.00  0.00    +0.074 C 
ATOM     11  C   UNL     1      17.093  -2.016  29.754  0.00  0.00    +0.024 C 
ATOM     12  C   UNL     1      16.691  -1.478  32.144  0.00  0.00    +0.019 C 
ATOM     13  C   UNL     1      17.927  -4.072  31.473  0.00  0.00    +0.094 C 
ATOM     14  C   UNL     1      18.115  -1.919  32.525  0.00  0.00    +0.085 C 
ENDROOT
BRANCH   9  16
ATOM      5  N   UNL     1      14.451  -5.253  30.969  0.00  0.00    -0.237 NA
ATOM      7  N   UNL     1      14.369  -6.818  29.139  0.00  0.00    -0.229 NA
ATOM     16  C   UNL     1      15.687  -4.897  30.561  0.00  0.00    +0.050 A 
ATOM     17  C   UNL     1      16.322  -5.448  29.466  0.00  0.00    +0.055 A 
ATOM     20  C   UNL     1      15.608  -6.414  28.786  0.00  0.00    +0.110 A 
ATOM     23  C   UNL     1      13.859  -6.204  30.223  0.00  0.00    +0.127 A 
ATOM     28  C   UNL     1      12.490  -6.624  30.641  0.00  0.00    +0.088 C 
BRANCH  20  27
ATOM      2  O   UNL     1      17.497  -7.256  27.638  0.00  0.00    -0.461 OA
ATOM     27  C   UNL     1      16.150  -7.073  27.628  0.00  0.00    +0.153 A 
ATOM     29  C   UNL     1      15.602  -7.579  26.472  0.00  0.00    +0.051 A 
ATOM     30  C   UNL     1      16.682  -8.106  25.724  0.00  0.00    +0.042 A 
ATOM     31  C   UNL     1      17.812  -7.885  26.476  0.00  0.00    +0.196 A 
ENDBRANCH  20  27
ENDBRANCH   9  16
BRANCH  10  15
ATOM     15  C   UNL     1      19.435  -2.764  29.093  0.00  0.00    +0.124 C 
BRANCH  15   4
ATOM      1  O   UNL     1      19.130  -4.537  26.850  0.00  0.00    -0.253 OA
ATOM      4  N   UNL     1      18.960  -2.420  27.789  0.00  0.00    -0.298 N 
ATOM      6  N   UNL     1      18.353  -2.752  25.584  0.00  0.00    -0.297 N 
ATOM     19  C   UNL     1      18.840  -3.346  26.745  0.00  0.00    +0.300 C 
ATOM     32  H   UNL     1      18.698  -1.455  27.609  0.00  0.00    +0.150 HD
ATOM     33  H   UNL     1      18.216  -1.747  25.586  0.00  0.00    +0.151 HD
BRANCH   6  18
ATOM     18  C   UNL     1      18.134  -3.482  24.355  0.00  0.00    +0.074 C 
ATOM     21  C   UNL     1      16.689  -3.983  24.263  0.00  0.00    +0.022 C 
ATOM     22  C   UNL     1      18.506  -2.632  23.135  0.00  0.00    +0.022 C 
ATOM     24  C   UNL     1      15.693  -2.852  24.008  0.00  0.00    +0.002 C 
ATOM     25  C   UNL     1      17.506  -1.503  22.883  0.00  0.00    +0.002 C 
ATOM     26  C   UNL     1      16.077  -2.029  22.783  0.00  0.00    +0.000 C 
ENDBRANCH   6  18
ENDBRANCH  15   4
ENDBRANCH  10  15
TORSDOF 5
ENDMDL
MODEL 9
REMARK VINA RESULT:      -6.1     24.408     27.628
REMARK  Name = 26742466
REMARK  6 active torsions:
REMARK  status: ('A' for Active; 'I' for Inactive)
REMARK    1  A    between atoms: N_4  and  C_15
REMARK    2  A    between atoms: N_6  and  C_18
REMARK    3  A    between atoms: C_9  and  C_16
REMARK    4  A    between atoms: C_10  and  C_15
REMARK    5  A    between atoms: C_20  and  C_27
REMARK    6  A    between atoms: C_23  and  C_28
REMARK                            x       y       z     vdW  Elec       q    Type
REMARK                         _______ _______ _______ _____ _____    ______ ____
ROOT
ATOM      3  N   UNL     1      18.575  -2.832  31.412  0.00  0.00    -0.297 NA
ATOM      8  C   UNL     1      16.132  -1.958  31.178  0.00  0.00    +0.002 C 
ATOM      9  C   UNL     1      16.151  -3.329  31.911  0.00  0.00    +0.055 C 
ATOM     10  C   UNL     1      18.311  -2.429  30.006  0.00  0.00    +0.074 C 
ATOM     11  C   UNL     1      16.816  -2.105  29.802  0.00  0.00    +0.024 C 
ATOM     12  C   UNL     1      17.000  -0.994  32.015  0.00  0.00    +0.019 C 
ATOM     13  C   UNL     1      17.606  -3.876  31.832  0.00  0.00    +0.094 C 
ATOM     14  C   UNL     1      18.372  -1.641  32.271  0.00  0.00    +0.085 C 
ENDROOT
BRANCH   9  16
ATOM      5  N   UNL     1      15.389  -5.099  30.404  0.00  0.00    -0.237 NA
ATOM      7  N   UNL     1      13.304  -6.259  30.739  0.00  0.00    -0.229 NA
ATOM     16  C   UNL     1      15.119  -4.372  31.508  0.00  0.00    +0.050 A 
ATOM     17  C   UNL     1      13.979  -4.529  32.270  0.00  0.00    +0.055 A 
ATOM     20  C   UNL     1      13.098  -5.497  31.834  0.00  0.00    +0.110 A 
ATOM     23  C   UNL     1      14.453  -6.011  30.082  0.00  0.00    +0.127 A 
ATOM     28  C   UNL     1      14.715  -6.836  28.868  0.00  0.00    +0.088 C 
BRANCH  20  27
ATOM      2  O   UNL     1      11.288  -4.688  33.125  0.00  0.00    -0.461 OA
ATOM     27  C   UNL     1      11.869  -5.764  32.532  0.00  0.00    +0.153 A 
ATOM     29  C   UNL     1      11.119  -6.898  32.748  0.00  0.00    +0.051 A 
ATOM     30  C   UNL     1      10.007  -6.490  33.522  0.00  0.00    +0.042 A 
ATOM     31  C   UNL     1      10.156  -5.138  33.725  0.00  0.00    +0.196 A 
ENDBRANCH  20  27
ENDBRANCH   9  16
BRANCH  10  15
ATOM     15  C   UNL     1      18.812  -3.466  28.999  0.00  0.00    +0.124 C 
BRANCH  15   4
ATOM      1  O   UNL     1      19.828  -3.753  26.324  0.00  0.00    -0.253 OA
ATOM      4  N   UNL     1      18.057  -3.406  27.786  0.00  0.00    -0.298 N 
ATOM      6  N   UNL     1      17.675  -3.456  25.507  0.00  0.00    -0.297 N 
ATOM     19  C   UNL     1      18.629  -3.556  26.516  0.00  0.00    +0.300 C 
ATOM     32  H   UNL     1      17.056  -3.245  27.847  0.00  0.00    +0.150 HD
ATOM     33  H   UNL     1      16.725  -3.220  25.774  0.00  0.00    +0.151 HD
BRANCH   6  18
ATOM     18  C   UNL     1      17.995  -3.573  24.102  0.00  0.00    +0.074 C 
ATOM     21  C   UNL     1      16.752  -3.936  23.282  0.00  0.00    +0.022 C 
ATOM     22  C   UNL     1      18.651  -2.292  23.577  0.00  0.00    +0.022 C 
ATOM     24  C   UNL     1      15.766  -2.774  23.170  0.00  0.00    +0.002 C 
ATOM     25  C   UNL     1      17.661  -1.132  23.465  0.00  0.00    +0.002 C 
ATOM     26  C   UNL     1      16.440  -1.514  22.635  0.00  0.00    +0.000 C 
ENDBRANCH   6  18
ENDBRANCH  15   4
ENDBRANCH  10  15
TORSDOF 5
ENDMDL
MODEL 10
REMARK VINA RESULT:      -6.1     21.921     23.920
REMARK  Name = 26742466
REMARK  6 active torsions:
REMARK  status: ('A' for Active; 'I' for Inactive)
REMARK    1  A    between atoms: N_4  and  C_15
REMARK    2  A    between atoms: N_6  and  C_18
REMARK    3  A    between atoms: C_9  and  C_16
REMARK    4  A    between atoms: C_10  and  C_15
REMARK    5  A    between atoms: C_20  and  C_27
REMARK    6  A    between atoms: C_23  and  C_28
REMARK                            x       y       z     vdW  Elec       q    Type
REMARK                         _______ _______ _______ _____ _____    ______ ____
ROOT
ATOM      3  N   UNL     1     -17.126   5.405  22.992  0.00  0.00    -0.297 NA
ATOM      8  C   UNL     1     -16.562   3.130  24.128  0.00  0.00    +0.002 C 
ATOM      9  C   UNL     1     -17.387   4.028  25.090  0.00  0.00    +0.055 C 
ATOM     10  C   UNL     1     -15.674   5.117  22.858  0.00  0.00    +0.074 C 
ATOM     11  C   UNL     1     -15.284   3.882  23.699  0.00  0.00    +0.024 C 
ATOM     12  C   UNL     1     -17.418   2.932  22.859  0.00  0.00    +0.019 C 
ATOM     13  C   UNL     1     -17.509   5.430  24.427  0.00  0.00    +0.094 C 
ATOM     14  C   UNL     1     -17.870   4.306  22.333  0.00  0.00    +0.085 C 
ENDROOT
BRANCH   9  16
ATOM      5  N   UNL     1     -17.201   5.274  27.188  0.00  0.00    -0.237 NA
ATOM      7  N   UNL     1     -16.185   4.327  29.157  0.00  0.00    -0.229 NA
ATOM     16  C   UNL     1     -16.949   4.114  26.545  0.00  0.00    +0.050 A 
ATOM     17  C   UNL     1     -16.328   3.031  27.133  0.00  0.00    +0.055 A 
ATOM     20  C   UNL     1     -15.964   3.196  28.454  0.00  0.00    +0.110 A 
ATOM     23  C   UNL     1     -16.799   5.310  28.472  0.00  0.00    +0.127 A 
ATOM     28  C   UNL     1     -17.060   6.576  29.216  0.00  0.00    +0.088 C 
BRANCH  20  27
ATOM      2  O   UNL     1     -14.205   2.527  29.886  0.00  0.00    -0.461 OA
ATOM     27  C   UNL     1     -15.308   2.148  29.189  0.00  0.00    +0.153 A 
ATOM     29  C   UNL     1     -15.546   0.802  29.354  0.00  0.00    +0.051 A 
ATOM     30  C   UNL     1     -14.524   0.326  30.209  0.00  0.00    +0.042 A 
ATOM     31  C   UNL     1     -13.734   1.412  30.504  0.00  0.00    +0.196 A 
ENDBRANCH  20  27
ENDBRANCH   9  16
BRANCH  10  15
ATOM     15  C   UNL     1     -14.805   6.331  23.191  0.00  0.00    +0.124 C 
BRANCH  15   4
ATOM      1  O   UNL     1     -12.488   5.885  21.548  0.00  0.00    -0.253 OA
ATOM      4  N   UNL     1     -14.448   7.045  22.004  0.00  0.00    -0.298 N 
ATOM      6  N   UNL     1     -13.185   7.604  20.152  0.00  0.00    -0.297 N 
ATOM     19  C   UNL     1     -13.297   6.766  21.257  0.00  0.00    +0.300 C 
ATOM     32  H   UNL     1     -15.057   7.793  21.689  0.00  0.00    +0.150 HD
ATOM     33  H   UNL     1     -13.871   8.345  20.046  0.00  0.00    +0.151 HD
BRANCH   6  18
ATOM     18  C   UNL     1     -12.089   7.531  19.211  0.00  0.00    +0.074 C 
ATOM     21  C   UNL     1     -12.508   8.060  17.835  0.00  0.00    +0.022 C 
ATOM     22  C   UNL     1     -10.858   8.274  19.740  0.00  0.00    +0.022 C 
ATOM     24  C   UNL     1     -12.686   9.578  17.822  0.00  0.00    +0.002 C 
ATOM     25  C   UNL     1     -11.039   9.792  19.724  0.00  0.00    +0.002 C 
ATOM     26  C   UNL     1     -11.444  10.295  18.341  0.00  0.00    +0.000 C 
ENDBRANCH   6  18
ENDBRANCH  15   4
ENDBRANCH  10  15
TORSDOF 5
ENDMDL
