REMARK  Name = 51136895
REMARK  9 active torsions:
REMARK  status: ('A' for Active; 'I' for Inactive)
REMARK    1  A    between atoms: O_3  and  C_27
REMARK    2  A    between atoms: O_3  and  C_30
REMARK    3  A    between atoms: N_4  and  C_13
REMARK    4  A    between atoms: N_8  and  C_22
REMARK    5  A    between atoms: C_9  and  C_14
REMARK    6  A    between atoms: C_13  and  C_15
REMARK    7  A    between atoms: C_13  and  C_16
REMARK    8  A    between atoms: C_17  and  C_18
REMARK    9  A    between atoms: C_23  and  C_24
REMARK                            x       y       z     vdW  Elec       q    Type
REMARK                         _______ _______ _______ _____ _____    ______ ____
ROOT
ATOM      7  N   UNL     1      -1.029   1.879   0.265  0.00  0.00    -0.239 NA
ATOM     18  C   UNL     1       1.187   0.989  -0.113  0.00  0.00    +0.041 A 
ATOM     19  C   UNL     1       0.645  -0.259  -0.400  0.00  0.00    +0.016 A 
ATOM     20  C   UNL     1       0.315   2.016   0.211  0.00  0.00    +0.124 A 
ATOM     21  C   UNL     1      -0.733  -0.439  -0.355  0.00  0.00    +0.044 A 
ATOM     22  C   UNL     1      -1.519   0.652  -0.020  0.00  0.00    +0.125 A 
ENDROOT
BRANCH  18  17
ATOM      1  O   UNL     1       4.525   2.136  -0.040  0.00  0.00    -0.336 OA
ATOM      5  N   UNL     1       3.474   0.204  -0.468  0.00  0.00    -0.190 NA
ATOM      6  N   UNL     1       3.157   2.393   0.118  0.00  0.00    -0.056 NA
ATOM     14  C   UNL     1       4.624   0.825  -0.385  0.00  0.00    +0.245 A 
ATOM     17  C   UNL     1       2.604   1.206  -0.151  0.00  0.00    +0.204 A 
BRANCH  14   9
ATOM      4  N   UNL     1       6.434  -0.876   0.189  0.00  0.00    -0.289 NA
ATOM      9  C   UNL     1       6.030   0.289  -0.617  0.00  0.00    +0.146 C 
ATOM     10  C   UNL     1       6.289  -0.222  -2.041  0.00  0.00    +0.030 C 
ATOM     11  C   UNL     1       5.965  -2.073  -0.497  0.00  0.00    +0.085 C 
ATOM     12  C   UNL     1       6.167  -1.744  -1.969  0.00  0.00    +0.017 C 
BRANCH   4  13
ATOM     13  C   UNL     1       6.096  -0.841   1.600  0.00  0.00    +0.051 C 
ATOM     15  C   UNL     1       6.604   0.452   2.233  0.00  0.00    +0.024 C 
ATOM     16  C   UNL     1       6.691  -2.062   2.294  0.00  0.00    +0.024 C 
ENDBRANCH   4  13
ENDBRANCH  14   9
ENDBRANCH  18  17
BRANCH  22   8
ATOM      2  O   UNL     1      -3.151  -1.808  -0.548  0.00  0.00    -0.270 OA
ATOM      8  N   UNL     1      -2.905   0.459   0.022  0.00  0.00    -0.266 N 
ATOM     23  C   UNL     1      -3.616  -0.717  -0.234  0.00  0.00    +0.249 C 
ATOM     31  H   UNL     1      -3.409   1.290   0.317  0.00  0.00    +0.157 HD
BRANCH  23  24
ATOM     24  C   UNL     1      -5.091  -0.613  -0.079  0.00  0.00    +0.037 A 
ATOM     25  C   UNL     1      -5.839  -1.744   0.249  0.00  0.00    +0.016 A 
ATOM     26  C   UNL     1      -5.727   0.615  -0.261  0.00  0.00    +0.016 A 
ATOM     27  C   UNL     1      -7.859  -0.419   0.212  0.00  0.00    +0.120 A 
ATOM     28  C   UNL     1      -7.223  -1.647   0.394  0.00  0.00    +0.046 A 
ATOM     29  C   UNL     1      -7.111   0.712  -0.116  0.00  0.00    +0.046 A 
BRANCH  27   3
ATOM      3  O   UNL     1      -9.209  -0.324   0.353  0.00  0.00    -0.495 OA
ATOM     30  C   UNL     1      -9.794   0.962   0.153  0.00  0.00    +0.277 C 
ENDBRANCH  27   3
ENDBRANCH  23  24
ENDBRANCH  22   8
TORSDOF 6
