MODEL 1
REMARK VINA RESULT:      -6.9      0.000      0.000
REMARK  Name = 11885189
REMARK  3 active torsions:
REMARK  status: ('A' for Active; 'I' for Inactive)
REMARK    1  A    between atoms: S_1  and  N_7
REMARK    2  A    between atoms: S_1  and  C_20
REMARK    3  A    between atoms: C_18  and  C_21
REMARK                            x       y       z     vdW  Elec       q    Type
REMARK                         _______ _______ _______ _____ _____    ______ ____
ROOT
ATOM      6  O   UNL     1      15.165   9.949  22.715  0.00  0.00    -0.267 OA
ATOM      7  N   UNL     1      12.321   8.160  19.031  0.00  0.00    -0.175 NA
ATOM      8  N   UNL     1      13.097   9.247  21.894  0.00  0.00    -0.311 N 
ATOM      9  C   UNL     1      12.660   6.843  21.126  0.00  0.00    +0.025 C 
ATOM     10  C   UNL     1      10.857   8.506  21.011  0.00  0.00    +0.052 C 
ATOM     11  C   UNL     1      11.222   7.122  21.540  0.00  0.00    +0.017 C 
ATOM     12  C   UNL     1      12.797   6.863  19.595  0.00  0.00    +0.114 C 
ATOM     13  C   UNL     1      10.937   8.508  19.474  0.00  0.00    +0.119 C 
ATOM     14  C   UNL     1      13.581   7.863  21.809  0.00  0.00    +0.130 C 
ATOM     15  C   UNL     1      11.772   9.570  21.589  0.00  0.00    +0.026 A 
ATOM     16  C   UNL     1      11.320  10.819  21.786  0.00  0.00    +0.022 A 
ATOM     17  C   UNL     1      14.000  10.203  22.400  0.00  0.00    +0.260 A 
ATOM     18  C   UNL     1      13.475  11.603  22.576  0.00  0.00    +0.053 A 
ATOM     19  C   UNL     1      12.189  11.848  22.281  0.00  0.00    +0.016 A 
ENDROOT
BRANCH  18  21
ATOM      3  S   UNL     1      14.277  13.174  24.698  0.00  0.00    -0.096 S 
ATOM     21  C   UNL     1      14.346  12.691  23.053  0.00  0.00    +0.024 A 
ATOM     24  C   UNL     1      15.269  13.437  22.343  0.00  0.00    +0.016 A 
ATOM     26  C   UNL     1      15.921  14.408  23.157  0.00  0.00    +0.008 A 
ATOM     27  C   UNL     1      15.477  14.372  24.460  0.00  0.00    +0.046 A 
ENDBRANCH  18  21
BRANCH   7   1
ATOM      1  S   UNL     1      12.652   8.412  17.372  0.00  0.00    +0.067 S 
ATOM      4  O   UNL     1      11.396   8.495  16.658  0.00  0.00    -0.152 OA
ATOM      5  O   UNL     1      13.712   7.516  16.957  0.00  0.00    -0.152 OA
BRANCH   1  20
ATOM      2  S   UNL     1      13.987  10.368  15.657  0.00  0.00    -0.077 S 
ATOM     20  C   UNL     1      13.379  10.039  17.210  0.00  0.00    +0.143 A 
ATOM     22  C   UNL     1      13.538  11.058  18.091  0.00  0.00    +0.036 A 
ATOM     23  C   UNL     1      14.186  12.169  17.478  0.00  0.00    +0.010 A 
ATOM     25  C   UNL     1      14.486  11.929  16.155  0.00  0.00    +0.047 A 
ENDBRANCH   1  20
ENDBRANCH   7   1
TORSDOF 3
ENDMDL
MODEL 2
REMARK VINA RESULT:      -6.4     24.584     26.955
REMARK  Name = 11885189
REMARK  3 active torsions:
REMARK  status: ('A' for Active; 'I' for Inactive)
REMARK    1  A    between atoms: S_1  and  N_7
REMARK    2  A    between atoms: S_1  and  C_20
REMARK    3  A    between atoms: C_18  and  C_21
REMARK                            x       y       z     vdW  Elec       q    Type
REMARK                         _______ _______ _______ _____ _____    ______ ____
ROOT
ATOM      6  O   UNL     1     -14.974   9.256  19.978  0.00  0.00    -0.267 OA
ATOM      7  N   UNL     1     -11.430   9.549  16.484  0.00  0.00    -0.175 NA
ATOM      8  N   UNL     1     -12.731   9.425  19.360  0.00  0.00    -0.311 N 
ATOM      9  C   UNL     1     -11.801  11.437  18.076  0.00  0.00    +0.025 C 
ATOM     10  C   UNL     1     -10.305   9.592  18.701  0.00  0.00    +0.052 C 
ATOM     11  C   UNL     1     -10.494  11.104  18.783  0.00  0.00    +0.017 C 
ATOM     12  C   UNL     1     -11.746  11.002  16.603  0.00  0.00    +0.114 C 
ATOM     13  C   UNL     1     -10.192   9.165  17.227  0.00  0.00    +0.119 C 
ATOM     14  C   UNL     1     -12.959  10.779  18.837  0.00  0.00    +0.130 C 
ATOM     15  C   UNL     1     -11.453   8.861  19.374  0.00  0.00    +0.026 A 
ATOM     16  C   UNL     1     -11.247   7.672  19.962  0.00  0.00    +0.022 A 
ATOM     17  C   UNL     1     -13.839   8.775  19.939  0.00  0.00    +0.260 A 
ATOM     18  C   UNL     1     -13.585   7.427  20.558  0.00  0.00    +0.053 A 
ATOM     19  C   UNL     1     -12.333   6.945  20.556  0.00  0.00    +0.016 A 
ENDROOT
BRANCH  18  21
ATOM      3  S   UNL     1     -14.827   6.536  22.856  0.00  0.00    -0.096 S 
ATOM     21  C   UNL     1     -14.681   6.639  21.149  0.00  0.00    +0.024 A 
ATOM     24  C   UNL     1     -15.675   5.921  20.511  0.00  0.00    +0.016 A 
ATOM     26  C   UNL     1     -16.559   5.285  21.430  0.00  0.00    +0.008 A 
ATOM     27  C   UNL     1     -16.213   5.538  22.739  0.00  0.00    +0.046 A 
ENDBRANCH  18  21
BRANCH   7   1
ATOM      1  S   UNL     1     -11.589   8.884  14.916  0.00  0.00    +0.067 S 
ATOM      4  O   UNL     1     -10.661   7.780  14.787  0.00  0.00    -0.152 OA
ATOM      5  O   UNL     1     -11.641   9.958  13.946  0.00  0.00    -0.152 OA
BRANCH   1  20
ATOM      2  S   UNL     1     -13.512   7.352  13.333  0.00  0.00    -0.077 S 
ATOM     20  C   UNL     1     -13.210   8.132  14.812  0.00  0.00    +0.143 A 
ATOM     22  C   UNL     1     -14.242   8.070  15.690  0.00  0.00    +0.036 A 
ATOM     23  C   UNL     1     -15.341   7.349  15.137  0.00  0.00    +0.010 A 
ATOM     25  C   UNL     1     -15.078   6.902  13.861  0.00  0.00    +0.047 A 
ENDBRANCH   1  20
ENDBRANCH   7   1
TORSDOF 3
ENDMDL
MODEL 3
REMARK VINA RESULT:      -6.3     14.806     18.275
REMARK  Name = 11885189
REMARK  3 active torsions:
REMARK  status: ('A' for Active; 'I' for Inactive)
REMARK    1  A    between atoms: S_1  and  N_7
REMARK    2  A    between atoms: S_1  and  C_20
REMARK    3  A    between atoms: C_18  and  C_21
REMARK                            x       y       z     vdW  Elec       q    Type
REMARK                         _______ _______ _______ _____ _____    ______ ____
ROOT
ATOM      6  O   UNL     1       8.062   6.497   5.227  0.00  0.00    -0.267 OA
ATOM      7  N   UNL     1      10.714   6.430   1.006  0.00  0.00    -0.175 NA
ATOM      8  N   UNL     1       9.732   7.376   3.856  0.00  0.00    -0.311 N 
ATOM      9  C   UNL     1       9.240   8.372   1.548  0.00  0.00    +0.025 C 
ATOM     10  C   UNL     1      11.548   8.322   2.387  0.00  0.00    +0.052 C 
ATOM     11  C   UNL     1      10.467   9.234   1.815  0.00  0.00    +0.017 C 
ATOM     12  C   UNL     1       9.569   7.262   0.536  0.00  0.00    +0.114 C 
ATOM     13  C   UNL     1      11.917   7.246   1.351  0.00  0.00    +0.119 C 
ATOM     14  C   UNL     1       8.725   7.814   2.881  0.00  0.00    +0.130 C 
ATOM     15  C   UNL     1      11.086   7.672   3.679  0.00  0.00    +0.026 A 
ATOM     16  C   UNL     1      11.974   7.365   4.639  0.00  0.00    +0.022 A 
ATOM     17  C   UNL     1       9.253   6.742   5.019  0.00  0.00    +0.260 A 
ATOM     18  C   UNL     1      10.276   6.377   6.061  0.00  0.00    +0.053 A 
ATOM     19  C   UNL     1      11.559   6.703   5.842  0.00  0.00    +0.016 A 
ENDROOT
BRANCH  18  21
ATOM      3  S   UNL     1       9.230   6.553   8.609  0.00  0.00    -0.096 S 
ATOM     21  C   UNL     1       9.892   5.670   7.295  0.00  0.00    +0.024 A 
ATOM     24  C   UNL     1       9.985   4.321   7.586  0.00  0.00    +0.016 A 
ATOM     26  C   UNL     1       9.509   4.016   8.894  0.00  0.00    +0.008 A 
ATOM     27  C   UNL     1       9.069   5.139   9.559  0.00  0.00    +0.046 A 
ENDBRANCH  18  21
BRANCH   7   1
ATOM      1  S   UNL     1      11.017   5.010   0.101  0.00  0.00    +0.067 S 
ATOM      4  O   UNL     1      11.187   5.377  -1.289  0.00  0.00    -0.152 OA
ATOM      5  O   UNL     1      10.091   3.976   0.513  0.00  0.00    -0.152 OA
BRANCH   1  20
ATOM      2  S   UNL     1      13.850   4.653  -0.530  0.00  0.00    -0.077 S 
ATOM     20  C   UNL     1      12.615   4.382   0.606  0.00  0.00    +0.143 A 
ATOM     22  C   UNL     1      13.026   3.729   1.722  0.00  0.00    +0.036 A 
ATOM     23  C   UNL     1      14.418   3.432   1.658  0.00  0.00    +0.010 A 
ATOM     25  C   UNL     1      14.990   3.879   0.487  0.00  0.00    +0.047 A 
ENDBRANCH   1  20
ENDBRANCH   7   1
TORSDOF 3
ENDMDL
MODEL 4
REMARK VINA RESULT:      -6.2     27.923     29.924
REMARK  Name = 11885189
REMARK  3 active torsions:
REMARK  status: ('A' for Active; 'I' for Inactive)
REMARK    1  A    between atoms: S_1  and  N_7
REMARK    2  A    between atoms: S_1  and  C_20
REMARK    3  A    between atoms: C_18  and  C_21
REMARK                            x       y       z     vdW  Elec       q    Type
REMARK                         _______ _______ _______ _____ _____    ______ ____
ROOT
ATOM      6  O   UNL     1      -4.878 -12.947   9.201  0.00  0.00    -0.267 OA
ATOM      7  N   UNL     1      -4.333 -11.554  13.956  0.00  0.00    -0.175 NA
ATOM      8  N   UNL     1      -3.622 -11.970  10.906  0.00  0.00    -0.311 N 
ATOM      9  C   UNL     1      -2.827 -13.279  12.959  0.00  0.00    +0.025 C 
ATOM     10  C   UNL     1      -2.266 -10.899  12.739  0.00  0.00    +0.052 C 
ATOM     11  C   UNL     1      -1.674 -12.286  12.970  0.00  0.00    +0.017 C 
ATOM     12  C   UNL     1      -3.833 -12.955  14.076  0.00  0.00    +0.114 C 
ATOM     13  C   UNL     1      -3.228 -10.551  13.889  0.00  0.00    +0.119 C 
ATOM     14  C   UNL     1      -3.475 -13.273  11.569  0.00  0.00    +0.130 C 
ATOM     15  C   UNL     1      -2.990 -10.829  11.407  0.00  0.00    +0.026 A 
ATOM     16  C   UNL     1      -3.041  -9.675  10.722  0.00  0.00    +0.022 A 
ATOM     17  C   UNL     1      -4.338 -11.954   9.692  0.00  0.00    +0.260 A 
ATOM     18  C   UNL     1      -4.408 -10.638   8.966  0.00  0.00    +0.053 A 
ATOM     19  C   UNL     1      -3.767  -9.581   9.488  0.00  0.00    +0.016 A 
ENDROOT
BRANCH  18  21
ATOM      3  S   UNL     1      -6.574  -9.511   7.679  0.00  0.00    -0.096 S 
ATOM     21  C   UNL     1      -5.169 -10.496   7.713  0.00  0.00    +0.024 A 
ATOM     24  C   UNL     1      -4.920 -11.067   6.478  0.00  0.00    +0.016 A 
ATOM     26  C   UNL     1      -5.889 -10.691   5.503  0.00  0.00    +0.008 A 
ATOM     27  C   UNL     1      -6.844  -9.846   6.022  0.00  0.00    +0.046 A 
ENDBRANCH  18  21
BRANCH   7   1
ATOM      1  S   UNL     1      -5.642 -11.146  14.979  0.00  0.00    +0.067 S 
ATOM      4  O   UNL     1      -6.733 -12.061  14.719  0.00  0.00    -0.152 OA
ATOM      5  O   UNL     1      -5.826  -9.710  14.967  0.00  0.00    -0.152 OA
BRANCH   1  20
ATOM      2  S   UNL     1      -6.304 -12.352  17.559  0.00  0.00    -0.077 S 
ATOM     20  C   UNL     1      -5.140 -11.500  16.660  0.00  0.00    +0.143 A 
ATOM     22  C   UNL     1      -4.009 -11.215  17.352  0.00  0.00    +0.036 A 
ATOM     23  C   UNL     1      -4.084 -11.715  18.685  0.00  0.00    +0.010 A 
ATOM     25  C   UNL     1      -5.278 -12.355  18.931  0.00  0.00    +0.047 A 
ENDBRANCH   1  20
ENDBRANCH   7   1
TORSDOF 3
ENDMDL
MODEL 5
REMARK VINA RESULT:      -6.2     17.174     20.504
REMARK  Name = 11885189
REMARK  3 active torsions:
REMARK  status: ('A' for Active; 'I' for Inactive)
REMARK    1  A    between atoms: S_1  and  N_7
REMARK    2  A    between atoms: S_1  and  C_20
REMARK    3  A    between atoms: C_18  and  C_21
REMARK                            x       y       z     vdW  Elec       q    Type
REMARK                         _______ _______ _______ _____ _____    ______ ____
ROOT
ATOM      6  O   UNL     1      12.318   7.663   2.957  0.00  0.00    -0.267 OA
ATOM      7  N   UNL     1      13.490   4.516  -0.728  0.00  0.00    -0.175 NA
ATOM      8  N   UNL     1      12.861   5.524   2.199  0.00  0.00    -0.311 N 
ATOM      9  C   UNL     1      15.115   4.976   1.112  0.00  0.00    +0.025 C 
ATOM     10  C   UNL     1      13.431   3.209   1.386  0.00  0.00    +0.052 C 
ATOM     11  C   UNL     1      14.884   3.578   1.671  0.00  0.00    +0.017 C 
ATOM     12  C   UNL     1      14.863   5.001  -0.405  0.00  0.00    +0.114 C 
ATOM     13  C   UNL     1      13.196   3.177  -0.135  0.00  0.00    +0.119 C 
ATOM     14  C   UNL     1      14.222   5.968   1.869  0.00  0.00    +0.130 C 
ATOM     15  C   UNL     1      12.479   4.189   2.046  0.00  0.00    +0.026 A 
ATOM     16  C   UNL     1      11.269   3.783   2.463  0.00  0.00    +0.022 A 
ATOM     17  C   UNL     1      12.004   6.485   2.773  0.00  0.00    +0.260 A 
ATOM     18  C   UNL     1      10.642   6.007   3.197  0.00  0.00    +0.053 A 
ATOM     19  C   UNL     1      10.338   4.710   3.040  0.00  0.00    +0.016 A 
ENDROOT
BRANCH  18  21
ATOM      3  S   UNL     1       9.579   7.168   5.464  0.00  0.00    -0.096 S 
ATOM     21  C   UNL     1       9.649   6.936   3.765  0.00  0.00    +0.024 A 
ATOM     24  C   UNL     1       8.702   7.702   3.109  0.00  0.00    +0.016 A 
ATOM     26  C   UNL     1       7.918   8.480   4.008  0.00  0.00    +0.008 A 
ATOM     27  C   UNL     1       8.291   8.286   5.320  0.00  0.00    +0.046 A 
ENDBRANCH  18  21
BRANCH   7   1
ATOM      1  S   UNL     1      12.993   4.732  -2.351  0.00  0.00    +0.067 S 
ATOM      4  O   UNL     1      13.150   3.475  -3.053  0.00  0.00    -0.152 OA
ATOM      5  O   UNL     1      13.551   5.968  -2.860  0.00  0.00    -0.152 OA
BRANCH   1  20
ATOM      2  S   UNL     1      10.515   4.995  -3.880  0.00  0.00    -0.077 S 
ATOM     20  C   UNL     1      11.229   5.031  -2.338  0.00  0.00    +0.143 A 
ATOM     22  C   UNL     1      10.355   5.281  -1.332  0.00  0.00    +0.036 A 
ATOM     23  C   UNL     1       9.032   5.453  -1.833  0.00  0.00    +0.010 A 
ATOM     25  C   UNL     1       8.976   5.323  -3.203  0.00  0.00    +0.047 A 
ENDBRANCH   1  20
ENDBRANCH   7   1
TORSDOF 3
ENDMDL
MODEL 6
REMARK VINA RESULT:      -6.1     15.046     18.619
REMARK  Name = 11885189
REMARK  3 active torsions:
REMARK  status: ('A' for Active; 'I' for Inactive)
REMARK    1  A    between atoms: S_1  and  N_7
REMARK    2  A    between atoms: S_1  and  C_20
REMARK    3  A    between atoms: C_18  and  C_21
REMARK                            x       y       z     vdW  Elec       q    Type
REMARK                         _______ _______ _______ _____ _____    ______ ____
ROOT
ATOM      6  O   UNL     1      10.969   6.782   0.900  0.00  0.00    -0.267 OA
ATOM      7  N   UNL     1      11.285   7.058   5.868  0.00  0.00    -0.175 NA
ATOM      8  N   UNL     1      10.309   6.084   3.026  0.00  0.00    -0.311 N 
ATOM      9  C   UNL     1       9.159   7.648   4.697  0.00  0.00    +0.025 C 
ATOM     10  C   UNL     1       9.601   5.314   5.317  0.00  0.00    +0.052 C 
ATOM     11  C   UNL     1       8.510   6.376   5.225  0.00  0.00    +0.017 C 
ATOM     12  C   UNL     1      10.267   8.127   5.650  0.00  0.00    +0.114 C 
ATOM     13  C   UNL     1      10.680   5.768   6.316  0.00  0.00    +0.119 C 
ATOM     14  C   UNL     1       9.681   7.388   3.278  0.00  0.00    +0.130 C 
ATOM     15  C   UNL     1      10.220   5.047   3.957  0.00  0.00    +0.026 A 
ATOM     16  C   UNL     1      10.698   3.829   3.657  0.00  0.00    +0.022 A 
ATOM     17  C   UNL     1      10.904   5.903   1.761  0.00  0.00    +0.260 A 
ATOM     18  C   UNL     1      11.464   4.537   1.468  0.00  0.00    +0.053 A 
ATOM     19  C   UNL     1      11.334   3.577   2.396  0.00  0.00    +0.016 A 
ENDROOT
BRANCH  18  21
ATOM      3  S   UNL     1      13.830   4.569   0.047  0.00  0.00    -0.096 S 
ATOM     21  C   UNL     1      12.151   4.250   0.196  0.00  0.00    +0.024 A 
ATOM     24  C   UNL     1      11.627   3.732  -0.974  0.00  0.00    +0.016 A 
ATOM     26  C   UNL     1      12.612   3.598  -1.995  0.00  0.00    +0.008 A 
ATOM     27  C   UNL     1      13.854   4.016  -1.572  0.00  0.00    +0.046 A 
ENDBRANCH  18  21
BRANCH   7   1
ATOM      1  S   UNL     1      12.698   7.542   6.701  0.00  0.00    +0.067 S 
ATOM      4  O   UNL     1      13.069   6.493   7.628  0.00  0.00    -0.152 OA
ATOM      5  O   UNL     1      12.555   8.920   7.122  0.00  0.00    -0.152 OA
BRANCH   1  20
ATOM      2  S   UNL     1      13.525   7.407   3.900  0.00  0.00    -0.077 S 
ATOM     20  C   UNL     1      14.034   7.593   5.511  0.00  0.00    +0.143 A 
ATOM     22  C   UNL     1      15.373   7.750   5.651  0.00  0.00    +0.036 A 
ATOM     23  C   UNL     1      16.028   7.721   4.385  0.00  0.00    +0.010 A 
ATOM     25  C   UNL     1      15.140   7.541   3.348  0.00  0.00    +0.047 A 
ENDBRANCH   1  20
ENDBRANCH   7   1
TORSDOF 3
ENDMDL
MODEL 7
REMARK VINA RESULT:      -5.8     27.570     29.672
REMARK  Name = 11885189
REMARK  3 active torsions:
REMARK  status: ('A' for Active; 'I' for Inactive)
REMARK    1  A    between atoms: S_1  and  N_7
REMARK    2  A    between atoms: S_1  and  C_20
REMARK    3  A    between atoms: C_18  and  C_21
REMARK                            x       y       z     vdW  Elec       q    Type
REMARK                         _______ _______ _______ _____ _____    ______ ____
ROOT
ATOM      6  O   UNL     1      -5.058 -12.871  10.001  0.00  0.00    -0.267 OA
ATOM      7  N   UNL     1      -3.885 -11.720  14.708  0.00  0.00    -0.175 NA
ATOM      8  N   UNL     1      -3.505 -12.205  11.610  0.00  0.00    -0.311 N 
ATOM      9  C   UNL     1      -2.841 -13.693  13.587  0.00  0.00    +0.025 C 
ATOM     10  C   UNL     1      -1.825 -11.471  13.338  0.00  0.00    +0.052 C 
ATOM     11  C   UNL     1      -1.512 -12.954  13.514  0.00  0.00    +0.017 C 
ATOM     12  C   UNL     1      -3.673 -13.195  14.780  0.00  0.00    +0.114 C 
ATOM     13  C   UNL     1      -2.607 -10.960  14.561  0.00  0.00    +0.119 C 
ATOM     14  C   UNL     1      -3.577 -13.525  12.251  0.00  0.00    +0.130 C 
ATOM     15  C   UNL     1      -2.618 -11.227  12.066  0.00  0.00    +0.026 A 
ATOM     16  C   UNL     1      -2.484 -10.072  11.394  0.00  0.00    +0.022 A 
ATOM     17  C   UNL     1      -4.291 -12.019  10.455  0.00  0.00    +0.260 A 
ATOM     18  C   UNL     1      -4.146 -10.700   9.745  0.00  0.00    +0.053 A 
ATOM     19  C   UNL     1      -3.266  -9.807  10.221  0.00  0.00    +0.016 A 
ENDROOT
BRANCH  18  21
ATOM      3  S   UNL     1      -6.279  -9.299   8.694  0.00  0.00    -0.096 S 
ATOM     21  C   UNL     1      -4.955 -10.381   8.555  0.00  0.00    +0.024 A 
ATOM     24  C   UNL     1      -4.811 -10.842   7.259  0.00  0.00    +0.016 A 
ATOM     26  C   UNL     1      -5.794 -10.303   6.381  0.00  0.00    +0.008 A 
ATOM     27  C   UNL     1      -6.656  -9.447   7.031  0.00  0.00    +0.046 A 
ENDBRANCH  18  21
BRANCH   7   1
ATOM      1  S   UNL     1      -5.003 -11.078  15.832  0.00  0.00    +0.067 S 
ATOM      4  O   UNL     1      -4.418  -9.903  16.444  0.00  0.00    -0.152 OA
ATOM      5  O   UNL     1      -5.557 -12.158  16.623  0.00  0.00    -0.152 OA
BRANCH   1  20
ATOM      2  S   UNL     1      -6.049 -10.103  13.283  0.00  0.00    -0.077 S 
ATOM     20  C   UNL     1      -6.404 -10.461  14.905  0.00  0.00    +0.143 A 
ATOM     22  C   UNL     1      -7.693 -10.225  15.253  0.00  0.00    +0.036 A 
ATOM     23  C   UNL     1      -8.439  -9.727  14.146  0.00  0.00    +0.010 A 
ATOM     25  C   UNL     1      -7.667  -9.612  13.011  0.00  0.00    +0.047 A 
ENDBRANCH   1  20
ENDBRANCH   7   1
TORSDOF 3
ENDMDL
MODEL 8
REMARK VINA RESULT:      -5.7     21.931     24.815
REMARK  Name = 11885189
REMARK  3 active torsions:
REMARK  status: ('A' for Active; 'I' for Inactive)
REMARK    1  A    between atoms: S_1  and  N_7
REMARK    2  A    between atoms: S_1  and  C_20
REMARK    3  A    between atoms: C_18  and  C_21
REMARK                            x       y       z     vdW  Elec       q    Type
REMARK                         _______ _______ _______ _____ _____    ______ ____
ROOT
ATOM      6  O   UNL     1      -6.673   9.668   5.176  0.00  0.00    -0.267 OA
ATOM      7  N   UNL     1      -1.940  10.401   3.794  0.00  0.00    -0.175 NA
ATOM      8  N   UNL     1      -4.387   9.303   5.463  0.00  0.00    -0.311 N 
ATOM      9  C   UNL     1      -2.747  11.190   6.021  0.00  0.00    +0.025 C 
ATOM     10  C   UNL     1      -1.920   8.891   5.769  0.00  0.00    +0.052 C 
ATOM     11  C   UNL     1      -1.941  10.095   6.706  0.00  0.00    +0.017 C 
ATOM     12  C   UNL     1      -2.097  11.586   4.686  0.00  0.00    +0.114 C 
ATOM     13  C   UNL     1      -1.217   9.273   4.455  0.00  0.00    +0.119 C 
ATOM     14  C   UNL     1      -4.193  10.707   5.847  0.00  0.00    +0.130 C 
ATOM     15  C   UNL     1      -3.327   8.393   5.489  0.00  0.00    +0.026 A 
ATOM     16  C   UNL     1      -3.549   7.091   5.248  0.00  0.00    +0.022 A 
ATOM     17  C   UNL     1      -5.707   8.902   5.174  0.00  0.00    +0.260 A 
ATOM     18  C   UNL     1      -5.919   7.443   4.871  0.00  0.00    +0.053 A 
ATOM     19  C   UNL     1      -4.865   6.616   4.929  0.00  0.00    +0.016 A 
ENDROOT
BRANCH  18  21
ATOM      3  S   UNL     1      -8.014   5.769   5.524  0.00  0.00    -0.096 S 
ATOM     21  C   UNL     1      -7.250   6.924   4.510  0.00  0.00    +0.024 A 
ATOM     24  C   UNL     1      -8.034   7.235   3.415  0.00  0.00    +0.016 A 
ATOM     26  C   UNL     1      -9.267   6.521   3.411  0.00  0.00    +0.008 A 
ATOM     27  C   UNL     1      -9.385   5.689   4.503  0.00  0.00    +0.046 A 
ENDBRANCH  18  21
BRANCH   7   1
ATOM      1  S   UNL     1      -1.465  10.743   2.186  0.00  0.00    +0.067 S 
ATOM      4  O   UNL     1      -0.476   9.767   1.779  0.00  0.00    -0.152 OA
ATOM      5  O   UNL     1      -1.237  12.167   2.050  0.00  0.00    -0.152 OA
BRANCH   1  20
ATOM      2  S   UNL     1      -4.373  10.682   1.895  0.00  0.00    -0.077 S 
ATOM     20  C   UNL     1      -2.876  10.431   1.131  0.00  0.00    +0.143 A 
ATOM     22  C   UNL     1      -2.977  10.031  -0.161  0.00  0.00    +0.036 A 
ATOM     23  C   UNL     1      -4.341   9.922  -0.559  0.00  0.00    +0.010 A 
ATOM     25  C   UNL     1      -5.206  10.248   0.463  0.00  0.00    +0.047 A 
ENDBRANCH   1  20
ENDBRANCH   7   1
TORSDOF 3
ENDMDL
MODEL 9
REMARK VINA RESULT:      -5.7     27.896     30.226
REMARK  Name = 11885189
REMARK  3 active torsions:
REMARK  status: ('A' for Active; 'I' for Inactive)
REMARK    1  A    between atoms: S_1  and  N_7
REMARK    2  A    between atoms: S_1  and  C_20
REMARK    3  A    between atoms: C_18  and  C_21
REMARK                            x       y       z     vdW  Elec       q    Type
REMARK                         _______ _______ _______ _____ _____    ______ ____
ROOT
ATOM      6  O   UNL     1      -5.539 -13.006  14.490  0.00  0.00    -0.267 OA
ATOM      7  N   UNL     1      -8.530 -10.689  17.736  0.00  0.00    -0.175 NA
ATOM      8  N   UNL     1      -5.951 -12.122  16.609  0.00  0.00    -0.311 N 
ATOM      9  C   UNL     1      -7.780 -13.034  18.153  0.00  0.00    +0.025 C 
ATOM     10  C   UNL     1      -6.381 -11.157  18.896  0.00  0.00    +0.052 C 
ATOM     11  C   UNL     1      -6.875 -12.549  19.278  0.00  0.00    +0.017 C 
ATOM     12  C   UNL     1      -8.981 -12.090  17.980  0.00  0.00    +0.114 C 
ATOM     13  C   UNL     1      -7.580 -10.199  18.779  0.00  0.00    +0.119 C 
ATOM     14  C   UNL     1      -6.950 -13.167  16.870  0.00  0.00    +0.130 C 
ATOM     15  C   UNL     1      -5.605 -11.191  17.592  0.00  0.00    +0.026 A 
ATOM     16  C   UNL     1      -4.607 -10.320  17.374  0.00  0.00    +0.022 A 
ATOM     17  C   UNL     1      -5.288 -12.176  15.367  0.00  0.00    +0.260 A 
ATOM     18  C   UNL     1      -4.199 -11.163  15.137  0.00  0.00    +0.053 A 
ATOM     19  C   UNL     1      -3.901 -10.306  16.125  0.00  0.00    +0.016 A 
ENDROOT
BRANCH  18  21
ATOM      3  S   UNL     1      -4.253 -10.458  12.470  0.00  0.00    -0.096 S 
ATOM     21  C   UNL     1      -3.473 -11.099  13.857  0.00  0.00    +0.024 A 
ATOM     24  C   UNL     1      -2.180 -11.500  13.572  0.00  0.00    +0.016 A 
ATOM     26  C   UNL     1      -1.833 -11.277  12.208  0.00  0.00    +0.008 A 
ATOM     27  C   UNL     1      -2.869 -10.714  11.496  0.00  0.00    +0.046 A 
ENDBRANCH  18  21
BRANCH   7   1
ATOM      1  S   UNL     1      -9.756  -9.588  17.275  0.00  0.00    +0.067 S 
ATOM      4  O   UNL     1     -10.328 -10.032  16.022  0.00  0.00    -0.152 OA
ATOM      5  O   UNL     1      -9.274  -8.234  17.461  0.00  0.00    -0.152 OA
BRANCH   1  20
ATOM      2  S   UNL     1     -12.630  -9.815  17.758  0.00  0.00    -0.077 S 
ATOM     20  C   UNL     1     -11.086  -9.736  18.463  0.00  0.00    +0.143 A 
ATOM     22  C   UNL     1     -11.095  -9.796  19.818  0.00  0.00    +0.036 A 
ATOM     23  C   UNL     1     -12.425  -9.914  20.317  0.00  0.00    +0.010 A 
ATOM     25  C   UNL     1     -13.358  -9.936  19.303  0.00  0.00    +0.047 A 
ENDBRANCH   1  20
ENDBRANCH   7   1
TORSDOF 3
ENDMDL
MODEL 10
REMARK VINA RESULT:      -5.6     17.249     20.487
REMARK  Name = 11885189
REMARK  3 active torsions:
REMARK  status: ('A' for Active; 'I' for Inactive)
REMARK    1  A    between atoms: S_1  and  N_7
REMARK    2  A    between atoms: S_1  and  C_20
REMARK    3  A    between atoms: C_18  and  C_21
REMARK                            x       y       z     vdW  Elec       q    Type
REMARK                         _______ _______ _______ _____ _____    ______ ____
ROOT
ATOM      6  O   UNL     1      11.876   7.541   3.640  0.00  0.00    -0.267 OA
ATOM      7  N   UNL     1      11.596   5.219  -0.762  0.00  0.00    -0.175 NA
ATOM      8  N   UNL     1      12.269   5.680   2.290  0.00  0.00    -0.311 N 
ATOM      9  C   UNL     1      13.815   5.757   0.249  0.00  0.00    +0.025 C 
ATOM     10  C   UNL     1      12.683   3.660   0.842  0.00  0.00    +0.052 C 
ATOM     11  C   UNL     1      14.044   4.281   0.544  0.00  0.00    +0.017 C 
ATOM     12  C   UNL     1      12.892   5.930  -0.968  0.00  0.00    +0.114 C 
ATOM     13  C   UNL     1      11.778   3.782  -0.397  0.00  0.00    +0.119 C 
ATOM     14  C   UNL     1      13.257   6.435   1.507  0.00  0.00    +0.130 C 
ATOM     15  C   UNL     1      12.029   4.327   2.039  0.00  0.00    +0.026 A 
ATOM     16  C   UNL     1      11.209   3.628   2.840  0.00  0.00    +0.022 A 
ATOM     17  C   UNL     1      11.662   6.359   3.365  0.00  0.00    +0.260 A 
ATOM     18  C   UNL     1      10.720   5.558   4.224  0.00  0.00    +0.053 A 
ATOM     19  C   UNL     1      10.543   4.259   3.943  0.00  0.00    +0.016 A 
ENDROOT
BRANCH  18  21
ATOM      3  S   UNL     1      10.752   6.302   6.881  0.00  0.00    -0.096 S 
ATOM     21  C   UNL     1       9.995   6.179   5.346  0.00  0.00    +0.024 A 
ATOM     24  C   UNL     1       8.720   6.714   5.366  0.00  0.00    +0.016 A 
ATOM     26  C   UNL     1       8.366   7.225   6.647  0.00  0.00    +0.008 A 
ATOM     27  C   UNL     1       9.381   7.066   7.565  0.00  0.00    +0.046 A 
ENDBRANCH  18  21
BRANCH   7   1
ATOM      1  S   UNL     1      10.384   5.539  -1.926  0.00  0.00    +0.067 S 
ATOM      4  O   UNL     1      10.569   6.885  -2.427  0.00  0.00    -0.152 OA
ATOM      5  O   UNL     1       9.107   5.078  -1.423  0.00  0.00    -0.152 OA
BRANCH   1  20
ATOM      2  S   UNL     1      11.836   5.111  -4.428  0.00  0.00    -0.077 S 
ATOM     20  C   UNL     1      10.698   4.480  -3.335  0.00  0.00    +0.143 A 
ATOM     22  C   UNL     1      10.199   3.272  -3.694  0.00  0.00    +0.036 A 
ATOM     23  C   UNL     1      10.769   2.828  -4.923  0.00  0.00    +0.010 A 
ATOM     25  C   UNL     1      11.675   3.732  -5.431  0.00  0.00    +0.047 A 
ENDBRANCH   1  20
ENDBRANCH   7   1
TORSDOF 3
ENDMDL
