MODEL 1
REMARK VINA RESULT:      -7.9      0.000      0.000
REMARK  Name = 11887626
REMARK  8 active torsions:
REMARK  status: ('A' for Active; 'I' for Inactive)
REMARK    1  A    between atoms: S_1  and  N_8
REMARK    2  A    between atoms: S_1  and  C_20
REMARK    3  A    between atoms: N_10  and  C_19
REMARK    4  A    between atoms: C_13  and  C_17
REMARK    5  A    between atoms: C_18  and  C_23
REMARK    6  A    between atoms: C_19  and  C_21
REMARK    7  A    between atoms: C_19  and  C_26
REMARK    8  A    between atoms: C_21  and  C_22
REMARK                            x       y       z     vdW  Elec       q    Type
REMARK                         _______ _______ _______ _____ _____    ______ ____
ROOT
ATOM      6  O   UNL     1      -6.805 -10.570  20.041  0.00  0.00    -0.270 OA
ATOM      8  N   UNL     1      -5.941 -13.796  16.230  0.00  0.00    -0.162 NA
ATOM      9  N   UNL     1      -7.049 -12.096  18.285  0.00  0.00    -0.294 N 
ATOM     13  C   UNL     1      -5.040 -13.076  17.171  0.00  0.00    +0.183 C 
ATOM     14  C   UNL     1      -5.723 -12.684  18.479  0.00  0.00    +0.138 C 
ATOM     15  C   UNL     1      -7.327 -14.005  16.723  0.00  0.00    +0.129 C 
ATOM     16  C   UNL     1      -7.882 -12.681  17.230  0.00  0.00    +0.125 C 
ATOM     18  C   UNL     1      -7.479 -11.081  19.148  0.00  0.00    +0.247 C 
ENDROOT
BRANCH  18  23
ATOM      2  F   UNL     1     -10.708  -8.256  16.886  0.00  0.00    -0.205 F 
ATOM     23  C   UNL     1      -8.850 -10.575  18.985  0.00  0.00    +0.040 A 
ATOM     30  C   UNL     1      -9.134  -9.636  17.993  0.00  0.00    +0.051 A 
ATOM     31  C   UNL     1      -9.867 -11.031  19.825  0.00  0.00    +0.013 A 
ATOM     37  C   UNL     1     -10.435  -9.156  17.839  0.00  0.00    +0.124 A 
ATOM     38  C   UNL     1     -11.166 -10.551  19.671  0.00  0.00    +0.004 A 
ATOM     41  C   UNL     1     -11.451  -9.613  18.678  0.00  0.00    +0.038 A 
ENDBRANCH  18  23
BRANCH  13  17
ATOM      5  O   UNL     1      -5.291 -10.864  16.319  0.00  0.00    -0.274 OA
ATOM     10  N   UNL     1      -3.350 -12.050  15.826  0.00  0.00    -0.302 N 
ATOM     17  C   UNL     1      -4.592 -11.871  16.409  0.00  0.00    +0.234 C 
ATOM     42  H   UNL     1      -2.813 -12.878  16.067  0.00  0.00    +0.150 HD
BRANCH  10  19
ATOM     19  C   UNL     1      -2.702 -11.043  15.016  0.00  0.00    +0.163 C 
BRANCH  19  26
ATOM      7  O   UNL     1      -0.710  -9.702  15.383  0.00  0.00    -0.274 OA
ATOM     12  N   UNL     1      -1.457 -11.047  17.089  0.00  0.00    -0.328 N 
ATOM     26  C   UNL     1      -1.512 -10.527  15.812  0.00  0.00    +0.231 C 
ATOM     44  H   UNL     1      -2.141 -11.710  17.437  0.00  0.00    +0.145 HD
ATOM     45  H   UNL     1      -0.720 -10.774  17.730  0.00  0.00    +0.145 HD
ENDBRANCH  19  26
BRANCH  19  21
ATOM     21  C   UNL     1      -2.244 -11.594  13.660  0.00  0.00    +0.069 C 
BRANCH  21  22
ATOM     11  N   UNL     1      -2.587  -9.540  10.631  0.00  0.00    -0.360 N 
ATOM     22  C   UNL     1      -2.659 -10.730  12.503  0.00  0.00    -0.020 A 
ATOM     27  C   UNL     1      -3.960 -10.209  12.258  0.00  0.00    +0.003 A 
ATOM     28  C   UNL     1      -1.837 -10.302  11.485  0.00  0.00    +0.087 A 
ATOM     29  C   UNL     1      -3.888  -9.466  11.078  0.00  0.00    +0.047 A 
ATOM     34  C   UNL     1      -5.195 -10.298  12.930  0.00  0.00    +0.010 A 
ATOM     36  C   UNL     1      -4.994  -8.805  10.533  0.00  0.00    +0.026 A 
ATOM     39  C   UNL     1      -6.310  -9.642  12.396  0.00  0.00    +0.001 A 
ATOM     40  C   UNL     1      -6.209  -8.907  11.216  0.00  0.00    +0.002 A 
ATOM     43  H   UNL     1      -2.239  -9.096   9.793  0.00  0.00    +0.165 HD
ENDBRANCH  21  22
ENDBRANCH  19  21
ENDBRANCH  10  19
ENDBRANCH  13  17
BRANCH   8   1
ATOM      1  S   UNL     1      -5.255 -15.083  15.339  0.00  0.00    +0.062 S 
ATOM      3  O   UNL     1      -6.125 -16.237  15.426  0.00  0.00    -0.153 OA
ATOM      4  O   UNL     1      -3.848 -15.185  15.664  0.00  0.00    -0.153 OA
BRANCH   1  20
ATOM     20  C   UNL     1      -5.388 -14.432  13.703  0.00  0.00    +0.106 A 
ATOM     24  C   UNL     1      -4.279 -14.439  12.857  0.00  0.00    +0.028 A 
ATOM     25  C   UNL     1      -6.602 -13.908  13.258  0.00  0.00    +0.028 A 
ATOM     32  C   UNL     1      -4.384 -13.924  11.565  0.00  0.00    +0.002 A 
ATOM     33  C   UNL     1      -6.707 -13.393  11.965  0.00  0.00    +0.002 A 
ATOM     35  C   UNL     1      -5.597 -13.401  11.119  0.00  0.00    +0.000 A 
ENDBRANCH   1  20
ENDBRANCH   8   1
TORSDOF 8
ENDMDL
MODEL 2
REMARK VINA RESULT:      -7.9     27.659     31.141
REMARK  Name = 11887626
REMARK  8 active torsions:
REMARK  status: ('A' for Active; 'I' for Inactive)
REMARK    1  A    between atoms: S_1  and  N_8
REMARK    2  A    between atoms: S_1  and  C_20
REMARK    3  A    between atoms: N_10  and  C_19
REMARK    4  A    between atoms: C_13  and  C_17
REMARK    5  A    between atoms: C_18  and  C_23
REMARK    6  A    between atoms: C_19  and  C_21
REMARK    7  A    between atoms: C_19  and  C_26
REMARK    8  A    between atoms: C_21  and  C_22
REMARK                            x       y       z     vdW  Elec       q    Type
REMARK                         _______ _______ _______ _____ _____    ______ ____
ROOT
ATOM      6  O   UNL     1      10.210  12.041  24.615  0.00  0.00    -0.270 OA
ATOM      8  N   UNL     1      13.173  12.408  20.520  0.00  0.00    -0.162 NA
ATOM      9  N   UNL     1      11.787  12.735  23.033  0.00  0.00    -0.294 N 
ATOM     13  C   UNL     1      12.059  11.490  20.885  0.00  0.00    +0.183 C 
ATOM     14  C   UNL     1      11.102  12.084  21.916  0.00  0.00    +0.138 C 
ATOM     15  C   UNL     1      13.156  13.722  21.213  0.00  0.00    +0.129 C 
ATOM     16  C   UNL     1      12.998  13.496  22.710  0.00  0.00    +0.125 C 
ATOM     18  C   UNL     1      11.223  12.670  24.312  0.00  0.00    +0.247 C 
ENDROOT
BRANCH  18  23
ATOM      2  F   UNL     1      14.837  13.166  27.508  0.00  0.00    -0.205 F 
ATOM     23  C   UNL     1      11.886  13.412  25.395  0.00  0.00    +0.040 A 
ATOM     30  C   UNL     1      13.071  12.927  25.950  0.00  0.00    +0.051 A 
ATOM     31  C   UNL     1      11.329  14.599  25.870  0.00  0.00    +0.013 A 
ATOM     37  C   UNL     1      13.700  13.631  26.977  0.00  0.00    +0.124 A 
ATOM     38  C   UNL     1      11.957  15.302  26.897  0.00  0.00    +0.004 A 
ATOM     41  C   UNL     1      13.142  14.819  27.451  0.00  0.00    +0.038 A 
ENDBRANCH  18  23
BRANCH  13  17
ATOM      5  O   UNL     1      13.340  10.276  22.487  0.00  0.00    -0.274 OA
ATOM     10  N   UNL     1      12.629   9.191  20.555  0.00  0.00    -0.302 N 
ATOM     17  C   UNL     1      12.741  10.270  21.414  0.00  0.00    +0.234 C 
ATOM     42  H   UNL     1      12.011   9.269  19.753  0.00  0.00    +0.150 HD
BRANCH  10  19
ATOM     19  C   UNL     1      13.220   7.900  20.823  0.00  0.00    +0.163 C 
BRANCH  19  26
ATOM      7  O   UNL     1      11.257   6.628  21.480  0.00  0.00    -0.274 OA
ATOM     12  N   UNL     1      12.175   6.240  19.411  0.00  0.00    -0.328 N 
ATOM     26  C   UNL     1      12.124   6.860  20.642  0.00  0.00    +0.231 C 
ATOM     44  H   UNL     1      12.884   6.459  18.719  0.00  0.00    +0.145 HD
ATOM     45  H   UNL     1      11.492   5.534  19.156  0.00  0.00    +0.145 HD
ENDBRANCH  19  26
BRANCH  19  21
ATOM     21  C   UNL     1      14.404   7.599  19.896  0.00  0.00    +0.069 C 
BRANCH  21  22
ATOM     11  N   UNL     1      17.345   8.221  22.012  0.00  0.00    -0.360 N 
ATOM     22  C   UNL     1      15.731   7.652  20.599  0.00  0.00    -0.020 A 
ATOM     27  C   UNL     1      16.884   6.875  20.294  0.00  0.00    +0.003 A 
ATOM     28  C   UNL     1      16.046   8.470  21.660  0.00  0.00    +0.087 A 
ATOM     29  C   UNL     1      17.882   7.251  21.195  0.00  0.00    +0.047 A 
ATOM     34  C   UNL     1      17.174   5.884  19.334  0.00  0.00    +0.010 A 
ATOM     36  C   UNL     1      19.161   6.684  21.185  0.00  0.00    +0.026 A 
ATOM     39  C   UNL     1      18.449   5.309  19.312  0.00  0.00    +0.001 A 
ATOM     40  C   UNL     1      19.426   5.704  20.224  0.00  0.00    +0.002 A 
ATOM     43  H   UNL     1      17.840   8.681  22.763  0.00  0.00    +0.165 HD
ENDBRANCH  21  22
ENDBRANCH  19  21
ENDBRANCH  10  19
ENDBRANCH  13  17
BRANCH   8   1
ATOM      1  S   UNL     1      13.651  12.426  18.879  0.00  0.00    +0.062 S 
ATOM      3  O   UNL     1      13.310  13.708  18.300  0.00  0.00    -0.153 OA
ATOM      4  O   UNL     1      13.232  11.190  18.252  0.00  0.00    -0.153 OA
BRANCH   1  20
ATOM     20  C   UNL     1      15.406  12.371  19.068  0.00  0.00    +0.106 A 
ATOM     24  C   UNL     1      15.970  11.701  20.154  0.00  0.00    +0.028 A 
ATOM     25  C   UNL     1      16.228  12.999  18.133  0.00  0.00    +0.028 A 
ATOM     32  C   UNL     1      17.355  11.657  20.303  0.00  0.00    +0.002 A 
ATOM     33  C   UNL     1      17.615  12.955  18.282  0.00  0.00    +0.002 A 
ATOM     35  C   UNL     1      18.178  12.284  19.368  0.00  0.00    +0.000 A 
ENDBRANCH   1  20
ENDBRANCH   8   1
TORSDOF 8
ENDMDL
MODEL 3
REMARK VINA RESULT:      -7.7      3.465      7.759
REMARK  Name = 11887626
REMARK  8 active torsions:
REMARK  status: ('A' for Active; 'I' for Inactive)
REMARK    1  A    between atoms: S_1  and  N_8
REMARK    2  A    between atoms: S_1  and  C_20
REMARK    3  A    between atoms: N_10  and  C_19
REMARK    4  A    between atoms: C_13  and  C_17
REMARK    5  A    between atoms: C_18  and  C_23
REMARK    6  A    between atoms: C_19  and  C_21
REMARK    7  A    between atoms: C_19  and  C_26
REMARK    8  A    between atoms: C_21  and  C_22
REMARK                            x       y       z     vdW  Elec       q    Type
REMARK                         _______ _______ _______ _____ _____    ______ ____
ROOT
ATOM      6  O   UNL     1      -5.064  -8.059  10.164  0.00  0.00    -0.270 OA
ATOM      8  N   UNL     1      -7.974 -11.195  12.880  0.00  0.00    -0.162 NA
ATOM      9  N   UNL     1      -6.703  -9.581  10.850  0.00  0.00    -0.294 N 
ATOM     13  C   UNL     1      -6.871 -10.265  13.247  0.00  0.00    +0.183 C 
ATOM     14  C   UNL     1      -6.681  -9.131  12.243  0.00  0.00    +0.138 C 
ATOM     15  C   UNL     1      -8.687 -10.859  11.621  0.00  0.00    +0.129 C 
ATOM     16  C   UNL     1      -7.666 -10.634  10.514  0.00  0.00    +0.125 C 
ATOM     18  C   UNL     1      -5.881  -8.944   9.914  0.00  0.00    +0.247 C 
ENDROOT
BRANCH  18  23
ATOM      2  F   UNL     1      -8.028  -8.649   5.574  0.00  0.00    -0.205 F 
ATOM     23  C   UNL     1      -5.994  -9.357   8.506  0.00  0.00    +0.040 A 
ATOM     30  C   UNL     1      -6.978  -8.797   7.691  0.00  0.00    +0.051 A 
ATOM     31  C   UNL     1      -5.119 -10.312   7.987  0.00  0.00    +0.013 A 
ATOM     37  C   UNL     1      -7.085  -9.188   6.356  0.00  0.00    +0.124 A 
ATOM     38  C   UNL     1      -5.227 -10.703   6.653  0.00  0.00    +0.004 A 
ATOM     41  C   UNL     1      -6.209 -10.142   5.838  0.00  0.00    +0.038 A 
ENDBRANCH  18  23
BRANCH  13  17
ATOM      5  O   UNL     1      -5.572 -12.181  12.678  0.00  0.00    -0.274 OA
ATOM     10  N   UNL     1      -4.705 -10.638  14.190  0.00  0.00    -0.302 N 
ATOM     17  C   UNL     1      -5.659 -11.137  13.320  0.00  0.00    +0.234 C 
ATOM     42  H   UNL     1      -4.836  -9.707  14.575  0.00  0.00    +0.150 HD
BRANCH  10  19
ATOM     19  C   UNL     1      -3.451 -11.305  14.457  0.00  0.00    +0.163 C 
BRANCH  19  26
ATOM      7  O   UNL     1      -2.137 -10.193  12.743  0.00  0.00    -0.274 OA
ATOM     12  N   UNL     1      -1.628  -9.795  14.947  0.00  0.00    -0.328 N 
ATOM     26  C   UNL     1      -2.344 -10.401  13.935  0.00  0.00    +0.231 C 
ATOM     44  H   UNL     1      -1.827  -9.958  15.929  0.00  0.00    +0.145 HD
ATOM     45  H   UNL     1      -0.870  -9.155  14.736  0.00  0.00    +0.145 HD
ENDBRANCH  19  26
BRANCH  19  21
ATOM     21  C   UNL     1      -3.251 -11.591  15.951  0.00  0.00    +0.069 C 
BRANCH  21  22
ATOM     11  N   UNL     1      -5.975 -13.817  17.018  0.00  0.00    -0.360 N 
ATOM     22  C   UNL     1      -4.422 -12.294  16.578  0.00  0.00    -0.020 A 
ATOM     27  C   UNL     1      -5.225 -11.813  17.650  0.00  0.00    +0.003 A 
ATOM     28  C   UNL     1      -4.907 -13.528  16.212  0.00  0.00    +0.087 A 
ATOM     29  C   UNL     1      -6.192 -12.786  17.905  0.00  0.00    +0.047 A 
ATOM     34  C   UNL     1      -5.222 -10.638  18.428  0.00  0.00    +0.010 A 
ATOM     36  C   UNL     1      -7.160 -12.645  18.905  0.00  0.00    +0.026 A 
ATOM     39  C   UNL     1      -6.185 -10.482  19.431  0.00  0.00    +0.001 A 
ATOM     40  C   UNL     1      -7.138 -11.471  19.665  0.00  0.00    +0.002 A 
ATOM     43  H   UNL     1      -6.526 -14.662  16.969  0.00  0.00    +0.165 HD
ENDBRANCH  21  22
ENDBRANCH  19  21
ENDBRANCH  10  19
ENDBRANCH  13  17
BRANCH   8   1
ATOM      1  S   UNL     1      -8.942 -11.785  14.160  0.00  0.00    +0.062 S 
ATOM      3  O   UNL     1      -8.168 -12.723  14.946  0.00  0.00    -0.153 OA
ATOM      4  O   UNL     1     -10.244 -12.146  13.639  0.00  0.00    -0.153 OA
BRANCH   1  20
ATOM     20  C   UNL     1      -9.128 -10.310  15.113  0.00  0.00    +0.106 A 
ATOM     24  C   UNL     1      -8.415 -10.153  16.301  0.00  0.00    +0.028 A 
ATOM     25  C   UNL     1      -9.990  -9.303  14.678  0.00  0.00    +0.028 A 
ATOM     32  C   UNL     1      -8.562  -8.988  17.054  0.00  0.00    +0.002 A 
ATOM     33  C   UNL     1     -10.137  -8.137  15.431  0.00  0.00    +0.002 A 
ATOM     35  C   UNL     1      -9.423  -7.980  16.619  0.00  0.00    +0.000 A 
ENDBRANCH   1  20
ENDBRANCH   8   1
TORSDOF 8
ENDMDL
MODEL 4
REMARK VINA RESULT:      -7.6     24.834     28.633
REMARK  Name = 11887626
REMARK  8 active torsions:
REMARK  status: ('A' for Active; 'I' for Inactive)
REMARK    1  A    between atoms: S_1  and  N_8
REMARK    2  A    between atoms: S_1  and  C_20
REMARK    3  A    between atoms: N_10  and  C_19
REMARK    4  A    between atoms: C_13  and  C_17
REMARK    5  A    between atoms: C_18  and  C_23
REMARK    6  A    between atoms: C_19  and  C_21
REMARK    7  A    between atoms: C_19  and  C_26
REMARK    8  A    between atoms: C_21  and  C_22
REMARK                            x       y       z     vdW  Elec       q    Type
REMARK                         _______ _______ _______ _____ _____    ______ ____
ROOT
ATOM      6  O   UNL     1      15.978   6.918   4.361  0.00  0.00    -0.270 OA
ATOM      8  N   UNL     1      11.761   9.118   6.107  0.00  0.00    -0.162 NA
ATOM      9  N   UNL     1      13.951   8.071   4.543  0.00  0.00    -0.294 N 
ATOM     13  C   UNL     1      12.921   8.475   6.783  0.00  0.00    +0.183 C 
ATOM     14  C   UNL     1      14.188   8.471   5.931  0.00  0.00    +0.138 C 
ATOM     15  C   UNL     1      12.037   9.639   4.744  0.00  0.00    +0.129 C 
ATOM     16  C   UNL     1      12.713   8.551   3.921  0.00  0.00    +0.125 C 
ATOM     18  C   UNL     1      14.931   7.336   3.868  0.00  0.00    +0.247 C 
ENDROOT
BRANCH  18  23
ATOM      2  F   UNL     1      13.595   4.261   0.361  0.00  0.00    -0.205 F 
ATOM     23  C   UNL     1      14.704   7.029   2.447  0.00  0.00    +0.040 A 
ATOM     30  C   UNL     1      14.249   5.765   2.070  0.00  0.00    +0.051 A 
ATOM     31  C   UNL     1      14.946   8.000   1.476  0.00  0.00    +0.013 A 
ATOM     37  C   UNL     1      14.033   5.473   0.723  0.00  0.00    +0.124 A 
ATOM     38  C   UNL     1      14.731   7.709   0.129  0.00  0.00    +0.004 A 
ATOM     41  C   UNL     1      14.274   6.446  -0.248  0.00  0.00    +0.038 A 
ENDBRANCH  18  23
BRANCH  13  17
ATOM      5  O   UNL     1      13.185   6.258   7.619  0.00  0.00    -0.274 OA
ATOM     10  N   UNL     1      11.162   6.861   6.639  0.00  0.00    -0.302 N 
ATOM     17  C   UNL     1      12.456   7.083   7.073  0.00  0.00    +0.234 C 
ATOM     42  H   UNL     1      10.616   7.650   6.308  0.00  0.00    +0.150 HD
BRANCH  10  19
ATOM     19  C   UNL     1      10.487   5.591   6.779  0.00  0.00    +0.163 C 
BRANCH  19  26
ATOM      7  O   UNL     1      10.168   4.701   9.017  0.00  0.00    -0.274 OA
ATOM     12  N   UNL     1       9.043   6.614   8.426  0.00  0.00    -0.328 N 
ATOM     26  C   UNL     1       9.890   5.554   8.179  0.00  0.00    +0.231 C 
ATOM     44  H   UNL     1       8.842   7.325   7.731  0.00  0.00    +0.145 HD
ATOM     45  H   UNL     1       8.589   6.717   9.327  0.00  0.00    +0.145 HD
ENDBRANCH  19  26
BRANCH  19  21
ATOM     21  C   UNL     1       9.391   5.394   5.724  0.00  0.00    +0.069 C 
BRANCH  21  22
ATOM     11  N   UNL     1      10.917   4.086   2.646  0.00  0.00    -0.360 N 
ATOM     22  C   UNL     1       9.937   5.112   4.353  0.00  0.00    -0.020 A 
ATOM     27  C   UNL     1       9.897   5.983   3.228  0.00  0.00    +0.003 A 
ATOM     28  C   UNL     1      10.571   3.954   3.964  0.00  0.00    +0.087 A 
ATOM     29  C   UNL     1      10.518   5.316   2.171  0.00  0.00    +0.047 A 
ATOM     34  C   UNL     1       9.390   7.279   3.008  0.00  0.00    +0.010 A 
ATOM     36  C   UNL     1      10.658   5.882   0.899  0.00  0.00    +0.026 A 
ATOM     39  C   UNL     1       9.523   7.858   1.742  0.00  0.00    +0.001 A 
ATOM     40  C   UNL     1      10.148   7.168   0.704  0.00  0.00    +0.002 A 
ATOM     43  H   UNL     1      11.397   3.385   2.100  0.00  0.00    +0.165 HD
ENDBRANCH  21  22
ENDBRANCH  19  21
ENDBRANCH  10  19
ENDBRANCH  13  17
BRANCH   8   1
ATOM      1  S   UNL     1      10.732  10.072   7.085  0.00  0.00    +0.062 S 
ATOM      3  O   UNL     1      11.304  11.394   7.227  0.00  0.00    -0.153 OA
ATOM      4  O   UNL     1      10.339   9.302   8.247  0.00  0.00    -0.153 OA
BRANCH   1  20
ATOM     20  C   UNL     1       9.329  10.203   6.021  0.00  0.00    +0.106 A 
ATOM     24  C   UNL     1       8.498   9.100   5.823  0.00  0.00    +0.028 A 
ATOM     25  C   UNL     1       9.053  11.409   5.377  0.00  0.00    +0.028 A 
ATOM     32  C   UNL     1       7.390   9.204   4.983  0.00  0.00    +0.002 A 
ATOM     33  C   UNL     1       7.944  11.513   4.536  0.00  0.00    +0.002 A 
ATOM     35  C   UNL     1       7.113  10.409   4.339  0.00  0.00    +0.000 A 
ENDBRANCH   1  20
ENDBRANCH   8   1
TORSDOF 8
ENDMDL
MODEL 5
REMARK VINA RESULT:      -7.4      2.922      5.703
REMARK  Name = 11887626
REMARK  8 active torsions:
REMARK  status: ('A' for Active; 'I' for Inactive)
REMARK    1  A    between atoms: S_1  and  N_8
REMARK    2  A    between atoms: S_1  and  C_20
REMARK    3  A    between atoms: N_10  and  C_19
REMARK    4  A    between atoms: C_13  and  C_17
REMARK    5  A    between atoms: C_18  and  C_23
REMARK    6  A    between atoms: C_19  and  C_21
REMARK    7  A    between atoms: C_19  and  C_26
REMARK    8  A    between atoms: C_21  and  C_22
REMARK                            x       y       z     vdW  Elec       q    Type
REMARK                         _______ _______ _______ _____ _____    ______ ____
ROOT
ATOM      6  O   UNL     1      -9.385 -11.808  13.603  0.00  0.00    -0.270 OA
ATOM      8  N   UNL     1      -4.907 -10.414  11.683  0.00  0.00    -0.162 NA
ATOM      9  N   UNL     1      -7.497 -10.591  12.949  0.00  0.00    -0.294 N 
ATOM     13  C   UNL     1      -5.679 -11.686  11.632  0.00  0.00    +0.183 C 
ATOM     14  C   UNL     1      -7.179 -11.489  11.839  0.00  0.00    +0.138 C 
ATOM     15  C   UNL     1      -5.721  -9.194  11.920  0.00  0.00    +0.129 C 
ATOM     16  C   UNL     1      -6.627  -9.424  13.123  0.00  0.00    +0.125 C 
ATOM     18  C   UNL     1      -8.636 -10.839  13.723  0.00  0.00    +0.247 C 
ENDROOT
BRANCH  18  23
ATOM      2  F   UNL     1     -11.201  -7.032  15.291  0.00  0.00    -0.205 F 
ATOM     23  C   UNL     1      -8.980  -9.867  14.772  0.00  0.00    +0.040 A 
ATOM     30  C   UNL     1      -9.946  -8.890  14.529  0.00  0.00    +0.051 A 
ATOM     31  C   UNL     1      -8.338  -9.920  16.010  0.00  0.00    +0.013 A 
ATOM     37  C   UNL     1     -10.273  -7.968  15.524  0.00  0.00    +0.124 A 
ATOM     38  C   UNL     1      -8.664  -8.998  17.004  0.00  0.00    +0.004 A 
ATOM     41  C   UNL     1      -9.631  -8.022  16.761  0.00  0.00    +0.038 A 
ENDBRANCH  18  23
BRANCH  13  17
ATOM      5  O   UNL     1      -5.478 -13.667  12.943  0.00  0.00    -0.274 OA
ATOM     10  N   UNL     1      -4.095 -11.855  13.417  0.00  0.00    -0.302 N 
ATOM     17  C   UNL     1      -5.085 -12.525  12.718  0.00  0.00    +0.234 C 
ATOM     42  H   UNL     1      -3.773 -10.958  13.066  0.00  0.00    +0.150 HD
BRANCH  10  19
ATOM     19  C   UNL     1      -3.380 -12.437  14.530  0.00  0.00    +0.163 C 
BRANCH  19  26
ATOM      7  O   UNL     1      -1.090 -11.717  14.900  0.00  0.00    -0.274 OA
ATOM     12  N   UNL     1      -1.540 -13.055  13.089  0.00  0.00    -0.328 N 
ATOM     26  C   UNL     1      -1.896 -12.335  14.210  0.00  0.00    +0.231 C 
ATOM     44  H   UNL     1      -2.214 -13.581  12.542  0.00  0.00    +0.145 HD
ATOM     45  H   UNL     1      -0.577 -13.084  12.773  0.00  0.00    +0.145 HD
ENDBRANCH  19  26
BRANCH  19  21
ATOM     21  C   UNL     1      -3.694 -11.732  15.855  0.00  0.00    +0.069 C 
BRANCH  21  22
ATOM     11  N   UNL     1      -6.256 -13.915  17.332  0.00  0.00    -0.360 N 
ATOM     22  C   UNL     1      -4.789 -12.403  16.635  0.00  0.00    -0.020 A 
ATOM     27  C   UNL     1      -5.518 -11.846  17.723  0.00  0.00    +0.003 A 
ATOM     28  C   UNL     1      -5.265 -13.676  16.419  0.00  0.00    +0.087 A 
ATOM     29  C   UNL     1      -6.432 -12.815  18.141  0.00  0.00    +0.047 A 
ATOM     34  C   UNL     1      -5.488 -10.607  18.393  0.00  0.00    +0.010 A 
ATOM     36  C   UNL     1      -7.321 -12.607  19.202  0.00  0.00    +0.026 A 
ATOM     39  C   UNL     1      -6.371 -10.385  19.455  0.00  0.00    +0.001 A 
ATOM     40  C   UNL     1      -7.273 -11.370  19.852  0.00  0.00    +0.002 A 
ATOM     43  H   UNL     1      -6.783 -14.774  17.403  0.00  0.00    +0.165 HD
ENDBRANCH  21  22
ENDBRANCH  19  21
ENDBRANCH  10  19
ENDBRANCH  13  17
BRANCH   8   1
ATOM      1  S   UNL     1      -3.612 -10.253  10.579  0.00  0.00    +0.062 S 
ATOM      3  O   UNL     1      -2.617 -11.265  10.866  0.00  0.00    -0.153 OA
ATOM      4  O   UNL     1      -3.247  -8.856  10.480  0.00  0.00    -0.153 OA
BRANCH   1  20
ATOM     20  C   UNL     1      -4.426 -10.709   9.080  0.00  0.00    +0.106 A 
ATOM     24  C   UNL     1      -4.380 -12.031   8.635  0.00  0.00    +0.028 A 
ATOM     25  C   UNL     1      -5.112  -9.747   8.339  0.00  0.00    +0.028 A 
ATOM     32  C   UNL     1      -5.023 -12.390   7.451  0.00  0.00    +0.002 A 
ATOM     33  C   UNL     1      -5.755 -10.107   7.153  0.00  0.00    +0.002 A 
ATOM     35  C   UNL     1      -5.709 -11.429   6.710  0.00  0.00    +0.000 A 
ENDBRANCH   1  20
ENDBRANCH   8   1
TORSDOF 8
ENDMDL
MODEL 6
REMARK VINA RESULT:      -7.3      2.930      6.637
REMARK  Name = 11887626
REMARK  8 active torsions:
REMARK  status: ('A' for Active; 'I' for Inactive)
REMARK    1  A    between atoms: S_1  and  N_8
REMARK    2  A    between atoms: S_1  and  C_20
REMARK    3  A    between atoms: N_10  and  C_19
REMARK    4  A    between atoms: C_13  and  C_17
REMARK    5  A    between atoms: C_18  and  C_23
REMARK    6  A    between atoms: C_19  and  C_21
REMARK    7  A    between atoms: C_19  and  C_26
REMARK    8  A    between atoms: C_21  and  C_22
REMARK                            x       y       z     vdW  Elec       q    Type
REMARK                         _______ _______ _______ _____ _____    ______ ____
ROOT
ATOM      6  O   UNL     1      -4.090 -13.920  15.549  0.00  0.00    -0.270 OA
ATOM      8  N   UNL     1      -7.893 -11.428  17.786  0.00  0.00    -0.162 NA
ATOM      9  N   UNL     1      -5.388 -12.324  16.662  0.00  0.00    -0.294 N 
ATOM     13  C   UNL     1      -7.772 -12.804  17.231  0.00  0.00    +0.183 C 
ATOM     14  C   UNL     1      -6.333 -13.311  17.186  0.00  0.00    +0.138 C 
ATOM     15  C   UNL     1      -6.610 -10.800  18.194  0.00  0.00    +0.129 C 
ATOM     16  C   UNL     1      -5.606 -10.929  17.057  0.00  0.00    +0.125 C 
ATOM     18  C   UNL     1      -4.301 -12.759  15.896  0.00  0.00    +0.247 C 
ENDROOT
BRANCH  18  23
ATOM      2  F   UNL     1      -2.379  -9.922  12.463  0.00  0.00    -0.205 F 
ATOM     23  C   UNL     1      -3.318 -11.754  15.463  0.00  0.00    +0.040 A 
ATOM     30  C   UNL     1      -3.314 -11.306  14.142  0.00  0.00    +0.051 A 
ATOM     31  C   UNL     1      -2.389 -11.249  16.373  0.00  0.00    +0.013 A 
ATOM     37  C   UNL     1      -2.382 -10.353  13.730  0.00  0.00    +0.124 A 
ATOM     38  C   UNL     1      -1.458 -10.296  15.962  0.00  0.00    +0.004 A 
ATOM     41  C   UNL     1      -1.454  -9.848  14.641  0.00  0.00    +0.038 A 
ENDBRANCH  18  23
BRANCH  13  17
ATOM      5  O   UNL     1      -8.860 -13.674  15.296  0.00  0.00    -0.274 OA
ATOM     10  N   UNL     1      -8.237 -11.431  15.328  0.00  0.00    -0.302 N 
ATOM     17  C   UNL     1      -8.358 -12.703  15.858  0.00  0.00    +0.234 C 
ATOM     42  H   UNL     1      -7.911 -10.681  15.929  0.00  0.00    +0.150 HD
BRANCH  10  19
ATOM     19  C   UNL     1      -8.702 -11.077  14.006  0.00  0.00    +0.163 C 
BRANCH  19  26
ATOM      7  O   UNL     1     -10.968 -10.975  14.876  0.00  0.00    -0.274 OA
ATOM     12  N   UNL     1     -10.256  -9.305  13.470  0.00  0.00    -0.328 N 
ATOM     26  C   UNL     1     -10.095 -10.485  14.167  0.00  0.00    +0.231 C 
ATOM     44  H   UNL     1      -9.517  -8.899  12.906  0.00  0.00    +0.145 HD
ATOM     45  H   UNL     1     -11.134  -8.798  13.502  0.00  0.00    +0.145 HD
ENDBRANCH  19  26
BRANCH  19  21
ATOM     21  C   UNL     1      -7.771 -10.077  13.310  0.00  0.00    +0.069 C 
BRANCH  21  22
ATOM     11  N   UNL     1      -5.630 -12.284  11.295  0.00  0.00    -0.360 N 
ATOM     22  C   UNL     1      -6.788 -10.734  12.382  0.00  0.00    -0.020 A 
ATOM     27  C   UNL     1      -5.875 -10.077  11.510  0.00  0.00    +0.003 A 
ATOM     28  C   UNL     1      -6.613 -12.091  12.227  0.00  0.00    +0.087 A 
ATOM     29  C   UNL     1      -5.161 -11.072  10.841  0.00  0.00    +0.047 A 
ATOM     34  C   UNL     1      -5.588  -8.727  11.227  0.00  0.00    +0.010 A 
ATOM     36  C   UNL     1      -4.169 -10.784   9.896  0.00  0.00    +0.026 A 
ATOM     39  C   UNL     1      -4.599  -8.424  10.285  0.00  0.00    +0.001 A 
ATOM     40  C   UNL     1      -3.901  -9.438   9.631  0.00  0.00    +0.002 A 
ATOM     43  H   UNL     1      -5.295 -13.186  10.986  0.00  0.00    +0.165 HD
ENDBRANCH  21  22
ENDBRANCH  19  21
ENDBRANCH  10  19
ENDBRANCH  13  17
BRANCH   8   1
ATOM      1  S   UNL     1      -9.239 -11.118  18.794  0.00  0.00    +0.062 S 
ATOM      3  O   UNL     1      -8.769 -10.671  20.088  0.00  0.00    -0.153 OA
ATOM      4  O   UNL     1     -10.176 -12.216  18.679  0.00  0.00    -0.153 OA
BRANCH   1  20
ATOM     20  C   UNL     1      -9.933  -9.724  17.962  0.00  0.00    +0.106 A 
ATOM     24  C   UNL     1      -9.098  -8.800  17.333  0.00  0.00    +0.028 A 
ATOM     25  C   UNL     1     -11.316  -9.544  17.937  0.00  0.00    +0.028 A 
ATOM     32  C   UNL     1      -9.646  -7.699  16.676  0.00  0.00    +0.002 A 
ATOM     33  C   UNL     1     -11.864  -8.441  17.281  0.00  0.00    +0.002 A 
ATOM     35  C   UNL     1     -11.029  -7.518  16.651  0.00  0.00    +0.000 A 
ENDBRANCH   1  20
ENDBRANCH   8   1
TORSDOF 8
ENDMDL
MODEL 7
REMARK VINA RESULT:      -7.3     24.897     29.062
REMARK  Name = 11887626
REMARK  8 active torsions:
REMARK  status: ('A' for Active; 'I' for Inactive)
REMARK    1  A    between atoms: S_1  and  N_8
REMARK    2  A    between atoms: S_1  and  C_20
REMARK    3  A    between atoms: N_10  and  C_19
REMARK    4  A    between atoms: C_13  and  C_17
REMARK    5  A    between atoms: C_18  and  C_23
REMARK    6  A    between atoms: C_19  and  C_21
REMARK    7  A    between atoms: C_19  and  C_26
REMARK    8  A    between atoms: C_21  and  C_22
REMARK                            x       y       z     vdW  Elec       q    Type
REMARK                         _______ _______ _______ _____ _____    ______ ____
ROOT
ATOM      6  O   UNL     1      15.922   8.113   5.884  0.00  0.00    -0.270 OA
ATOM      8  N   UNL     1      10.881   8.099   5.371  0.00  0.00    -0.162 NA
ATOM      9  N   UNL     1      13.660   8.709   5.867  0.00  0.00    -0.294 N 
ATOM     13  C   UNL     1      11.917   7.041   5.219  0.00  0.00    +0.183 C 
ATOM     14  C   UNL     1      13.192   7.329   6.007  0.00  0.00    +0.138 C 
ATOM     15  C   UNL     1      11.264   9.232   6.252  0.00  0.00    +0.129 C 
ATOM     16  C   UNL     1      12.631   9.753   5.830  0.00  0.00    +0.125 C 
ATOM     18  C   UNL     1      15.035   8.966   5.855  0.00  0.00    +0.247 C 
ENDROOT
BRANCH  18  23
ATOM      2  F   UNL     1      16.358  12.902   3.349  0.00  0.00    -0.205 F 
ATOM     23  C   UNL     1      15.472  10.369   5.806  0.00  0.00    +0.040 A 
ATOM     30  C   UNL     1      15.713  10.982   4.576  0.00  0.00    +0.051 A 
ATOM     31  C   UNL     1      15.648  11.087   6.989  0.00  0.00    +0.013 A 
ATOM     37  C   UNL     1      16.128  12.314   4.529  0.00  0.00    +0.124 A 
ATOM     38  C   UNL     1      16.063  12.418   6.942  0.00  0.00    +0.004 A 
ATOM     41  C   UNL     1      16.303  13.031   5.713  0.00  0.00    +0.038 A 
ENDBRANCH  18  23
BRANCH  13  17
ATOM      5  O   UNL     1      11.938   7.944   3.013  0.00  0.00    -0.274 OA
ATOM     10  N   UNL     1      12.701   5.771   3.350  0.00  0.00    -0.302 N 
ATOM     17  C   UNL     1      12.184   6.991   3.749  0.00  0.00    +0.234 C 
ATOM     42  H   UNL     1      12.974   5.101   4.063  0.00  0.00    +0.150 HD
BRANCH  10  19
ATOM     19  C   UNL     1      13.025   5.459   1.977  0.00  0.00    +0.163 C 
BRANCH  19  26
ATOM      7  O   UNL     1      15.254   6.353   1.613  0.00  0.00    -0.274 OA
ATOM     12  N   UNL     1      15.038   4.137   2.177  0.00  0.00    -0.328 N 
ATOM     26  C   UNL     1      14.542   5.389   1.880  0.00  0.00    +0.231 C 
ATOM     44  H   UNL     1      14.438   3.355   2.419  0.00  0.00    +0.145 HD
ATOM     45  H   UNL     1      16.037   3.957   2.163  0.00  0.00    +0.145 HD
ENDBRANCH  19  26
BRANCH  19  21
ATOM     21  C   UNL     1      12.396   4.138   1.517  0.00  0.00    +0.069 C 
BRANCH  21  22
ATOM     11  N   UNL     1       9.669   4.930  -0.817  0.00  0.00    -0.360 N 
ATOM     22  C   UNL     1      11.435   4.308   0.375  0.00  0.00    -0.020 A 
ATOM     27  C   UNL     1      11.575   3.776  -0.937  0.00  0.00    +0.003 A 
ATOM     28  C   UNL     1      10.254   5.013   0.418  0.00  0.00    +0.087 A 
ATOM     29  C   UNL     1      10.454   4.181  -1.665  0.00  0.00    +0.047 A 
ATOM     34  C   UNL     1      12.550   2.986  -1.577  0.00  0.00    +0.010 A 
ATOM     36  C   UNL     1      10.259   3.835  -3.006  0.00  0.00    +0.026 A 
ATOM     39  C   UNL     1      12.369   2.632  -2.919  0.00  0.00    +0.001 A 
ATOM     40  C   UNL     1      11.240   3.051  -3.621  0.00  0.00    +0.002 A 
ATOM     43  H   UNL     1       8.789   5.357  -1.071  0.00  0.00    +0.165 HD
ENDBRANCH  21  22
ENDBRANCH  19  21
ENDBRANCH  10  19
ENDBRANCH  13  17
BRANCH   8   1
ATOM      1  S   UNL     1       9.256   7.577   5.477  0.00  0.00    +0.062 S 
ATOM      3  O   UNL     1       8.869   6.973   4.219  0.00  0.00    -0.153 OA
ATOM      4  O   UNL     1       8.461   8.629   6.074  0.00  0.00    -0.153 OA
BRANCH   1  20
ATOM     20  C   UNL     1       9.424   6.283   6.666  0.00  0.00    +0.106 A 
ATOM     24  C   UNL     1       9.319   6.568   8.028  0.00  0.00    +0.028 A 
ATOM     25  C   UNL     1       9.663   4.975   6.245  0.00  0.00    +0.028 A 
ATOM     32  C   UNL     1       9.452   5.546   8.967  0.00  0.00    +0.002 A 
ATOM     33  C   UNL     1       9.796   3.952   7.185  0.00  0.00    +0.002 A 
ATOM     35  C   UNL     1       9.691   4.238   8.546  0.00  0.00    +0.000 A 
ENDBRANCH   1  20
ENDBRANCH   8   1
TORSDOF 8
ENDMDL
MODEL 8
REMARK VINA RESULT:      -7.2     27.362     30.979
REMARK  Name = 11887626
REMARK  8 active torsions:
REMARK  status: ('A' for Active; 'I' for Inactive)
REMARK    1  A    between atoms: S_1  and  N_8
REMARK    2  A    between atoms: S_1  and  C_20
REMARK    3  A    between atoms: N_10  and  C_19
REMARK    4  A    between atoms: C_13  and  C_17
REMARK    5  A    between atoms: C_18  and  C_23
REMARK    6  A    between atoms: C_19  and  C_21
REMARK    7  A    between atoms: C_19  and  C_26
REMARK    8  A    between atoms: C_21  and  C_22
REMARK                            x       y       z     vdW  Elec       q    Type
REMARK                         _______ _______ _______ _____ _____    ______ ____
ROOT
ATOM      6  O   UNL     1      17.186  10.592   6.477  0.00  0.00    -0.270 OA
ATOM      8  N   UNL     1      15.124   8.411   2.394  0.00  0.00    -0.162 NA
ATOM      9  N   UNL     1      16.852   9.539   4.415  0.00  0.00    -0.294 N 
ATOM     13  C   UNL     1      14.540   9.089   3.583  0.00  0.00    +0.183 C 
ATOM     14  C   UNL     1      15.499  10.073   4.248  0.00  0.00    +0.138 C 
ATOM     15  C   UNL     1      16.518   8.807   2.066  0.00  0.00    +0.129 C 
ATOM     16  C   UNL     1      17.373   8.711   3.322  0.00  0.00    +0.125 C 
ATOM     18  C   UNL     1      17.594   9.901   5.544  0.00  0.00    +0.247 C 
ENDROOT
BRANCH  18  23
ATOM      2  F   UNL     1      22.225  10.038   4.107  0.00  0.00    -0.205 F 
ATOM     23  C   UNL     1      18.982   9.422   5.638  0.00  0.00    +0.040 A 
ATOM     30  C   UNL     1      19.965   9.967   4.811  0.00  0.00    +0.051 A 
ATOM     31  C   UNL     1      19.315   8.422   6.551  0.00  0.00    +0.013 A 
ATOM     37  C   UNL     1      21.281   9.514   4.899  0.00  0.00    +0.124 A 
ATOM     38  C   UNL     1      20.631   7.968   6.639  0.00  0.00    +0.004 A 
ATOM     41  C   UNL     1      21.614   8.514   5.814  0.00  0.00    +0.038 A 
ENDBRANCH  18  23
BRANCH  13  17
ATOM      5  O   UNL     1      15.035   7.300   5.079  0.00  0.00    -0.274 OA
ATOM     10  N   UNL     1      12.810   7.792   4.606  0.00  0.00    -0.302 N 
ATOM     17  C   UNL     1      14.179   7.971   4.508  0.00  0.00    +0.234 C 
ATOM     42  H   UNL     1      12.197   8.481   4.182  0.00  0.00    +0.150 HD
BRANCH  10  19
ATOM     19  C   UNL     1      12.203   6.763   5.418  0.00  0.00    +0.163 C 
BRANCH  19  26
ATOM      7  O   UNL     1      11.982   8.071   7.453  0.00  0.00    -0.274 OA
ATOM     12  N   UNL     1      13.328   6.211   7.485  0.00  0.00    -0.328 N 
ATOM     26  C   UNL     1      12.485   7.114   6.871  0.00  0.00    +0.231 C 
ATOM     44  H   UNL     1      13.717   5.410   6.998  0.00  0.00    +0.145 HD
ATOM     45  H   UNL     1      13.586   6.321   8.460  0.00  0.00    +0.145 HD
ENDBRANCH  19  26
BRANCH  19  21
ATOM     21  C   UNL     1      10.692   6.648   5.178  0.00  0.00    +0.069 C 
BRANCH  21  22
ATOM     11  N   UNL     1       9.521   7.497   1.798  0.00  0.00    -0.360 N 
ATOM     22  C   UNL     1      10.318   6.737   3.725  0.00  0.00    -0.020 A 
ATOM     27  C   UNL     1      10.552   5.750   2.727  0.00  0.00    +0.003 A 
ATOM     28  C   UNL     1       9.683   7.800   3.123  0.00  0.00    +0.087 A 
ATOM     29  C   UNL     1      10.042   6.251   1.528  0.00  0.00    +0.047 A 
ATOM     34  C   UNL     1      11.150   4.474   2.730  0.00  0.00    +0.010 A 
ATOM     36  C   UNL     1      10.101   5.538   0.326  0.00  0.00    +0.026 A 
ATOM     39  C   UNL     1      11.215   3.749   1.535  0.00  0.00    +0.001 A 
ATOM     40  C   UNL     1      10.698   4.274   0.352  0.00  0.00    +0.002 A 
ATOM     43  H   UNL     1       9.082   8.099   1.116  0.00  0.00    +0.165 HD
ENDBRANCH  21  22
ENDBRANCH  19  21
ENDBRANCH  10  19
ENDBRANCH  13  17
BRANCH   8   1
ATOM      1  S   UNL     1      14.081   8.153   1.064  0.00  0.00    +0.062 S 
ATOM      3  O   UNL     1      14.619   8.827  -0.099  0.00  0.00    -0.153 OA
ATOM      4  O   UNL     1      12.714   8.373   1.487  0.00  0.00    -0.153 OA
BRANCH   1  20
ATOM     20  C   UNL     1      14.303   6.417   0.830  0.00  0.00    +0.106 A 
ATOM     24  C   UNL     1      14.628   5.602   1.916  0.00  0.00    +0.028 A 
ATOM     25  C   UNL     1      14.157   5.859  -0.440  0.00  0.00    +0.028 A 
ATOM     32  C   UNL     1      14.804   4.231   1.731  0.00  0.00    +0.002 A 
ATOM     33  C   UNL     1      14.332   4.487  -0.625  0.00  0.00    +0.002 A 
ATOM     35  C   UNL     1      14.657   3.674   0.461  0.00  0.00    +0.000 A 
ENDBRANCH   1  20
ENDBRANCH   8   1
TORSDOF 8
ENDMDL
MODEL 9
REMARK VINA RESULT:      -7.1     25.984     30.661
REMARK  Name = 11887626
REMARK  8 active torsions:
REMARK  status: ('A' for Active; 'I' for Inactive)
REMARK    1  A    between atoms: S_1  and  N_8
REMARK    2  A    between atoms: S_1  and  C_20
REMARK    3  A    between atoms: N_10  and  C_19
REMARK    4  A    between atoms: C_13  and  C_17
REMARK    5  A    between atoms: C_18  and  C_23
REMARK    6  A    between atoms: C_19  and  C_21
REMARK    7  A    between atoms: C_19  and  C_26
REMARK    8  A    between atoms: C_21  and  C_22
REMARK                            x       y       z     vdW  Elec       q    Type
REMARK                         _______ _______ _______ _____ _____    ______ ____
ROOT
ATOM      6  O   UNL     1      17.182  10.914   5.528  0.00  0.00    -0.270 OA
ATOM      8  N   UNL     1      15.276   7.977   1.865  0.00  0.00    -0.162 NA
ATOM      9  N   UNL     1      16.923   9.408   3.756  0.00  0.00    -0.294 N 
ATOM     13  C   UNL     1      14.666   8.989   2.771  0.00  0.00    +0.183 C 
ATOM     14  C   UNL     1      15.672  10.011   3.295  0.00  0.00    +0.138 C 
ATOM     15  C   UNL     1      16.733   8.140   1.631  0.00  0.00    +0.129 C 
ATOM     16  C   UNL     1      17.442   8.284   2.971  0.00  0.00    +0.125 C 
ATOM     18  C   UNL     1      17.590   9.972   4.849  0.00  0.00    +0.247 C 
ENDROOT
BRANCH  18  23
ATOM      2  F   UNL     1      22.306   9.235   3.987  0.00  0.00    -0.205 F 
ATOM     23  C   UNL     1      18.891   9.401   5.230  0.00  0.00    +0.040 A 
ATOM     30  C   UNL     1      20.004   9.592   4.411  0.00  0.00    +0.051 A 
ATOM     31  C   UNL     1      19.012   8.665   6.410  0.00  0.00    +0.013 A 
ATOM     37  C   UNL     1      21.238   9.050   4.772  0.00  0.00    +0.124 A 
ATOM     38  C   UNL     1      20.245   8.123   6.771  0.00  0.00    +0.004 A 
ATOM     41  C   UNL     1      21.358   8.315   5.953  0.00  0.00    +0.038 A 
ENDBRANCH  18  23
BRANCH  13  17
ATOM      5  O   UNL     1      14.429   7.025   4.103  0.00  0.00    -0.274 OA
ATOM     10  N   UNL     1      13.114   8.884   4.587  0.00  0.00    -0.302 N 
ATOM     17  C   UNL     1      14.079   8.183   3.885  0.00  0.00    +0.234 C 
ATOM     42  H   UNL     1      12.992   9.873   4.394  0.00  0.00    +0.150 HD
BRANCH  10  19
ATOM     19  C   UNL     1      12.378   8.322   5.697  0.00  0.00    +0.163 C 
BRANCH  19  26
ATOM      7  O   UNL     1      11.384   9.708   7.427  0.00  0.00    -0.274 OA
ATOM     12  N   UNL     1      13.652   9.832   7.090  0.00  0.00    -0.328 N 
ATOM     26  C   UNL     1      12.387   9.360   6.810  0.00  0.00    +0.231 C 
ATOM     44  H   UNL     1      14.476   9.517   6.587  0.00  0.00    +0.145 HD
ATOM     45  H   UNL     1      13.801  10.518   7.822  0.00  0.00    +0.145 HD
ENDBRANCH  19  26
BRANCH  19  21
ATOM     21  C   UNL     1      10.938   7.957   5.315  0.00  0.00    +0.069 C 
BRANCH  21  22
ATOM     11  N   UNL     1      10.227   4.351   5.350  0.00  0.00    -0.360 N 
ATOM     22  C   UNL     1      10.596   6.524   5.609  0.00  0.00    -0.020 A 
ATOM     27  C   UNL     1      10.218   5.984   6.870  0.00  0.00    +0.003 A 
ATOM     28  C   UNL     1      10.592   5.495   4.694  0.00  0.00    +0.087 A 
ATOM     29  C   UNL     1       9.992   4.619   6.680  0.00  0.00    +0.047 A 
ATOM     34  C   UNL     1      10.046   6.527   8.159  0.00  0.00    +0.010 A 
ATOM     36  C   UNL     1       9.602   3.767   7.718  0.00  0.00    +0.026 A 
ATOM     39  C   UNL     1       9.656   5.687   9.206  0.00  0.00    +0.001 A 
ATOM     40  C   UNL     1       9.437   4.328   8.988  0.00  0.00    +0.002 A 
ATOM     43  H   UNL     1      10.141   3.440   4.921  0.00  0.00    +0.165 HD
ENDBRANCH  21  22
ENDBRANCH  19  21
ENDBRANCH  10  19
ENDBRANCH  13  17
BRANCH   8   1
ATOM      1  S   UNL     1      14.344   7.492   0.515  0.00  0.00    +0.062 S 
ATOM      3  O   UNL     1      15.197   7.433  -0.653  0.00  0.00    -0.153 OA
ATOM      4  O   UNL     1      13.109   8.246   0.499  0.00  0.00    -0.153 OA
BRANCH   1  20
ATOM     20  C   UNL     1      13.961   5.833   0.985  0.00  0.00    +0.106 A 
ATOM     24  C   UNL     1      14.975   4.878   1.060  0.00  0.00    +0.028 A 
ATOM     25  C   UNL     1      12.645   5.478   1.280  0.00  0.00    +0.028 A 
ATOM     32  C   UNL     1      14.672   3.568   1.431  0.00  0.00    +0.002 A 
ATOM     33  C   UNL     1      12.342   4.168   1.651  0.00  0.00    +0.002 A 
ATOM     35  C   UNL     1      13.356   3.212   1.726  0.00  0.00    +0.000 A 
ENDBRANCH   1  20
ENDBRANCH   8   1
TORSDOF 8
ENDMDL
MODEL 10
REMARK VINA RESULT:      -6.8     28.706     31.567
REMARK  Name = 11887626
REMARK  8 active torsions:
REMARK  status: ('A' for Active; 'I' for Inactive)
REMARK    1  A    between atoms: S_1  and  N_8
REMARK    2  A    between atoms: S_1  and  C_20
REMARK    3  A    between atoms: N_10  and  C_19
REMARK    4  A    between atoms: C_13  and  C_17
REMARK    5  A    between atoms: C_18  and  C_23
REMARK    6  A    between atoms: C_19  and  C_21
REMARK    7  A    between atoms: C_19  and  C_26
REMARK    8  A    between atoms: C_21  and  C_22
REMARK                            x       y       z     vdW  Elec       q    Type
REMARK                         _______ _______ _______ _____ _____    ______ ____
ROOT
ATOM      6  O   UNL     1      13.499  13.688  17.919  0.00  0.00    -0.270 OA
ATOM      8  N   UNL     1      14.382   8.953  19.493  0.00  0.00    -0.162 NA
ATOM      9  N   UNL     1      13.997  11.405  18.015  0.00  0.00    -0.294 N 
ATOM     13  C   UNL     1      13.918  10.182  20.192  0.00  0.00    +0.183 C 
ATOM     14  C   UNL     1      13.256  11.193  19.259  0.00  0.00    +0.138 C 
ATOM     15  C   UNL     1      14.121   8.925  18.031  0.00  0.00    +0.129 C 
ATOM     16  C   UNL     1      14.619  10.223  17.409  0.00  0.00    +0.125 C 
ATOM     18  C   UNL     1      14.009  12.678  17.436  0.00  0.00    +0.247 C 
ENDROOT
BRANCH  18  23
ATOM      2  F   UNL     1      14.029  12.318  12.599  0.00  0.00    -0.205 F 
ATOM     23  C   UNL     1      14.685  12.838  16.139  0.00  0.00    +0.040 A 
ATOM     30  C   UNL     1      14.023  12.494  14.960  0.00  0.00    +0.051 A 
ATOM     31  C   UNL     1      15.990  13.331  16.088  0.00  0.00    +0.013 A 
ATOM     37  C   UNL     1      14.665  12.646  13.730  0.00  0.00    +0.124 A 
ATOM     38  C   UNL     1      16.630  13.481  14.860  0.00  0.00    +0.004 A 
ATOM     41  C   UNL     1      15.968  13.139  13.680  0.00  0.00    +0.038 A 
ENDBRANCH  18  23
BRANCH  13  17
ATOM      5  O   UNL     1      16.237  10.166  20.746  0.00  0.00    -0.274 OA
ATOM     10  N   UNL     1      14.918  11.942  21.467  0.00  0.00    -0.302 N 
ATOM     17  C   UNL     1      15.156  10.746  20.814  0.00  0.00    +0.234 C 
ATOM     42  H   UNL     1      14.011  12.386  21.356  0.00  0.00    +0.150 HD
BRANCH  10  19
ATOM     19  C   UNL     1      15.943  12.680  22.169  0.00  0.00    +0.163 C 
BRANCH  19  26
ATOM      7  O   UNL     1      17.883  13.615  21.043  0.00  0.00    -0.274 OA
ATOM     12  N   UNL     1      15.792  14.186  20.284  0.00  0.00    -0.328 N 
ATOM     26  C   UNL     1      16.661  13.539  21.138  0.00  0.00    +0.231 C 
ATOM     44  H   UNL     1      14.784  14.095  20.360  0.00  0.00    +0.145 HD
ATOM     45  H   UNL     1      16.140  14.781  19.540  0.00  0.00    +0.145 HD
ENDBRANCH  19  26
BRANCH  19  21
ATOM     21  C   UNL     1      15.367  13.554  23.289  0.00  0.00    +0.069 C 
BRANCH  21  22
ATOM     11  N   UNL     1      13.365  11.455  25.548  0.00  0.00    -0.360 N 
ATOM     22  C   UNL     1      14.327  12.848  24.112  0.00  0.00    -0.020 A 
ATOM     27  C   UNL     1      12.927  13.108  24.114  0.00  0.00    +0.003 A 
ATOM     28  C   UNL     1      14.565  11.827  25.004  0.00  0.00    +0.087 A 
ATOM     29  C   UNL     1      12.348  12.220  25.022  0.00  0.00    +0.047 A 
ATOM     34  C   UNL     1      12.097  14.015  23.427  0.00  0.00    +0.010 A 
ATOM     36  C   UNL     1      10.973  12.195  25.281  0.00  0.00    +0.026 A 
ATOM     39  C   UNL     1      10.720  14.001  23.675  0.00  0.00    +0.001 A 
ATOM     40  C   UNL     1      10.168  13.104  24.588  0.00  0.00    +0.002 A 
ATOM     43  H   UNL     1      13.243  10.725  26.235  0.00  0.00    +0.165 HD
ENDBRANCH  21  22
ENDBRANCH  19  21
ENDBRANCH  10  19
ENDBRANCH  13  17
BRANCH   8   1
ATOM      1  S   UNL     1      14.183   7.472  20.323  0.00  0.00    +0.062 S 
ATOM      3  O   UNL     1      13.322   6.605  19.547  0.00  0.00    -0.153 OA
ATOM      4  O   UNL     1      13.903   7.747  21.717  0.00  0.00    -0.153 OA
BRANCH   1  20
ATOM     20  C   UNL     1      15.826   6.834  20.215  0.00  0.00    +0.106 A 
ATOM     24  C   UNL     1      16.254   6.203  19.047  0.00  0.00    +0.028 A 
ATOM     25  C   UNL     1      16.695   6.959  21.298  0.00  0.00    +0.028 A 
ATOM     32  C   UNL     1      17.551   5.699  18.962  0.00  0.00    +0.002 A 
ATOM     33  C   UNL     1      17.994   6.455  21.213  0.00  0.00    +0.002 A 
ATOM     35  C   UNL     1      18.421   5.824  20.044  0.00  0.00    +0.000 A 
ENDBRANCH   1  20
ENDBRANCH   8   1
TORSDOF 8
ENDMDL
