MODEL 1
REMARK VINA RESULT:      -6.1      0.000      0.000
REMARK  Name = 26743054
REMARK  9 active torsions:
REMARK  status: ('A' for Active; 'I' for Inactive)
REMARK    1  A    between atoms: O_4  and  C_20
REMARK    2  A    between atoms: O_4  and  C_25
REMARK    3  A    between atoms: N_6  and  C_19
REMARK    4  A    between atoms: C_8  and  C_14
REMARK    5  A    between atoms: C_9  and  C_13
REMARK    6  A    between atoms: C_13  and  C_15
REMARK    7  A    between atoms: C_14  and  C_16
REMARK    8  A    between atoms: C_18  and  C_20
REMARK    9  A    between atoms: C_19  and  C_21
REMARK                            x       y       z     vdW  Elec       q    Type
REMARK                         _______ _______ _______ _____ _____    ______ ____
ROOT
ATOM      5  N   UNL     1     -18.360   4.882  27.175  0.00  0.00    -0.316 NA
ATOM      8  C   UNL     1     -16.014   3.141  27.587  0.00  0.00    +0.004 C 
ATOM      9  C   UNL     1     -16.378   3.740  26.208  0.00  0.00    +0.012 C 
ATOM     10  C   UNL     1     -16.609   4.028  28.693  0.00  0.00    +0.019 C 
ATOM     11  C   UNL     1     -17.886   4.021  26.091  0.00  0.00    +0.085 C 
ATOM     12  C   UNL     1     -18.099   4.296  28.488  0.00  0.00    +0.081 C 
ATOM     26  H   UNL     1     -19.361   5.038  27.068  0.00  0.00    +0.122 HD
ENDROOT
BRANCH   9  13
ATOM     13  C   UNL     1     -15.898   2.883  25.036  0.00  0.00    +0.064 C 
BRANCH  13  15
ATOM      3  O   UNL     1     -15.636   4.477  21.819  0.00  0.00    -0.357 OA
ATOM      7  N   UNL     1     -16.191   3.547  22.689  0.00  0.00    -0.083 NA
ATOM     15  C   UNL     1     -15.549   3.730  23.846  0.00  0.00    +0.084 A 
ATOM     17  C   UNL     1     -14.586   4.751  23.767  0.00  0.00    +0.073 A 
ATOM     18  C   UNL     1     -14.682   5.188  22.472  0.00  0.00    +0.163 A 
BRANCH  18  20
ATOM     20  C   UNL     1     -13.988   6.222  21.694  0.00  0.00    +0.236 C 
BRANCH  20   4
ATOM      4  O   UNL     1     -12.606   5.887  21.545  0.00  0.00    -0.375 OA
ATOM     25  C   UNL     1     -11.922   6.862  20.777  0.00  0.00    +0.194 C 
ENDBRANCH  20   4
ENDBRANCH  18  20
ENDBRANCH  13  15
ENDBRANCH   9  13
BRANCH   8  14
ATOM     14  C   UNL     1     -16.448   1.680  27.766  0.00  0.00    +0.099 C 
BRANCH  14  16
ATOM      2  O   UNL     1     -16.319   0.149  29.634  0.00  0.00    -0.276 OA
ATOM      6  N   UNL     1     -14.526   1.557  29.189  0.00  0.00    -0.311 N 
ATOM     16  C   UNL     1     -15.788   1.029  28.962  0.00  0.00    +0.214 C 
ATOM     27  H   UNL     1     -14.168   2.282  28.572  0.00  0.00    +0.149 HD
BRANCH   6  19
ATOM     19  C   UNL     1     -13.670   1.123  30.268  0.00  0.00    +0.146 C 
BRANCH  19  21
ATOM      1  S   UNL     1     -13.483   3.395  31.855  0.00  0.00    -0.100 S 
ATOM     21  C   UNL     1     -14.016   1.794  31.566  0.00  0.00    +0.007 A 
ATOM     22  C   UNL     1     -14.740   1.290  32.625  0.00  0.00    +0.013 A 
ATOM     23  C   UNL     1     -14.859   2.232  33.688  0.00  0.00    +0.008 A 
ATOM     24  C   UNL     1     -14.221   3.420  33.401  0.00  0.00    +0.045 A 
ENDBRANCH  19  21
ENDBRANCH   6  19
ENDBRANCH  14  16
ENDBRANCH   8  14
TORSDOF 8
ENDMDL
MODEL 2
REMARK VINA RESULT:      -5.7      5.924     11.911
REMARK  Name = 26743054
REMARK  9 active torsions:
REMARK  status: ('A' for Active; 'I' for Inactive)
REMARK    1  A    between atoms: O_4  and  C_20
REMARK    2  A    between atoms: O_4  and  C_25
REMARK    3  A    between atoms: N_6  and  C_19
REMARK    4  A    between atoms: C_8  and  C_14
REMARK    5  A    between atoms: C_9  and  C_13
REMARK    6  A    between atoms: C_13  and  C_15
REMARK    7  A    between atoms: C_14  and  C_16
REMARK    8  A    between atoms: C_18  and  C_20
REMARK    9  A    between atoms: C_19  and  C_21
REMARK                            x       y       z     vdW  Elec       q    Type
REMARK                         _______ _______ _______ _____ _____    ______ ____
ROOT
ATOM      5  N   UNL     1     -14.487   9.576  21.849  0.00  0.00    -0.316 NA
ATOM      8  C   UNL     1     -12.940   8.016  19.879  0.00  0.00    +0.004 C 
ATOM      9  C   UNL     1     -13.700   7.358  21.056  0.00  0.00    +0.012 C 
ATOM     10  C   UNL     1     -13.591   9.371  19.556  0.00  0.00    +0.019 C 
ATOM     11  C   UNL     1     -13.847   8.321  22.246  0.00  0.00    +0.085 C 
ATOM     12  C   UNL     1     -13.741  10.256  20.793  0.00  0.00    +0.081 C 
ATOM     26  H   UNL     1     -14.559  10.189  22.660  0.00  0.00    +0.122 HD
ENDROOT
BRANCH   9  13
ATOM     13  C   UNL     1     -13.076   6.037  21.507  0.00  0.00    +0.064 C 
BRANCH  13  15
ATOM      3  O   UNL     1     -15.792   3.959  22.633  0.00  0.00    -0.357 OA
ATOM      7  N   UNL     1     -15.100   4.650  21.646  0.00  0.00    -0.083 NA
ATOM     15  C   UNL     1     -14.060   5.203  22.277  0.00  0.00    +0.084 A 
ATOM     17  C   UNL     1     -14.044   4.899  23.649  0.00  0.00    +0.073 A 
ATOM     18  C   UNL     1     -15.155   4.114  23.821  0.00  0.00    +0.163 A 
BRANCH  18  20
ATOM     20  C   UNL     1     -15.756   3.445  24.980  0.00  0.00    +0.236 C 
BRANCH  20   4
ATOM      4  O   UNL     1     -16.015   2.070  24.680  0.00  0.00    -0.375 OA
ATOM     25  C   UNL     1     -17.235   1.640  25.258  0.00  0.00    +0.194 C 
ENDBRANCH  20   4
ENDBRANCH  18  20
ENDBRANCH  13  15
ENDBRANCH   9  13
BRANCH   8  14
ATOM     14  C   UNL     1     -11.434   8.178  20.122  0.00  0.00    +0.099 C 
BRANCH  14  16
ATOM      2  O   UNL     1     -10.107   9.944  19.137  0.00  0.00    -0.276 OA
ATOM      6  N   UNL     1     -10.936   8.249  17.781  0.00  0.00    -0.311 N 
ATOM     16  C   UNL     1     -10.746   8.906  18.988  0.00  0.00    +0.214 C 
ATOM     27  H   UNL     1     -11.477   7.389  17.759  0.00  0.00    +0.149 HD
BRANCH   6  19
ATOM     19  C   UNL     1     -10.392   8.723  16.530  0.00  0.00    +0.146 C 
BRANCH  19  21
ATOM      1  S   UNL     1     -10.616   7.730  13.945  0.00  0.00    -0.100 S 
ATOM     21  C   UNL     1     -11.289   8.401  15.369  0.00  0.00    +0.007 A 
ATOM     22  C   UNL     1     -12.652   8.573  15.266  0.00  0.00    +0.013 A 
ATOM     23  C   UNL     1     -13.151   8.148  14.001  0.00  0.00    +0.008 A 
ATOM     24  C   UNL     1     -12.149   7.668  13.184  0.00  0.00    +0.045 A 
ENDBRANCH  19  21
ENDBRANCH   6  19
ENDBRANCH  14  16
ENDBRANCH   8  14
TORSDOF 8
ENDMDL
MODEL 3
REMARK VINA RESULT:      -5.5     18.492     20.507
REMARK  Name = 26743054
REMARK  9 active torsions:
REMARK  status: ('A' for Active; 'I' for Inactive)
REMARK    1  A    between atoms: O_4  and  C_20
REMARK    2  A    between atoms: O_4  and  C_25
REMARK    3  A    between atoms: N_6  and  C_19
REMARK    4  A    between atoms: C_8  and  C_14
REMARK    5  A    between atoms: C_9  and  C_13
REMARK    6  A    between atoms: C_13  and  C_15
REMARK    7  A    between atoms: C_14  and  C_16
REMARK    8  A    between atoms: C_18  and  C_20
REMARK    9  A    between atoms: C_19  and  C_21
REMARK                            x       y       z     vdW  Elec       q    Type
REMARK                         _______ _______ _______ _____ _____    ______ ____
ROOT
ATOM      5  N   UNL     1      -7.388 -10.595  19.746  0.00  0.00    -0.316 NA
ATOM      8  C   UNL     1      -5.887 -10.712  17.208  0.00  0.00    +0.004 C 
ATOM      9  C   UNL     1      -7.328 -10.158  17.302  0.00  0.00    +0.012 C 
ATOM     10  C   UNL     1      -5.209 -10.583  18.583  0.00  0.00    +0.019 C 
ATOM     11  C   UNL     1      -8.100 -10.777  18.480  0.00  0.00    +0.085 C 
ATOM     12  C   UNL     1      -6.051 -11.184  19.707  0.00  0.00    +0.081 C 
ATOM     26  H   UNL     1      -7.924 -11.024  20.499  0.00  0.00    +0.122 HD
ENDROOT
BRANCH   9  13
ATOM     13  C   UNL     1      -8.116 -10.315  16.001  0.00  0.00    +0.064 C 
BRANCH  13  15
ATOM      3  O   UNL     1     -10.454  -7.877  14.757  0.00  0.00    -0.357 OA
ATOM      7  N   UNL     1      -9.667  -9.013  14.611  0.00  0.00    -0.083 NA
ATOM     15  C   UNL     1      -9.059  -9.166  15.790  0.00  0.00    +0.084 A 
ATOM     17  C   UNL     1      -9.419  -8.166  16.711  0.00  0.00    +0.073 A 
ATOM     18  C   UNL     1     -10.298  -7.382  16.011  0.00  0.00    +0.163 A 
BRANCH  18  20
ATOM     20  C   UNL     1     -11.064  -6.173  16.339  0.00  0.00    +0.236 C 
BRANCH  20   4
ATOM      4  O   UNL     1     -11.968  -5.856  15.277  0.00  0.00    -0.375 OA
ATOM     25  C   UNL     1     -13.288  -6.268  15.588  0.00  0.00    +0.194 C 
ENDBRANCH  20   4
ENDBRANCH  18  20
ENDBRANCH  13  15
ENDBRANCH   9  13
BRANCH   8  14
ATOM     14  C   UNL     1      -5.806 -12.155  16.693  0.00  0.00    +0.099 C 
BRANCH  14  16
ATOM      2  O   UNL     1      -4.082 -13.532  15.700  0.00  0.00    -0.276 OA
ATOM      6  N   UNL     1      -3.984 -11.224  15.449  0.00  0.00    -0.311 N 
ATOM     16  C   UNL     1      -4.541 -12.410  15.902  0.00  0.00    +0.214 C 
ATOM     27  H   UNL     1      -4.442 -10.341  15.662  0.00  0.00    +0.149 HD
BRANCH   6  19
ATOM     19  C   UNL     1      -2.769 -11.169  14.668  0.00  0.00    +0.146 C 
BRANCH  19  21
ATOM      1  S   UNL     1      -4.627 -10.398  12.753  0.00  0.00    -0.100 S 
ATOM     21  C   UNL     1      -3.020 -10.672  13.274  0.00  0.00    +0.007 A 
ATOM     22  C   UNL     1      -2.101 -10.386  12.287  0.00  0.00    +0.013 A 
ATOM     23  C   UNL     1      -2.725  -9.935  11.089  0.00  0.00    +0.008 A 
ATOM     24  C   UNL     1      -4.098  -9.895  11.204  0.00  0.00    +0.045 A 
ENDBRANCH  19  21
ENDBRANCH   6  19
ENDBRANCH  14  16
ENDBRANCH   8  14
TORSDOF 8
ENDMDL
MODEL 4
REMARK VINA RESULT:      -5.5      8.372     11.499
REMARK  Name = 26743054
REMARK  9 active torsions:
REMARK  status: ('A' for Active; 'I' for Inactive)
REMARK    1  A    between atoms: O_4  and  C_20
REMARK    2  A    between atoms: O_4  and  C_25
REMARK    3  A    between atoms: N_6  and  C_19
REMARK    4  A    between atoms: C_8  and  C_14
REMARK    5  A    between atoms: C_9  and  C_13
REMARK    6  A    between atoms: C_13  and  C_15
REMARK    7  A    between atoms: C_14  and  C_16
REMARK    8  A    between atoms: C_18  and  C_20
REMARK    9  A    between atoms: C_19  and  C_21
REMARK                            x       y       z     vdW  Elec       q    Type
REMARK                         _______ _______ _______ _____ _____    ______ ____
ROOT
ATOM      5  N   UNL     1     -14.889   5.579  21.547  0.00  0.00    -0.316 NA
ATOM      8  C   UNL     1     -13.870   8.288  20.975  0.00  0.00    +0.004 C 
ATOM      9  C   UNL     1     -13.051   7.008  20.682  0.00  0.00    +0.012 C 
ATOM     10  C   UNL     1     -15.367   7.936  20.984  0.00  0.00    +0.019 C 
ATOM     11  C   UNL     1     -13.453   5.852  21.614  0.00  0.00    +0.085 C 
ATOM     12  C   UNL     1     -15.682   6.754  21.899  0.00  0.00    +0.081 C 
ATOM     26  H   UNL     1     -15.117   4.815  22.181  0.00  0.00    +0.122 HD
ENDROOT
BRANCH   9  13
ATOM     13  C   UNL     1     -11.540   7.239  20.731  0.00  0.00    +0.064 C 
BRANCH  13  15
ATOM      3  O   UNL     1     -10.063   9.552  18.402  0.00  0.00    -0.357 OA
ATOM      7  N   UNL     1     -10.330   9.106  19.690  0.00  0.00    -0.083 NA
ATOM     15  C   UNL     1     -11.065   8.002  19.529  0.00  0.00    +0.084 A 
ATOM     17  C   UNL     1     -11.292   7.706  18.174  0.00  0.00    +0.073 A 
ATOM     18  C   UNL     1     -10.641   8.710  17.507  0.00  0.00    +0.163 A 
BRANCH  18  20
ATOM     20  C   UNL     1     -10.457   9.036  16.088  0.00  0.00    +0.236 C 
BRANCH  20   4
ATOM      4  O   UNL     1     -11.223   8.144  15.271  0.00  0.00    -0.375 OA
ATOM     25  C   UNL     1     -10.458   7.669  14.177  0.00  0.00    +0.194 C 
ENDBRANCH  20   4
ENDBRANCH  18  20
ENDBRANCH  13  15
ENDBRANCH   9  13
BRANCH   8  14
ATOM     14  C   UNL     1     -13.469   9.002  22.272  0.00  0.00    +0.099 C 
BRANCH  14  16
ATOM      2  O   UNL     1     -12.683  11.196  22.919  0.00  0.00    -0.276 OA
ATOM      6  N   UNL     1     -12.861  10.667  20.663  0.00  0.00    -0.311 N 
ATOM     16  C   UNL     1     -12.962  10.405  22.021  0.00  0.00    +0.214 C 
ATOM     27  H   UNL     1     -13.110   9.944  19.993  0.00  0.00    +0.149 HD
BRANCH   6  19
ATOM     19  C   UNL     1     -12.406  11.932  20.135  0.00  0.00    +0.146 C 
BRANCH  19  21
ATOM      1  S   UNL     1     -11.323  12.919  17.775  0.00  0.00    -0.100 S 
ATOM     21  C   UNL     1     -12.454  11.964  18.634  0.00  0.00    +0.007 A 
ATOM     22  C   UNL     1     -13.321  11.304  17.790  0.00  0.00    +0.013 A 
ATOM     23  C   UNL     1     -13.052  11.586  16.420  0.00  0.00    +0.008 A 
ATOM     24  C   UNL     1     -11.990  12.452  16.268  0.00  0.00    +0.045 A 
ENDBRANCH  19  21
ENDBRANCH   6  19
ENDBRANCH  14  16
ENDBRANCH   8  14
TORSDOF 8
ENDMDL
MODEL 5
REMARK VINA RESULT:      -5.4      4.338     10.176
REMARK  Name = 26743054
REMARK  9 active torsions:
REMARK  status: ('A' for Active; 'I' for Inactive)
REMARK    1  A    between atoms: O_4  and  C_20
REMARK    2  A    between atoms: O_4  and  C_25
REMARK    3  A    between atoms: N_6  and  C_19
REMARK    4  A    between atoms: C_8  and  C_14
REMARK    5  A    between atoms: C_9  and  C_13
REMARK    6  A    between atoms: C_13  and  C_15
REMARK    7  A    between atoms: C_14  and  C_16
REMARK    8  A    between atoms: C_18  and  C_20
REMARK    9  A    between atoms: C_19  and  C_21
REMARK                            x       y       z     vdW  Elec       q    Type
REMARK                         _______ _______ _______ _____ _____    ______ ____
ROOT
ATOM      5  N   UNL     1     -18.047   7.012  21.370  0.00  0.00    -0.316 NA
ATOM      8  C   UNL     1     -15.302   5.995  20.996  0.00  0.00    +0.004 C 
ATOM      9  C   UNL     1     -16.209   5.543  22.166  0.00  0.00    +0.012 C 
ATOM     10  C   UNL     1     -16.185   6.481  19.835  0.00  0.00    +0.019 C 
ATOM     11  C   UNL     1     -17.245   6.620  22.530  0.00  0.00    +0.085 C 
ATOM     12  C   UNL     1     -17.215   7.518  20.281  0.00  0.00    +0.081 C 
ATOM     26  H   UNL     1     -18.714   7.730  21.647  0.00  0.00    +0.122 HD
ENDROOT
BRANCH   9  13
ATOM     13  C   UNL     1     -15.421   5.115  23.404  0.00  0.00    +0.064 C 
BRANCH  13  15
ATOM      3  O   UNL     1     -16.685   1.777  23.868  0.00  0.00    -0.357 OA
ATOM      7  N   UNL     1     -16.330   2.857  23.071  0.00  0.00    -0.083 NA
ATOM     15  C   UNL     1     -15.897   3.789  23.924  0.00  0.00    +0.084 A 
ATOM     17  C   UNL     1     -15.955   3.358  25.261  0.00  0.00    +0.073 A 
ATOM     18  C   UNL     1     -16.457   2.086  25.170  0.00  0.00    +0.163 A 
BRANCH  18  20
ATOM     20  C   UNL     1     -16.780   1.048  26.157  0.00  0.00    +0.236 C 
BRANCH  20   4
ATOM      4  O   UNL     1     -16.390   1.470  27.467  0.00  0.00    -0.375 OA
ATOM     25  C   UNL     1     -17.516   1.608  28.317  0.00  0.00    +0.194 C 
ENDBRANCH  20   4
ENDBRANCH  18  20
ENDBRANCH  13  15
ENDBRANCH   9  13
BRANCH   8  14
ATOM     14  C   UNL     1     -14.271   7.063  21.383  0.00  0.00    +0.099 C 
BRANCH  14  16
ATOM      2  O   UNL     1     -12.113   5.973  21.457  0.00  0.00    -0.276 OA
ATOM      6  N   UNL     1     -12.615   7.392  19.686  0.00  0.00    -0.311 N 
ATOM     16  C   UNL     1     -12.885   6.731  20.875  0.00  0.00    +0.214 C 
ATOM     27  H   UNL     1     -13.322   7.996  19.276  0.00  0.00    +0.149 HD
BRANCH   6  19
ATOM     19  C   UNL     1     -11.363   7.262  18.977  0.00  0.00    +0.146 C 
BRANCH  19  21
ATOM      1  S   UNL     1     -10.936   9.964  19.460  0.00  0.00    -0.100 S 
ATOM     21  C   UNL     1     -10.875   8.582  18.452  0.00  0.00    +0.007 A 
ATOM     22  C   UNL     1     -10.355   8.871  17.209  0.00  0.00    +0.013 A 
ATOM     23  C   UNL     1     -10.001  10.245  17.083  0.00  0.00    +0.008 A 
ATOM     24  C   UNL     1     -10.265  10.955  18.235  0.00  0.00    +0.045 A 
ENDBRANCH  19  21
ENDBRANCH   6  19
ENDBRANCH  14  16
ENDBRANCH   8  14
TORSDOF 8
ENDMDL
MODEL 6
REMARK VINA RESULT:      -5.4     18.845     20.475
REMARK  Name = 26743054
REMARK  9 active torsions:
REMARK  status: ('A' for Active; 'I' for Inactive)
REMARK    1  A    between atoms: O_4  and  C_20
REMARK    2  A    between atoms: O_4  and  C_25
REMARK    3  A    between atoms: N_6  and  C_19
REMARK    4  A    between atoms: C_8  and  C_14
REMARK    5  A    between atoms: C_9  and  C_13
REMARK    6  A    between atoms: C_13  and  C_15
REMARK    7  A    between atoms: C_14  and  C_16
REMARK    8  A    between atoms: C_18  and  C_20
REMARK    9  A    between atoms: C_19  and  C_21
REMARK                            x       y       z     vdW  Elec       q    Type
REMARK                         _______ _______ _______ _____ _____    ______ ____
ROOT
ATOM      5  N   UNL     1      -5.871 -14.294  17.432  0.00  0.00    -0.316 NA
ATOM      8  C   UNL     1      -6.707 -11.472  17.229  0.00  0.00    +0.004 C 
ATOM      9  C   UNL     1      -5.262 -11.940  16.931  0.00  0.00    +0.012 C 
ATOM     10  C   UNL     1      -7.670 -12.652  17.020  0.00  0.00    +0.019 C 
ATOM     11  C   UNL     1      -4.911 -13.224  17.701  0.00  0.00    +0.085 C 
ATOM     12  C   UNL     1      -7.234 -13.902  17.782  0.00  0.00    +0.081 C 
ATOM     26  H   UNL     1      -5.611 -15.124  17.964  0.00  0.00    +0.122 HD
ENDROOT
BRANCH   9  13
ATOM     13  C   UNL     1      -4.216 -10.854  17.189  0.00  0.00    +0.064 C 
BRANCH  13  15
ATOM      3  O   UNL     1      -1.405 -10.475  14.973  0.00  0.00    -0.357 OA
ATOM      7  N   UNL     1      -1.967 -10.582  16.239  0.00  0.00    -0.083 NA
ATOM     15  C   UNL     1      -3.280 -10.710  16.024  0.00  0.00    +0.084 A 
ATOM     17  C   UNL     1      -3.602 -10.689  14.657  0.00  0.00    +0.073 A 
ATOM     18  C   UNL     1      -2.388 -10.540  14.038  0.00  0.00    +0.163 A 
BRANCH  18  20
ATOM     20  C   UNL     1      -1.966 -10.441  12.636  0.00  0.00    +0.236 C 
BRANCH  20   4
ATOM      4  O   UNL     1      -3.103 -10.254  11.788  0.00  0.00    -0.375 OA
ATOM     25  C   UNL     1      -3.261 -11.343  10.894  0.00  0.00    +0.194 C 
ENDBRANCH  20   4
ENDBRANCH  18  20
ENDBRANCH  13  15
ENDBRANCH   9  13
BRANCH   8  14
ATOM     14  C   UNL     1      -6.889 -10.859  18.623  0.00  0.00    +0.099 C 
BRANCH  14  16
ATOM      2  O   UNL     1      -8.850 -11.369  19.945  0.00  0.00    -0.276 OA
ATOM      6  N   UNL     1      -9.020  -9.860  18.186  0.00  0.00    -0.311 N 
ATOM     16  C   UNL     1      -8.347 -10.746  19.013  0.00  0.00    +0.214 C 
ATOM     27  H   UNL     1      -8.515  -9.385  17.443  0.00  0.00    +0.149 HD
BRANCH   6  19
ATOM     19  C   UNL     1     -10.427  -9.560  18.328  0.00  0.00    +0.146 C 
BRANCH  19  21
ATOM      1  S   UNL     1     -12.467  -8.501  16.769  0.00  0.00    -0.100 S 
ATOM     21  C   UNL     1     -10.869  -8.481  17.383  0.00  0.00    +0.007 A 
ATOM     22  C   UNL     1     -10.144  -7.412  16.902  0.00  0.00    +0.013 A 
ATOM     23  C   UNL     1     -10.911  -6.598  16.019  0.00  0.00    +0.008 A 
ATOM     24  C   UNL     1     -12.194  -7.077  15.857  0.00  0.00    +0.045 A 
ENDBRANCH  19  21
ENDBRANCH   6  19
ENDBRANCH  14  16
ENDBRANCH   8  14
TORSDOF 8
ENDMDL
MODEL 7
REMARK VINA RESULT:      -5.4     32.256     36.069
REMARK  Name = 26743054
REMARK  9 active torsions:
REMARK  status: ('A' for Active; 'I' for Inactive)
REMARK    1  A    between atoms: O_4  and  C_20
REMARK    2  A    between atoms: O_4  and  C_25
REMARK    3  A    between atoms: N_6  and  C_19
REMARK    4  A    between atoms: C_8  and  C_14
REMARK    5  A    between atoms: C_9  and  C_13
REMARK    6  A    between atoms: C_13  and  C_15
REMARK    7  A    between atoms: C_14  and  C_16
REMARK    8  A    between atoms: C_18  and  C_20
REMARK    9  A    between atoms: C_19  and  C_21
REMARK                            x       y       z     vdW  Elec       q    Type
REMARK                         _______ _______ _______ _____ _____    ______ ____
ROOT
ATOM      5  N   UNL     1      21.236   8.591  21.126  0.00  0.00    -0.316 NA
ATOM      8  C   UNL     1      19.061   6.628  21.476  0.00  0.00    +0.004 C 
ATOM      9  C   UNL     1      20.542   6.213  21.307  0.00  0.00    +0.012 C 
ATOM     10  C   UNL     1      19.001   8.059  22.034  0.00  0.00    +0.019 C 
ATOM     11  C   UNL     1      21.339   7.265  20.516  0.00  0.00    +0.085 C 
ATOM     12  C   UNL     1      19.848   9.038  21.222  0.00  0.00    +0.081 C 
ATOM     26  H   UNL     1      21.769   9.260  20.572  0.00  0.00    +0.122 HD
ENDROOT
BRANCH   9  13
ATOM     13  C   UNL     1      20.708   4.829  20.679  0.00  0.00    +0.064 C 
BRANCH  13  15
ATOM      3  O   UNL     1      22.786   3.254  23.161  0.00  0.00    -0.357 OA
ATOM      7  N   UNL     1      21.822   4.173  22.769  0.00  0.00    -0.083 NA
ATOM     15  C   UNL     1      21.686   3.992  21.452  0.00  0.00    +0.084 A 
ATOM     17  C   UNL     1      22.532   2.982  20.963  0.00  0.00    +0.073 A 
ATOM     18  C   UNL     1      23.202   2.550  22.078  0.00  0.00    +0.163 A 
BRANCH  18  20
ATOM     20  C   UNL     1      24.229   1.528  22.315  0.00  0.00    +0.236 C 
BRANCH  20   4
ATOM      4  O   UNL     1      25.308   1.685  21.389  0.00  0.00    -0.375 OA
ATOM     25  C   UNL     1      26.189   2.716  21.801  0.00  0.00    +0.194 C 
ENDBRANCH  20   4
ENDBRANCH  18  20
ENDBRANCH  13  15
ENDBRANCH   9  13
BRANCH   8  14
ATOM     14  C   UNL     1      18.229   6.507  20.193  0.00  0.00    +0.099 C 
BRANCH  14  16
ATOM      2  O   UNL     1      16.252   6.227  21.560  0.00  0.00    -0.276 OA
ATOM      6  N   UNL     1      16.024   6.903  19.349  0.00  0.00    -0.311 N 
ATOM     16  C   UNL     1      16.741   6.521  20.472  0.00  0.00    +0.214 C 
ATOM     27  H   UNL     1      16.520   7.135  18.492  0.00  0.00    +0.149 HD
BRANCH   6  19
ATOM     19  C   UNL     1      14.582   7.002  19.328  0.00  0.00    +0.146 C 
BRANCH  19  21
ATOM      1  S   UNL     1      13.423   9.470  18.799  0.00  0.00    -0.100 S 
ATOM     21  C   UNL     1      14.101   7.981  18.296  0.00  0.00    +0.007 A 
ATOM     22  C   UNL     1      14.121   7.859  16.923  0.00  0.00    +0.013 A 
ATOM     23  C   UNL     1      13.573   9.004  16.276  0.00  0.00    +0.008 A 
ATOM     24  C   UNL     1      13.154   9.958  17.180  0.00  0.00    +0.045 A 
ENDBRANCH  19  21
ENDBRANCH   6  19
ENDBRANCH  14  16
ENDBRANCH   8  14
TORSDOF 8
ENDMDL
MODEL 8
REMARK VINA RESULT:      -5.4     32.715     36.205
REMARK  Name = 26743054
REMARK  9 active torsions:
REMARK  status: ('A' for Active; 'I' for Inactive)
REMARK    1  A    between atoms: O_4  and  C_20
REMARK    2  A    between atoms: O_4  and  C_25
REMARK    3  A    between atoms: N_6  and  C_19
REMARK    4  A    between atoms: C_8  and  C_14
REMARK    5  A    between atoms: C_9  and  C_13
REMARK    6  A    between atoms: C_13  and  C_15
REMARK    7  A    between atoms: C_14  and  C_16
REMARK    8  A    between atoms: C_18  and  C_20
REMARK    9  A    between atoms: C_19  and  C_21
REMARK                            x       y       z     vdW  Elec       q    Type
REMARK                         _______ _______ _______ _____ _____    ______ ____
ROOT
ATOM      5  N   UNL     1       7.710   7.427   6.261  0.00  0.00    -0.316 NA
ATOM      8  C   UNL     1      10.598   7.304   5.669  0.00  0.00    +0.004 C 
ATOM      9  C   UNL     1       9.563   6.380   4.983  0.00  0.00    +0.012 C 
ATOM     10  C   UNL     1       9.890   8.583   6.146  0.00  0.00    +0.019 C 
ATOM     11  C   UNL     1       8.324   6.158   5.867  0.00  0.00    +0.085 C 
ATOM     12  C   UNL     1       8.647   8.284   6.983  0.00  0.00    +0.081 C 
ATOM     26  H   UNL     1       6.899   7.240   6.851  0.00  0.00    +0.122 HD
ENDROOT
BRANCH   9  13
ATOM     13  C   UNL     1      10.156   5.040   4.543  0.00  0.00    +0.064 C 
BRANCH  13  15
ATOM      3  O   UNL     1      10.565   5.767   1.041  0.00  0.00    -0.357 OA
ATOM      7  N   UNL     1      10.152   6.098   2.325  0.00  0.00    -0.083 NA
ATOM     15  C   UNL     1      10.462   5.035   3.072  0.00  0.00    +0.084 A 
ATOM     17  C   UNL     1      11.067   4.012   2.322  0.00  0.00    +0.073 A 
ATOM     18  C   UNL     1      11.109   4.523   1.051  0.00  0.00    +0.163 A 
BRANCH  18  20
ATOM     20  C   UNL     1      11.601   4.012  -0.234  0.00  0.00    +0.236 C 
BRANCH  20   4
ATOM      4  O   UNL     1      10.503   3.662  -1.082  0.00  0.00    -0.375 OA
ATOM     25  C   UNL     1      10.561   4.366  -2.311  0.00  0.00    +0.194 C 
ENDBRANCH  20   4
ENDBRANCH  18  20
ENDBRANCH  13  15
ENDBRANCH   9  13
BRANCH   8  14
ATOM     14  C   UNL     1      11.359   6.638   6.822  0.00  0.00    +0.099 C 
BRANCH  14  16
ATOM      2  O   UNL     1      13.665   6.442   7.530  0.00  0.00    -0.276 OA
ATOM      6  N   UNL     1      13.190   7.185   5.380  0.00  0.00    -0.311 N 
ATOM     16  C   UNL     1      12.860   6.733   6.648  0.00  0.00    +0.214 C 
ATOM     27  H   UNL     1      12.451   7.395   4.714  0.00  0.00    +0.149 HD
BRANCH   6  19
ATOM     19  C   UNL     1      14.553   7.373   4.938  0.00  0.00    +0.146 C 
BRANCH  19  21
ATOM      1  S   UNL     1      16.022   7.922   2.646  0.00  0.00    -0.100 S 
ATOM     21  C   UNL     1      14.688   7.213   3.451  0.00  0.00    +0.007 A 
ATOM     22  C   UNL     1      13.853   6.546   2.581  0.00  0.00    +0.013 A 
ATOM     23  C   UNL     1      14.317   6.616   1.235  0.00  0.00    +0.008 A 
ATOM     24  C   UNL     1      15.488   7.336   1.128  0.00  0.00    +0.045 A 
ENDBRANCH  19  21
ENDBRANCH   6  19
ENDBRANCH  14  16
ENDBRANCH   8  14
TORSDOF 8
ENDMDL
MODEL 9
REMARK VINA RESULT:      -5.3     18.774     21.350
REMARK  Name = 26743054
REMARK  9 active torsions:
REMARK  status: ('A' for Active; 'I' for Inactive)
REMARK    1  A    between atoms: O_4  and  C_20
REMARK    2  A    between atoms: O_4  and  C_25
REMARK    3  A    between atoms: N_6  and  C_19
REMARK    4  A    between atoms: C_8  and  C_14
REMARK    5  A    between atoms: C_9  and  C_13
REMARK    6  A    between atoms: C_13  and  C_15
REMARK    7  A    between atoms: C_14  and  C_16
REMARK    8  A    between atoms: C_18  and  C_20
REMARK    9  A    between atoms: C_19  and  C_21
REMARK                            x       y       z     vdW  Elec       q    Type
REMARK                         _______ _______ _______ _____ _____    ______ ____
ROOT
ATOM      5  N   UNL     1      -3.637 -11.833  17.630  0.00  0.00    -0.316 NA
ATOM      8  C   UNL     1      -6.209 -10.684  16.750  0.00  0.00    +0.004 C 
ATOM      9  C   UNL     1      -6.103 -11.714  17.900  0.00  0.00    +0.012 C 
ATOM     10  C   UNL     1      -4.866  -9.948  16.610  0.00  0.00    +0.019 C 
ATOM     11  C   UNL     1      -4.868 -12.617  17.742  0.00  0.00    +0.085 C 
ATOM     12  C   UNL     1      -3.683 -10.909  16.499  0.00  0.00    +0.081 C 
ATOM     26  H   UNL     1      -2.844 -12.464  17.519  0.00  0.00    +0.122 HD
ENDROOT
BRANCH   9  13
ATOM     13  C   UNL     1      -7.368 -12.557  18.067  0.00  0.00    +0.064 C 
BRANCH  13  15
ATOM      3  O   UNL     1      -9.528 -10.666  20.239  0.00  0.00    -0.357 OA
ATOM      7  N   UNL     1      -8.355 -11.360  19.973  0.00  0.00    -0.083 NA
ATOM     15  C   UNL     1      -8.473 -11.764  18.704  0.00  0.00    +0.084 A 
ATOM     17  C   UNL     1      -9.687 -11.359  18.125  0.00  0.00    +0.073 A 
ATOM     18  C   UNL     1     -10.314 -10.671  19.132  0.00  0.00    +0.163 A 
BRANCH  18  20
ATOM     20  C   UNL     1     -11.603  -9.977  19.239  0.00  0.00    +0.236 C 
BRANCH  20   4
ATOM      4  O   UNL     1     -11.862  -9.226  18.049  0.00  0.00    -0.375 OA
ATOM     25  C   UNL     1     -13.222  -9.331  17.663  0.00  0.00    +0.194 C 
ENDBRANCH  20   4
ENDBRANCH  18  20
ENDBRANCH  13  15
ENDBRANCH   9  13
BRANCH   8  14
ATOM     14  C   UNL     1      -6.642 -11.289  15.409  0.00  0.00    +0.099 C 
BRANCH  14  16
ATOM      2  O   UNL     1      -8.199  -9.628  14.592  0.00  0.00    -0.276 OA
ATOM      6  N   UNL     1      -6.263 -10.069  13.385  0.00  0.00    -0.311 N 
ATOM     16  C   UNL     1      -7.143 -10.239  14.442  0.00  0.00    +0.214 C 
ATOM     27  H   UNL     1      -5.408 -10.618  13.351  0.00  0.00    +0.149 HD
BRANCH   6  19
ATOM     19  C   UNL     1      -6.491  -9.130  12.310  0.00  0.00    +0.146 C 
BRANCH  19  21
ATOM      1  S   UNL     1      -3.992 -10.109  11.593  0.00  0.00    -0.100 S 
ATOM     21  C   UNL     1      -5.383  -9.158  11.296  0.00  0.00    +0.007 A 
ATOM     22  C   UNL     1      -5.309  -8.494  10.090  0.00  0.00    +0.013 A 
ATOM     23  C   UNL     1      -4.093  -8.773   9.401  0.00  0.00    +0.008 A 
ATOM     24  C   UNL     1      -3.284  -9.637  10.107  0.00  0.00    +0.045 A 
ENDBRANCH  19  21
ENDBRANCH   6  19
ENDBRANCH  14  16
ENDBRANCH   8  14
TORSDOF 8
ENDMDL
MODEL 10
REMARK VINA RESULT:      -5.2      7.680     11.069
REMARK  Name = 26743054
REMARK  9 active torsions:
REMARK  status: ('A' for Active; 'I' for Inactive)
REMARK    1  A    between atoms: O_4  and  C_20
REMARK    2  A    between atoms: O_4  and  C_25
REMARK    3  A    between atoms: N_6  and  C_19
REMARK    4  A    between atoms: C_8  and  C_14
REMARK    5  A    between atoms: C_9  and  C_13
REMARK    6  A    between atoms: C_13  and  C_15
REMARK    7  A    between atoms: C_14  and  C_16
REMARK    8  A    between atoms: C_18  and  C_20
REMARK    9  A    between atoms: C_19  and  C_21
REMARK                            x       y       z     vdW  Elec       q    Type
REMARK                         _______ _______ _______ _____ _____    ______ ____
ROOT
ATOM      5  N   UNL     1     -13.878   4.493  21.947  0.00  0.00    -0.316 NA
ATOM      8  C   UNL     1     -14.146   7.207  20.821  0.00  0.00    +0.004 C 
ATOM      9  C   UNL     1     -12.794   6.457  20.881  0.00  0.00    +0.012 C 
ATOM     10  C   UNL     1     -15.291   6.181  20.825  0.00  0.00    +0.019 C 
ATOM     11  C   UNL     1     -12.762   5.436  22.031  0.00  0.00    +0.085 C 
ATOM     12  C   UNL     1     -15.169   5.177  21.970  0.00  0.00    +0.081 C 
ATOM     26  H   UNL     1     -13.827   3.840  22.727  0.00  0.00    +0.122 HD
ENDROOT
BRANCH   9  13
ATOM     13  C   UNL     1     -11.591   7.397  20.961  0.00  0.00    +0.064 C 
BRANCH  13  15
ATOM      3  O   UNL     1     -10.930   7.954  17.467  0.00  0.00    -0.357 OA
ATOM      7  N   UNL     1     -11.335   7.156  18.530  0.00  0.00    -0.083 NA
ATOM     15  C   UNL     1     -11.227   7.938  19.608  0.00  0.00    +0.084 A 
ATOM     17  C   UNL     1     -10.763   9.225  19.291  0.00  0.00    +0.073 A 
ATOM     18  C   UNL     1     -10.592   9.184  17.932  0.00  0.00    +0.163 A 
BRANCH  18  20
ATOM     20  C   UNL     1     -10.137  10.160  16.934  0.00  0.00    +0.236 C 
BRANCH  20   4
ATOM      4  O   UNL     1      -9.665  11.346  17.579  0.00  0.00    -0.375 OA
ATOM     25  C   UNL     1      -9.228  12.305  16.632  0.00  0.00    +0.194 C 
ENDBRANCH  20   4
ENDBRANCH  18  20
ENDBRANCH  13  15
ENDBRANCH   9  13
BRANCH   8  14
ATOM     14  C   UNL     1     -14.335   8.241  21.938  0.00  0.00    +0.099 C 
BRANCH  14  16
ATOM      2  O   UNL     1     -15.802  10.155  22.135  0.00  0.00    -0.276 OA
ATOM      6  N   UNL     1     -14.671   9.785  20.140  0.00  0.00    -0.311 N 
ATOM     16  C   UNL     1     -15.027   9.495  21.448  0.00  0.00    +0.214 C 
ATOM     27  H   UNL     1     -14.014   9.180  19.652  0.00  0.00    +0.149 HD
BRANCH   6  19
ATOM     19  C   UNL     1     -15.183  10.926  19.416  0.00  0.00    +0.146 C 
BRANCH  19  21
ATOM      1  S   UNL     1     -12.927  12.389  20.113  0.00  0.00    -0.100 S 
ATOM     21  C   UNL     1     -14.085  11.850  18.973  0.00  0.00    +0.007 A 
ATOM     22  C   UNL     1     -13.852  12.364  17.716  0.00  0.00    +0.013 A 
ATOM     23  C   UNL     1     -12.706  13.210  17.688  0.00  0.00    +0.008 A 
ATOM     24  C   UNL     1     -12.108  13.313  18.926  0.00  0.00    +0.045 A 
ENDBRANCH  19  21
ENDBRANCH   6  19
ENDBRANCH  14  16
ENDBRANCH   8  14
TORSDOF 8
ENDMDL
