MODEL 1
REMARK VINA RESULT:      -6.4      0.000      0.000
REMARK  Name = 51136673
REMARK  8 active torsions:
REMARK  status: ('A' for Active; 'I' for Inactive)
REMARK    1  A    between atoms: O_1  and  C_18
REMARK    2  A    between atoms: O_4  and  C_25
REMARK    3  A    between atoms: O_4  and  C_31
REMARK    4  A    between atoms: N_7  and  C_26
REMARK    5  A    between atoms: C_8  and  C_12
REMARK    6  A    between atoms: C_9  and  C_14
REMARK    7  A    between atoms: C_12  and  C_15
REMARK    8  A    between atoms: C_14  and  C_18
REMARK                            x       y       z     vdW  Elec       q    Type
REMARK                         _______ _______ _______ _____ _____    ______ ____
ROOT
ATOM      2  O   UNL     1      -1.373  -9.982  12.200  0.00  0.00    -0.252 OA
ATOM      5  N   UNL     1      -2.251 -11.423  13.780  0.00  0.00    -0.285 N 
ATOM      7  N   UNL     1      -3.031 -11.472  11.555  0.00  0.00    -0.269 N 
ATOM      8  C   UNL     1      -4.068 -12.064  15.341  0.00  0.00    +0.016 C 
ATOM      9  C   UNL     1      -3.236 -11.458  16.501  0.00  0.00    +0.006 C 
ATOM     10  C   UNL     1      -2.264 -10.372  16.003  0.00  0.00    +0.023 C 
ATOM     11  C   UNL     1      -3.123 -12.523  14.217  0.00  0.00    +0.113 C 
ATOM     13  C   UNL     1      -1.406 -10.877  14.844  0.00  0.00    +0.109 C 
ATOM     16  C   UNL     1      -2.155 -10.896  12.475  0.00  0.00    +0.306 C 
ATOM     33  H   UNL     1      -3.316 -12.434  11.695  0.00  0.00    +0.156 HD
ENDROOT
BRANCH   7  26
ATOM     26  C   UNL     1      -3.608 -10.856  10.416  0.00  0.00    +0.035 A 
ATOM     27  C   UNL     1      -4.141 -11.642   9.394  0.00  0.00    +0.023 A 
ATOM     28  C   UNL     1      -3.644  -9.466  10.318  0.00  0.00    +0.023 A 
ATOM     29  C   UNL     1      -4.709 -11.038   8.273  0.00  0.00    +0.002 A 
ATOM     30  C   UNL     1      -4.211  -8.860   9.197  0.00  0.00    +0.002 A 
ATOM     32  C   UNL     1      -4.744  -9.647   8.174  0.00  0.00    +0.000 A 
ENDBRANCH   7  26
BRANCH   8  12
ATOM     12  C   UNL     1      -5.144 -11.124  14.786  0.00  0.00    +0.061 C 
BRANCH  12  15
ATOM      6  N   UNL     1      -6.327 -13.120  14.161  0.00  0.00    -0.287 NA
ATOM     15  C   UNL     1      -6.069 -11.888  13.869  0.00  0.00    +0.044 C 
ATOM     17  C   UNL     1      -6.629 -11.195  12.680  0.00  0.00    -0.001 A 
ATOM     19  C   UNL     1      -7.149 -12.006  11.664  0.00  0.00    -0.033 A 
ATOM     20  C   UNL     1      -7.094 -13.495  11.832  0.00  0.00    +0.059 C 
ATOM     21  C   UNL     1      -7.272 -13.843  13.305  0.00  0.00    +0.146 C 
ATOM     22  C   UNL     1      -6.636  -9.805  12.549  0.00  0.00    +0.013 A 
ATOM     23  C   UNL     1      -7.654 -11.418  10.501  0.00  0.00    +0.050 A 
ATOM     24  C   UNL     1      -7.157  -9.226  11.392  0.00  0.00    +0.046 A 
ATOM     25  C   UNL     1      -7.661 -10.030  10.369  0.00  0.00    +0.120 A 
BRANCH  25   4
ATOM      4  O   UNL     1      -8.160  -9.458   9.238  0.00  0.00    -0.495 OA
ATOM     31  C   UNL     1      -7.986  -8.049   9.094  0.00  0.00    +0.277 C 
ENDBRANCH  25   4
ENDBRANCH  12  15
ENDBRANCH   8  12
BRANCH   9  14
ATOM     14  C   UNL     1      -4.100 -10.923  17.644  0.00  0.00    +0.124 C 
BRANCH  14  18
ATOM      3  O   UNL     1      -5.263 -12.565  19.020  0.00  0.00    -0.251 OA
ATOM     18  C   UNL     1      -4.252 -11.936  18.745  0.00  0.00    +0.305 C 
BRANCH  18   1
ATOM      1  O   UNL     1      -3.078 -12.064  19.415  0.00  0.00    -0.481 OA
ATOM     34  H   UNL     1      -2.657 -11.194  19.583  0.00  0.00    +0.295 HD
ENDBRANCH  18   1
ENDBRANCH  14  18
ENDBRANCH   9  14
TORSDOF 7
ENDMDL
MODEL 2
REMARK VINA RESULT:      -6.3     26.828     29.801
REMARK  Name = 51136673
REMARK  8 active torsions:
REMARK  status: ('A' for Active; 'I' for Inactive)
REMARK    1  A    between atoms: O_1  and  C_18
REMARK    2  A    between atoms: O_4  and  C_25
REMARK    3  A    between atoms: O_4  and  C_31
REMARK    4  A    between atoms: N_7  and  C_26
REMARK    5  A    between atoms: C_8  and  C_12
REMARK    6  A    between atoms: C_9  and  C_14
REMARK    7  A    between atoms: C_12  and  C_15
REMARK    8  A    between atoms: C_14  and  C_18
REMARK                            x       y       z     vdW  Elec       q    Type
REMARK                         _______ _______ _______ _____ _____    ______ ____
ROOT
ATOM      2  O   UNL     1      12.934   9.908  14.841  0.00  0.00    -0.252 OA
ATOM      5  N   UNL     1      12.615   9.901  17.131  0.00  0.00    -0.285 N 
ATOM      7  N   UNL     1      14.100  11.440  16.136  0.00  0.00    -0.269 N 
ATOM      8  C   UNL     1      13.385   9.318  19.414  0.00  0.00    +0.016 C 
ATOM      9  C   UNL     1      12.440   8.088  19.379  0.00  0.00    +0.006 C 
ATOM     10  C   UNL     1      12.155   7.625  17.938  0.00  0.00    +0.023 C 
ATOM     11  C   UNL     1      12.831  10.417  18.491  0.00  0.00    +0.113 C 
ATOM     13  C   UNL     1      11.674   8.782  17.064  0.00  0.00    +0.109 C 
ATOM     16  C   UNL     1      13.197  10.395  15.944  0.00  0.00    +0.306 C 
ATOM     33  H   UNL     1      13.967  12.054  16.930  0.00  0.00    +0.156 HD
ENDROOT
BRANCH   7  26
ATOM     26  C   UNL     1      15.231  11.754  15.343  0.00  0.00    +0.035 A 
ATOM     27  C   UNL     1      16.460  12.010  15.952  0.00  0.00    +0.023 A 
ATOM     28  C   UNL     1      15.116  11.809  13.954  0.00  0.00    +0.023 A 
ATOM     29  C   UNL     1      17.574  12.321  15.172  0.00  0.00    +0.002 A 
ATOM     30  C   UNL     1      16.229  12.120  13.174  0.00  0.00    +0.002 A 
ATOM     32  C   UNL     1      17.459  12.375  13.783  0.00  0.00    +0.000 A 
ENDBRANCH   7  26
BRANCH   8  12
ATOM     12  C   UNL     1      14.840   8.998  19.055  0.00  0.00    +0.061 C 
BRANCH  12  15
ATOM      6  N   UNL     1      15.497  10.374  20.911  0.00  0.00    -0.287 NA
ATOM     15  C   UNL     1      15.737   9.302  20.230  0.00  0.00    +0.044 C 
ATOM     17  C   UNL     1      16.847   8.367  20.544  0.00  0.00    -0.001 A 
ATOM     19  C   UNL     1      17.872   8.855  21.365  0.00  0.00    -0.033 A 
ATOM     20  C   UNL     1      17.790  10.270  21.854  0.00  0.00    +0.059 C 
ATOM     21  C   UNL     1      16.331  10.638  22.088  0.00  0.00    +0.146 C 
ATOM     22  C   UNL     1      16.901   7.063  20.046  0.00  0.00    +0.013 A 
ATOM     23  C   UNL     1      18.966   8.038  21.664  0.00  0.00    +0.050 A 
ATOM     24  C   UNL     1      17.989   6.249  20.362  0.00  0.00    +0.046 A 
ATOM     25  C   UNL     1      19.020   6.736  21.166  0.00  0.00    +0.120 A 
BRANCH  25   4
ATOM      4  O   UNL     1      20.083   5.939  21.465  0.00  0.00    -0.495 OA
ATOM     31  C   UNL     1      20.833   6.269  22.633  0.00  0.00    +0.277 C 
ENDBRANCH  25   4
ENDBRANCH  12  15
ENDBRANCH   8  12
BRANCH   9  14
ATOM     14  C   UNL     1      12.942   6.921  20.230  0.00  0.00    +0.124 C 
BRANCH  14  18
ATOM      3  O   UNL     1      11.619   7.535  22.183  0.00  0.00    -0.251 OA
ATOM     18  C   UNL     1      12.060   6.684  21.425  0.00  0.00    +0.305 C 
BRANCH  18   1
ATOM      1  O   UNL     1      11.808   5.356  21.552  0.00  0.00    -0.481 OA
ATOM     34  H   UNL     1      12.217   4.983  22.362  0.00  0.00    +0.295 HD
ENDBRANCH  18   1
ENDBRANCH  14  18
ENDBRANCH   9  14
TORSDOF 7
ENDMDL
MODEL 3
REMARK VINA RESULT:      -6.0      3.755      4.311
REMARK  Name = 51136673
REMARK  8 active torsions:
REMARK  status: ('A' for Active; 'I' for Inactive)
REMARK    1  A    between atoms: O_1  and  C_18
REMARK    2  A    between atoms: O_4  and  C_25
REMARK    3  A    between atoms: O_4  and  C_31
REMARK    4  A    between atoms: N_7  and  C_26
REMARK    5  A    between atoms: C_8  and  C_12
REMARK    6  A    between atoms: C_9  and  C_14
REMARK    7  A    between atoms: C_12  and  C_15
REMARK    8  A    between atoms: C_14  and  C_18
REMARK                            x       y       z     vdW  Elec       q    Type
REMARK                         _______ _______ _______ _____ _____    ______ ____
ROOT
ATOM      2  O   UNL     1      -2.482 -10.602  14.575  0.00  0.00    -0.252 OA
ATOM      5  N   UNL     1      -4.305 -11.510  15.669  0.00  0.00    -0.285 N 
ATOM      7  N   UNL     1      -4.367 -11.150  13.339  0.00  0.00    -0.269 N 
ATOM      8  C   UNL     1      -6.576 -11.277  16.636  0.00  0.00    +0.016 C 
ATOM      9  C   UNL     1      -5.926 -11.144  18.038  0.00  0.00    +0.006 C 
ATOM     10  C   UNL     1      -4.482 -10.616  17.953  0.00  0.00    +0.023 C 
ATOM     11  C   UNL     1      -5.653 -12.095  15.718  0.00  0.00    +0.113 C 
ATOM     13  C   UNL     1      -3.643 -11.435  16.973  0.00  0.00    +0.109 C 
ATOM     16  C   UNL     1      -3.626 -11.060  14.517  0.00  0.00    +0.306 C 
ATOM     33  H   UNL     1      -5.070 -11.877  13.264  0.00  0.00    +0.156 HD
ENDROOT
BRANCH   7  26
ATOM     26  C   UNL     1      -4.273 -10.315  12.198  0.00  0.00    +0.035 A 
ATOM     27  C   UNL     1      -3.110 -10.316  11.429  0.00  0.00    +0.023 A 
ATOM     28  C   UNL     1      -5.344  -9.494  11.845  0.00  0.00    +0.023 A 
ATOM     29  C   UNL     1      -3.016  -9.494  10.305  0.00  0.00    +0.002 A 
ATOM     30  C   UNL     1      -5.251  -8.672  10.722  0.00  0.00    +0.002 A 
ATOM     32  C   UNL     1      -4.087  -8.673   9.951  0.00  0.00    +0.000 A 
ENDBRANCH   7  26
BRANCH   8  12
ATOM     12  C   UNL     1      -6.931  -9.936  15.983  0.00  0.00    +0.061 C 
BRANCH  12  15
ATOM      6  N   UNL     1      -8.362 -11.006  14.377  0.00  0.00    -0.287 NA
ATOM     15  C   UNL     1      -8.243 -10.057  15.245  0.00  0.00    +0.044 C 
ATOM     17  C   UNL     1      -9.324  -9.083  15.546  0.00  0.00    -0.001 A 
ATOM     19  C   UNL     1     -10.353  -8.972  14.603  0.00  0.00    -0.033 A 
ATOM     20  C   UNL     1     -10.291  -9.818  13.366  0.00  0.00    +0.059 C 
ATOM     21  C   UNL     1      -9.656 -11.160  13.705  0.00  0.00    +0.146 C 
ATOM     22  C   UNL     1      -9.331  -8.294  16.698  0.00  0.00    +0.013 A 
ATOM     23  C   UNL     1     -11.379  -8.045  14.807  0.00  0.00    +0.050 A 
ATOM     24  C   UNL     1     -10.367  -7.382  16.901  0.00  0.00    +0.046 A 
ATOM     25  C   UNL     1     -11.387  -7.256  15.956  0.00  0.00    +0.120 A 
BRANCH  25   4
ATOM      4  O   UNL     1     -12.392  -6.359  16.158  0.00  0.00    -0.495 OA
ATOM     31  C   UNL     1     -13.231  -6.065  15.042  0.00  0.00    +0.277 C 
ENDBRANCH  25   4
ENDBRANCH  12  15
ENDBRANCH   8  12
BRANCH   9  14
ATOM     14  C   UNL     1      -6.753 -10.296  19.005  0.00  0.00    +0.124 C 
BRANCH  14  18
ATOM      3  O   UNL     1      -7.646 -12.268  20.125  0.00  0.00    -0.251 OA
ATOM     18  C   UNL     1      -7.782 -11.121  19.727  0.00  0.00    +0.305 C 
BRANCH  18   1
ATOM      1  O   UNL     1      -8.920 -10.397  19.885  0.00  0.00    -0.481 OA
ATOM     34  H   UNL     1      -8.736  -9.501  20.242  0.00  0.00    +0.295 HD
ENDBRANCH  18   1
ENDBRANCH  14  18
ENDBRANCH   9  14
TORSDOF 7
ENDMDL
MODEL 4
REMARK VINA RESULT:      -5.9     24.490     27.994
REMARK  Name = 51136673
REMARK  8 active torsions:
REMARK  status: ('A' for Active; 'I' for Inactive)
REMARK    1  A    between atoms: O_1  and  C_18
REMARK    2  A    between atoms: O_4  and  C_25
REMARK    3  A    between atoms: O_4  and  C_31
REMARK    4  A    between atoms: N_7  and  C_26
REMARK    5  A    between atoms: C_8  and  C_12
REMARK    6  A    between atoms: C_9  and  C_14
REMARK    7  A    between atoms: C_12  and  C_15
REMARK    8  A    between atoms: C_14  and  C_18
REMARK                            x       y       z     vdW  Elec       q    Type
REMARK                         _______ _______ _______ _____ _____    ______ ____
ROOT
ATOM      2  O   UNL     1      10.149   3.753   1.022  0.00  0.00    -0.252 OA
ATOM      5  N   UNL     1      12.460   3.715   1.063  0.00  0.00    -0.285 N 
ATOM      7  N   UNL     1      11.243   4.441   2.948  0.00  0.00    -0.269 N 
ATOM      8  C   UNL     1      14.639   4.891   0.942  0.00  0.00    +0.016 C 
ATOM      9  C   UNL     1      14.757   4.443  -0.539  0.00  0.00    +0.006 C 
ATOM     10  C   UNL     1      13.377   4.180  -1.170  0.00  0.00    +0.023 C 
ATOM     11  C   UNL     1      13.767   3.887   1.714  0.00  0.00    +0.113 C 
ATOM     13  C   UNL     1      12.543   3.228  -0.315  0.00  0.00    +0.109 C 
ATOM     16  C   UNL     1      11.196   3.949   1.645  0.00  0.00    +0.306 C 
ATOM     33  H   UNL     1      12.032   4.190   3.532  0.00  0.00    +0.156 HD
ENDROOT
BRANCH   7  26
ATOM     26  C   UNL     1      10.303   5.293   3.580  0.00  0.00    +0.035 A 
ATOM     27  C   UNL     1       9.850   6.438   2.926  0.00  0.00    +0.023 A 
ATOM     28  C   UNL     1       9.832   4.986   4.856  0.00  0.00    +0.023 A 
ATOM     29  C   UNL     1       8.925   7.277   3.547  0.00  0.00    +0.002 A 
ATOM     30  C   UNL     1       8.907   5.824   5.479  0.00  0.00    +0.002 A 
ATOM     32  C   UNL     1       8.453   6.970   4.824  0.00  0.00    +0.000 A 
ENDBRANCH   7  26
BRANCH   8  12
ATOM     12  C   UNL     1      14.103   6.316   1.122  0.00  0.00    +0.061 C 
BRANCH  12  15
ATOM      6  N   UNL     1      16.192   7.368   1.670  0.00  0.00    -0.287 NA
ATOM     15  C   UNL     1      14.995   7.084   2.067  0.00  0.00    +0.044 C 
ATOM     17  C   UNL     1      14.463   7.468   3.399  0.00  0.00    -0.001 A 
ATOM     19  C   UNL     1      15.402   7.821   4.376  0.00  0.00    -0.033 A 
ATOM     20  C   UNL     1      16.859   7.774   4.025  0.00  0.00    +0.059 C 
ATOM     21  C   UNL     1      17.038   8.166   2.564  0.00  0.00    +0.146 C 
ATOM     22  C   UNL     1      13.098   7.473   3.695  0.00  0.00    +0.013 A 
ATOM     23  C   UNL     1      14.969   8.153   5.663  0.00  0.00    +0.050 A 
ATOM     24  C   UNL     1      12.674   7.821   4.977  0.00  0.00    +0.046 A 
ATOM     25  C   UNL     1      13.606   8.157   5.960  0.00  0.00    +0.120 A 
BRANCH  25   4
ATOM      4  O   UNL     1      13.185   8.489   7.212  0.00  0.00    -0.495 OA
ATOM     31  C   UNL     1      12.404   9.677   7.339  0.00  0.00    +0.277 C 
ENDBRANCH  25   4
ENDBRANCH  12  15
ENDBRANCH   8  12
BRANCH   9  14
ATOM     14  C   UNL     1      15.565   5.416  -1.398  0.00  0.00    +0.124 C 
BRANCH  14  18
ATOM      3  O   UNL     1      17.658   4.232  -1.795  0.00  0.00    -0.251 OA
ATOM     18  C   UNL     1      17.043   5.158  -1.289  0.00  0.00    +0.305 C 
BRANCH  18   1
ATOM      1  O   UNL     1      17.621   6.124  -0.530  0.00  0.00    -0.481 OA
ATOM     34  H   UNL     1      16.958   6.752  -0.171  0.00  0.00    +0.295 HD
ENDBRANCH  18   1
ENDBRANCH  14  18
ENDBRANCH   9  14
TORSDOF 7
ENDMDL
MODEL 5
REMARK VINA RESULT:      -5.7     23.492     26.461
REMARK  Name = 51136673
REMARK  8 active torsions:
REMARK  status: ('A' for Active; 'I' for Inactive)
REMARK    1  A    between atoms: O_1  and  C_18
REMARK    2  A    between atoms: O_4  and  C_25
REMARK    3  A    between atoms: O_4  and  C_31
REMARK    4  A    between atoms: N_7  and  C_26
REMARK    5  A    between atoms: C_8  and  C_12
REMARK    6  A    between atoms: C_9  and  C_14
REMARK    7  A    between atoms: C_12  and  C_15
REMARK    8  A    between atoms: C_14  and  C_18
REMARK                            x       y       z     vdW  Elec       q    Type
REMARK                         _______ _______ _______ _____ _____    ______ ____
ROOT
ATOM      2  O   UNL     1       9.698   9.272   0.360  0.00  0.00    -0.252 OA
ATOM      5  N   UNL     1      10.318   7.091   0.809  0.00  0.00    -0.285 N 
ATOM      7  N   UNL     1       8.734   8.188   2.169  0.00  0.00    -0.269 N 
ATOM      8  C   UNL     1      11.604   5.446   2.145  0.00  0.00    +0.016 C 
ATOM      9  C   UNL     1      12.663   5.407   1.011  0.00  0.00    +0.006 C 
ATOM     10  C   UNL     1      12.664   6.706   0.185  0.00  0.00    +0.023 C 
ATOM     11  C   UNL     1      10.235   5.827   1.557  0.00  0.00    +0.113 C 
ATOM     13  C   UNL     1      11.262   7.058  -0.309  0.00  0.00    +0.109 C 
ATOM     16  C   UNL     1       9.575   8.264   1.061  0.00  0.00    +0.306 C 
ATOM     33  H   UNL     1       8.359   7.283   2.431  0.00  0.00    +0.156 HD
ENDROOT
BRANCH   7  26
ATOM     26  C   UNL     1       8.334   9.248   3.020  0.00  0.00    +0.035 A 
ATOM     27  C   UNL     1       9.104  10.408   3.097  0.00  0.00    +0.023 A 
ATOM     28  C   UNL     1       7.170   9.131   3.780  0.00  0.00    +0.023 A 
ATOM     29  C   UNL     1       8.711  11.452   3.934  0.00  0.00    +0.002 A 
ATOM     30  C   UNL     1       6.777  10.174   4.618  0.00  0.00    +0.002 A 
ATOM     32  C   UNL     1       7.548  11.336   4.695  0.00  0.00    +0.000 A 
ENDBRANCH   7  26
BRANCH   8  12
ATOM     12  C   UNL     1      11.968   6.378   3.307  0.00  0.00    +0.061 C 
BRANCH  12  15
ATOM      6  N   UNL     1      10.542   4.974   4.636  0.00  0.00    -0.287 NA
ATOM     15  C   UNL     1      11.010   6.164   4.454  0.00  0.00    +0.044 C 
ATOM     17  C   UNL     1      10.648   7.324   5.309  0.00  0.00    -0.001 A 
ATOM     19  C   UNL     1       9.496   7.195   6.094  0.00  0.00    -0.033 A 
ATOM     20  C   UNL     1       8.708   5.922   6.011  0.00  0.00    +0.059 C 
ATOM     21  C   UNL     1       9.659   4.754   5.786  0.00  0.00    +0.146 C 
ATOM     22  C   UNL     1      11.394   8.504   5.336  0.00  0.00    +0.013 A 
ATOM     23  C   UNL     1       9.078   8.265   6.889  0.00  0.00    +0.050 A 
ATOM     24  C   UNL     1      10.979   9.562   6.145  0.00  0.00    +0.046 A 
ATOM     25  C   UNL     1       9.822   9.445   6.917  0.00  0.00    +0.120 A 
BRANCH  25   4
ATOM      4  O   UNL     1       9.419  10.484   7.699  0.00  0.00    -0.495 OA
ATOM     31  C   UNL     1      10.013  11.756   7.442  0.00  0.00    +0.277 C 
ENDBRANCH  25   4
ENDBRANCH  12  15
ENDBRANCH   8  12
BRANCH   9  14
ATOM     14  C   UNL     1      14.071   5.087   1.514  0.00  0.00    +0.124 C 
BRANCH  14  18
ATOM      3  O   UNL     1      13.526   2.719   1.327  0.00  0.00    -0.251 OA
ATOM     18  C   UNL     1      14.267   3.610   1.714  0.00  0.00    +0.305 C 
BRANCH  18   1
ATOM      1  O   UNL     1      15.417   3.390   2.402  0.00  0.00    -0.481 OA
ATOM     34  H   UNL     1      15.781   2.495   2.228  0.00  0.00    +0.295 HD
ENDBRANCH  18   1
ENDBRANCH  14  18
ENDBRANCH   9  14
TORSDOF 7
ENDMDL
MODEL 6
REMARK VINA RESULT:      -5.7     26.906     29.553
REMARK  Name = 51136673
REMARK  8 active torsions:
REMARK  status: ('A' for Active; 'I' for Inactive)
REMARK    1  A    between atoms: O_1  and  C_18
REMARK    2  A    between atoms: O_4  and  C_25
REMARK    3  A    between atoms: O_4  and  C_31
REMARK    4  A    between atoms: N_7  and  C_26
REMARK    5  A    between atoms: C_8  and  C_12
REMARK    6  A    between atoms: C_9  and  C_14
REMARK    7  A    between atoms: C_12  and  C_15
REMARK    8  A    between atoms: C_14  and  C_18
REMARK                            x       y       z     vdW  Elec       q    Type
REMARK                         _______ _______ _______ _____ _____    ______ ____
ROOT
ATOM      2  O   UNL     1      15.088   9.795  15.067  0.00  0.00    -0.252 OA
ATOM      5  N   UNL     1      13.381   9.326  16.553  0.00  0.00    -0.285 N 
ATOM      7  N   UNL     1      13.845  11.553  15.932  0.00  0.00    -0.269 N 
ATOM      8  C   UNL     1      12.498   9.245  18.868  0.00  0.00    +0.016 C 
ATOM      9  C   UNL     1      12.804   7.725  18.894  0.00  0.00    +0.006 C 
ATOM     10  C   UNL     1      13.929   7.350  17.910  0.00  0.00    +0.023 C 
ATOM     11  C   UNL     1      12.251   9.695  17.418  0.00  0.00    +0.113 C 
ATOM     13  C   UNL     1      13.648   7.887  16.508  0.00  0.00    +0.109 C 
ATOM     16  C   UNL     1      14.171  10.205  15.783  0.00  0.00    +0.306 C 
ATOM     33  H   UNL     1      12.889  11.797  16.160  0.00  0.00    +0.156 HD
ENDROOT
BRANCH   7  26
ATOM     26  C   UNL     1      14.715  12.666  15.817  0.00  0.00    +0.035 A 
ATOM     27  C   UNL     1      15.872  12.729  16.594  0.00  0.00    +0.023 A 
ATOM     28  C   UNL     1      14.414  13.697  14.928  0.00  0.00    +0.023 A 
ATOM     29  C   UNL     1      16.728  13.824  16.482  0.00  0.00    +0.002 A 
ATOM     30  C   UNL     1      15.269  14.793  14.816  0.00  0.00    +0.002 A 
ATOM     32  C   UNL     1      16.428  14.856  15.592  0.00  0.00    +0.000 A 
ENDBRANCH   7  26
BRANCH   8  12
ATOM     12  C   UNL     1      13.581  10.112  19.521  0.00  0.00    +0.061 C 
BRANCH  12  15
ATOM      6  N   UNL     1      13.259  12.435  19.001  0.00  0.00    -0.287 NA
ATOM     15  C   UNL     1      13.023  11.478  19.838  0.00  0.00    +0.044 C 
ATOM     17  C   UNL     1      12.241  11.660  21.087  0.00  0.00    -0.001 A 
ATOM     19  C   UNL     1      12.075  12.973  21.543  0.00  0.00    -0.033 A 
ATOM     20  C   UNL     1      12.698  14.091  20.761  0.00  0.00    +0.059 C 
ATOM     21  C   UNL     1      12.666  13.747  19.278  0.00  0.00    +0.146 C 
ATOM     22  C   UNL     1      11.700  10.589  21.802  0.00  0.00    +0.013 A 
ATOM     23  C   UNL     1      11.384  13.209  22.735  0.00  0.00    +0.050 A 
ATOM     24  C   UNL     1      10.998  10.835  22.982  0.00  0.00    +0.046 A 
ATOM     25  C   UNL     1      10.843  12.141  23.449  0.00  0.00    +0.120 A 
BRANCH  25   4
ATOM      4  O   UNL     1      10.163  12.372  24.606  0.00  0.00    -0.495 OA
ATOM     31  C   UNL     1      10.633  13.436  25.433  0.00  0.00    +0.277 C 
ENDBRANCH  25   4
ENDBRANCH  12  15
ENDBRANCH   8  12
BRANCH   9  14
ATOM     14  C   UNL     1      13.117   7.199  20.295  0.00  0.00    +0.124 C 
BRANCH  14  18
ATOM      3  O   UNL     1      10.868   7.394  21.214  0.00  0.00    -0.251 OA
ATOM     18  C   UNL     1      11.875   6.735  21.004  0.00  0.00    +0.305 C 
BRANCH  18   1
ATOM      1  O   UNL     1      12.026   5.442  21.392  0.00  0.00    -0.481 OA
ATOM     34  H   UNL     1      11.180   5.054  21.705  0.00  0.00    +0.295 HD
ENDBRANCH  18   1
ENDBRANCH  14  18
ENDBRANCH   9  14
TORSDOF 7
ENDMDL
MODEL 7
REMARK VINA RESULT:      -5.6      2.933      5.621
REMARK  Name = 51136673
REMARK  8 active torsions:
REMARK  status: ('A' for Active; 'I' for Inactive)
REMARK    1  A    between atoms: O_1  and  C_18
REMARK    2  A    between atoms: O_4  and  C_25
REMARK    3  A    between atoms: O_4  and  C_31
REMARK    4  A    between atoms: N_7  and  C_26
REMARK    5  A    between atoms: C_8  and  C_12
REMARK    6  A    between atoms: C_9  and  C_14
REMARK    7  A    between atoms: C_12  and  C_15
REMARK    8  A    between atoms: C_14  and  C_18
REMARK                            x       y       z     vdW  Elec       q    Type
REMARK                         _______ _______ _______ _____ _____    ______ ____
ROOT
ATOM      2  O   UNL     1      -7.875 -10.959  18.051  0.00  0.00    -0.252 OA
ATOM      5  N   UNL     1      -5.820 -10.661  17.036  0.00  0.00    -0.285 N 
ATOM      7  N   UNL     1      -7.562  -9.110  16.685  0.00  0.00    -0.269 N 
ATOM      8  C   UNL     1      -4.365 -10.787  15.032  0.00  0.00    +0.016 C 
ATOM      9  C   UNL     1      -3.791 -12.120  15.578  0.00  0.00    +0.006 C 
ATOM     10  C   UNL     1      -4.782 -12.829  16.519  0.00  0.00    +0.023 C 
ATOM     11  C   UNL     1      -4.858  -9.922  16.205  0.00  0.00    +0.113 C 
ATOM     13  C   UNL     1      -5.279 -11.890  17.618  0.00  0.00    +0.109 C 
ATOM     16  C   UNL     1      -7.148 -10.280  17.320  0.00  0.00    +0.306 C 
ATOM     33  H   UNL     1      -6.867  -8.405  16.470  0.00  0.00    +0.156 HD
ENDROOT
BRANCH   7  26
ATOM     26  C   UNL     1      -8.875  -8.774  16.271  0.00  0.00    +0.035 A 
ATOM     27  C   UNL     1      -9.333  -9.171  15.015  0.00  0.00    +0.023 A 
ATOM     28  C   UNL     1      -9.709  -8.047  17.120  0.00  0.00    +0.023 A 
ATOM     29  C   UNL     1     -10.625  -8.840  14.607  0.00  0.00    +0.002 A 
ATOM     30  C   UNL     1     -11.000  -7.715  16.713  0.00  0.00    +0.002 A 
ATOM     32  C   UNL     1     -11.459  -8.112  15.456  0.00  0.00    +0.000 A 
ENDBRANCH   7  26
BRANCH   8  12
ATOM     12  C   UNL     1      -5.478 -10.965  13.993  0.00  0.00    +0.061 C 
BRANCH  12  15
ATOM      6  N   UNL     1      -3.757 -10.490  12.386  0.00  0.00    -0.287 NA
ATOM     15  C   UNL     1      -5.019 -10.436  12.655  0.00  0.00    +0.044 C 
ATOM     17  C   UNL     1      -6.031  -9.878  11.722  0.00  0.00    -0.001 A 
ATOM     19  C   UNL     1      -5.555  -9.062  10.689  0.00  0.00    -0.033 A 
ATOM     20  C   UNL     1      -4.081  -8.797  10.602  0.00  0.00    +0.059 C 
ATOM     21  C   UNL     1      -3.319 -10.032  11.063  0.00  0.00    +0.146 C 
ATOM     22  C   UNL     1      -7.399 -10.126  11.854  0.00  0.00    +0.013 A 
ATOM     23  C   UNL     1      -6.459  -8.472   9.801  0.00  0.00    +0.050 A 
ATOM     24  C   UNL     1      -8.293  -9.547  10.953  0.00  0.00    +0.046 A 
ATOM     25  C   UNL     1      -7.825  -8.719   9.932  0.00  0.00    +0.120 A 
BRANCH  25   4
ATOM      4  O   UNL     1      -8.705  -8.150   9.062  0.00  0.00    -0.495 OA
ATOM     31  C   UNL     1      -8.217  -7.840   7.757  0.00  0.00    +0.277 C 
ENDBRANCH  25   4
ENDBRANCH  12  15
ENDBRANCH   8  12
BRANCH   9  14
ATOM     14  C   UNL     1      -3.325 -13.070  14.473  0.00  0.00    +0.124 C 
BRANCH  14  18
ATOM      3  O   UNL     1      -1.082 -12.119  14.558  0.00  0.00    -0.251 OA
ATOM     18  C   UNL     1      -1.974 -12.681  13.940  0.00  0.00    +0.305 C 
BRANCH  18   1
ATOM      1  O   UNL     1      -1.873 -13.049  12.637  0.00  0.00    -0.481 OA
ATOM     34  H   UNL     1      -1.486 -13.946  12.540  0.00  0.00    +0.295 HD
ENDBRANCH  18   1
ENDBRANCH  14  18
ENDBRANCH   9  14
TORSDOF 7
ENDMDL
MODEL 8
REMARK VINA RESULT:      -5.4     20.386     23.455
REMARK  Name = 51136673
REMARK  8 active torsions:
REMARK  status: ('A' for Active; 'I' for Inactive)
REMARK    1  A    between atoms: O_1  and  C_18
REMARK    2  A    between atoms: O_4  and  C_25
REMARK    3  A    between atoms: O_4  and  C_31
REMARK    4  A    between atoms: N_7  and  C_26
REMARK    5  A    between atoms: C_8  and  C_12
REMARK    6  A    between atoms: C_9  and  C_14
REMARK    7  A    between atoms: C_12  and  C_15
REMARK    8  A    between atoms: C_14  and  C_18
REMARK                            x       y       z     vdW  Elec       q    Type
REMARK                         _______ _______ _______ _____ _____    ______ ____
ROOT
ATOM      2  O   UNL     1       2.929 -13.719  32.673  0.00  0.00    -0.252 OA
ATOM      5  N   UNL     1       5.116 -14.072  32.016  0.00  0.00    -0.285 N 
ATOM      7  N   UNL     1       4.638 -12.792  33.938  0.00  0.00    -0.269 N 
ATOM      8  C   UNL     1       7.204 -13.268  30.946  0.00  0.00    +0.016 C 
ATOM      9  C   UNL     1       6.799 -14.037  29.661  0.00  0.00    +0.006 C 
ATOM     10  C   UNL     1       5.274 -14.234  29.568  0.00  0.00    +0.023 C 
ATOM     11  C   UNL     1       6.573 -13.949  32.173  0.00  0.00    +0.113 C 
ATOM     13  C   UNL     1       4.710 -14.852  30.845  0.00  0.00    +0.109 C 
ATOM     16  C   UNL     1       4.133 -13.543  32.877  0.00  0.00    +0.306 C 
ATOM     33  H   UNL     1       5.558 -13.019  34.296  0.00  0.00    +0.156 HD
ENDROOT
BRANCH   7  26
ATOM     26  C   UNL     1       4.014 -11.700  34.592  0.00  0.00    +0.035 A 
ATOM     27  C   UNL     1       4.666 -10.470  34.669  0.00  0.00    +0.023 A 
ATOM     28  C   UNL     1       2.750 -11.857  35.159  0.00  0.00    +0.023 A 
ATOM     29  C   UNL     1       4.053  -9.395  35.313  0.00  0.00    +0.002 A 
ATOM     30  C   UNL     1       2.137 -10.783  35.804  0.00  0.00    +0.002 A 
ATOM     32  C   UNL     1       2.789  -9.551  35.881  0.00  0.00    +0.000 A 
ENDBRANCH   7  26
BRANCH   8  12
ATOM     12  C   UNL     1       6.848 -11.777  30.919  0.00  0.00    +0.061 C 
BRANCH  12  15
ATOM      6  N   UNL     1       9.206 -11.475  31.271  0.00  0.00    -0.287 NA
ATOM     15  C   UNL     1       8.027 -10.961  31.393  0.00  0.00    +0.044 C 
ATOM     17  C   UNL     1       7.778  -9.619  31.979  0.00  0.00    -0.001 A 
ATOM     19  C   UNL     1       8.809  -9.063  32.746  0.00  0.00    -0.033 A 
ATOM     20  C   UNL     1      10.070  -9.852  32.936  0.00  0.00    +0.059 C 
ATOM     21  C   UNL     1      10.354 -10.658  31.675  0.00  0.00    +0.146 C 
ATOM     22  C   UNL     1       6.577  -8.928  31.801  0.00  0.00    +0.013 A 
ATOM     23  C   UNL     1       8.622  -7.821  33.359  0.00  0.00    +0.050 A 
ATOM     24  C   UNL     1       6.405  -7.681  32.403  0.00  0.00    +0.046 A 
ATOM     25  C   UNL     1       7.423  -7.131  33.183  0.00  0.00    +0.120 A 
BRANCH  25   4
ATOM      4  O   UNL     1       7.246  -5.916  33.774  0.00  0.00    -0.495 OA
ATOM     31  C   UNL     1       8.410  -5.117  33.976  0.00  0.00    +0.277 C 
ENDBRANCH  25   4
ENDBRANCH  12  15
ENDBRANCH   8  12
BRANCH   9  14
ATOM     14  C   UNL     1       7.339 -13.396  28.382  0.00  0.00    +0.124 C 
BRANCH  14  18
ATOM      3  O   UNL     1       9.507 -14.508  28.327  0.00  0.00    -0.251 OA
ATOM     18  C   UNL     1       8.838 -13.486  28.306  0.00  0.00    +0.305 C 
BRANCH  18   1
ATOM      1  O   UNL     1       9.366 -12.239  28.207  0.00  0.00    -0.481 OA
ATOM     34  H   UNL     1       9.237 -11.858  27.312  0.00  0.00    +0.295 HD
ENDBRANCH  18   1
ENDBRANCH  14  18
ENDBRANCH   9  14
TORSDOF 7
ENDMDL
MODEL 9
REMARK VINA RESULT:      -5.4     24.749     27.655
REMARK  Name = 51136673
REMARK  8 active torsions:
REMARK  status: ('A' for Active; 'I' for Inactive)
REMARK    1  A    between atoms: O_1  and  C_18
REMARK    2  A    between atoms: O_4  and  C_25
REMARK    3  A    between atoms: O_4  and  C_31
REMARK    4  A    between atoms: N_7  and  C_26
REMARK    5  A    between atoms: C_8  and  C_12
REMARK    6  A    between atoms: C_9  and  C_14
REMARK    7  A    between atoms: C_12  and  C_15
REMARK    8  A    between atoms: C_14  and  C_18
REMARK                            x       y       z     vdW  Elec       q    Type
REMARK                         _______ _______ _______ _____ _____    ______ ____
ROOT
ATOM      2  O   UNL     1      15.120  10.061   6.323  0.00  0.00    -0.252 OA
ATOM      5  N   UNL     1      13.547   8.373   6.472  0.00  0.00    -0.285 N 
ATOM      7  N   UNL     1      15.641   7.969   5.466  0.00  0.00    -0.269 N 
ATOM      8  C   UNL     1      11.804   6.951   5.430  0.00  0.00    +0.016 C 
ATOM      9  C   UNL     1      10.727   7.875   6.057  0.00  0.00    +0.006 C 
ATOM     10  C   UNL     1      11.271   9.290   6.324  0.00  0.00    +0.023 C 
ATOM     11  C   UNL     1      13.079   6.991   6.290  0.00  0.00    +0.113 C 
ATOM     13  C   UNL     1      12.571   9.249   7.124  0.00  0.00    +0.109 C 
ATOM     16  C   UNL     1      14.810   8.886   6.107  0.00  0.00    +0.306 C 
ATOM     33  H   UNL     1      15.536   6.985   5.685  0.00  0.00    +0.156 HD
ENDROOT
BRANCH   7  26
ATOM     26  C   UNL     1      16.640   8.244   4.498  0.00  0.00    +0.035 A 
ATOM     27  C   UNL     1      16.276   8.697   3.231  0.00  0.00    +0.023 A 
ATOM     28  C   UNL     1      17.986   8.061   4.815  0.00  0.00    +0.023 A 
ATOM     29  C   UNL     1      17.258   8.968   2.278  0.00  0.00    +0.002 A 
ATOM     30  C   UNL     1      18.969   8.331   3.863  0.00  0.00    +0.002 A 
ATOM     32  C   UNL     1      18.605   8.785   2.594  0.00  0.00    +0.000 A 
ENDBRANCH   7  26
BRANCH   8  12
ATOM     12  C   UNL     1      12.133   7.278   3.968  0.00  0.00    +0.061 C 
BRANCH  12  15
ATOM      6  N   UNL     1      10.719   5.534   3.112  0.00  0.00    -0.287 NA
ATOM     15  C   UNL     1      11.900   6.061   3.106  0.00  0.00    +0.044 C 
ATOM     17  C   UNL     1      13.029   5.526   2.303  0.00  0.00    -0.001 A 
ATOM     19  C   UNL     1      12.905   4.212   1.835  0.00  0.00    -0.033 A 
ATOM     20  C   UNL     1      11.667   3.439   2.180  0.00  0.00    +0.059 C 
ATOM     21  C   UNL     1      10.477   4.389   2.229  0.00  0.00    +0.146 C 
ATOM     22  C   UNL     1      14.178   6.270   2.027  0.00  0.00    +0.013 A 
ATOM     23  C   UNL     1      13.950   3.636   1.108  0.00  0.00    +0.050 A 
ATOM     24  C   UNL     1      15.210   5.692   1.287  0.00  0.00    +0.046 A 
ATOM     25  C   UNL     1      15.098   4.378   0.832  0.00  0.00    +0.120 A 
BRANCH  25   4
ATOM      4  O   UNL     1      16.113   3.818   0.116  0.00  0.00    -0.495 OA
ATOM     31  C   UNL     1      16.338   4.328  -1.197  0.00  0.00    +0.277 C 
ENDBRANCH  25   4
ENDBRANCH  12  15
ENDBRANCH   8  12
BRANCH   9  14
ATOM     14  C   UNL     1       9.439   7.939   5.235  0.00  0.00    +0.124 C 
BRANCH  14  18
ATOM      3  O   UNL     1       8.280   5.817   5.548  0.00  0.00    -0.251 OA
ATOM     18  C   UNL     1       8.386   7.012   5.779  0.00  0.00    +0.305 C 
BRANCH  18   1
ATOM      1  O   UNL     1       7.543   7.703   6.589  0.00  0.00    -0.481 OA
ATOM     34  H   UNL     1       6.748   8.015   6.106  0.00  0.00    +0.295 HD
ENDBRANCH  18   1
ENDBRANCH  14  18
ENDBRANCH   9  14
TORSDOF 7
ENDMDL
MODEL 10
REMARK VINA RESULT:      -5.4     20.831     23.963
REMARK  Name = 51136673
REMARK  8 active torsions:
REMARK  status: ('A' for Active; 'I' for Inactive)
REMARK    1  A    between atoms: O_1  and  C_18
REMARK    2  A    between atoms: O_4  and  C_25
REMARK    3  A    between atoms: O_4  and  C_31
REMARK    4  A    between atoms: N_7  and  C_26
REMARK    5  A    between atoms: C_8  and  C_12
REMARK    6  A    between atoms: C_9  and  C_14
REMARK    7  A    between atoms: C_12  and  C_15
REMARK    8  A    between atoms: C_14  and  C_18
REMARK                            x       y       z     vdW  Elec       q    Type
REMARK                         _______ _______ _______ _____ _____    ______ ____
ROOT
ATOM      2  O   UNL     1       2.732 -12.992  36.993  0.00  0.00    -0.252 OA
ATOM      5  N   UNL     1       3.229 -10.818  36.385  0.00  0.00    -0.285 N 
ATOM      7  N   UNL     1       2.572 -12.393  34.757  0.00  0.00    -0.269 N 
ATOM      8  C   UNL     1       4.780  -9.156  35.396  0.00  0.00    +0.016 C 
ATOM      9  C   UNL     1       5.198  -8.745  36.833  0.00  0.00    +0.006 C 
ATOM     10  C   UNL     1       4.976  -9.886  37.842  0.00  0.00    +0.023 C 
ATOM     11  C   UNL     1       3.348  -9.717  35.419  0.00  0.00    +0.113 C 
ATOM     13  C   UNL     1       3.554 -10.438  37.761  0.00  0.00    +0.109 C 
ATOM     16  C   UNL     1       2.823 -12.140  36.105  0.00  0.00    +0.306 C 
ATOM     33  H   UNL     1       2.253 -11.629  34.173  0.00  0.00    +0.156 HD
ENDROOT
BRANCH   7  26
ATOM     26  C   UNL     1       2.727 -13.622  34.070  0.00  0.00    +0.035 A 
ATOM     27  C   UNL     1       1.837 -14.670  34.306  0.00  0.00    +0.023 A 
ATOM     28  C   UNL     1       3.769 -13.784  33.158  0.00  0.00    +0.023 A 
ATOM     29  C   UNL     1       1.989 -15.880  33.629  0.00  0.00    +0.002 A 
ATOM     30  C   UNL     1       3.923 -14.994  32.482  0.00  0.00    +0.002 A 
ATOM     32  C   UNL     1       3.031 -16.043  32.717  0.00  0.00    +0.000 A 
ENDBRANCH   7  26
BRANCH   8  12
ATOM     12  C   UNL     1       5.736 -10.152  34.729  0.00  0.00    +0.061 C 
BRANCH  12  15
ATOM      6  N   UNL     1       6.363  -8.278  33.363  0.00  0.00    -0.287 NA
ATOM     15  C   UNL     1       6.275  -9.564  33.447  0.00  0.00    +0.044 C 
ATOM     17  C   UNL     1       6.670 -10.484  32.350  0.00  0.00    -0.001 A 
ATOM     19  C   UNL     1       6.792  -9.926  31.071  0.00  0.00    -0.033 A 
ATOM     20  C   UNL     1       6.506  -8.464  30.893  0.00  0.00    +0.059 C 
ATOM     21  C   UNL     1       6.944  -7.710  32.142  0.00  0.00    +0.146 C 
ATOM     22  C   UNL     1       6.901 -11.846  32.552  0.00  0.00    +0.013 A 
ATOM     23  C   UNL     1       7.121 -10.745  29.988  0.00  0.00    +0.050 A 
ATOM     24  C   UNL     1       7.245 -12.654  31.468  0.00  0.00    +0.046 A 
ATOM     25  C   UNL     1       7.351 -12.106  30.188  0.00  0.00    +0.120 A 
BRANCH  25   4
ATOM      4  O   UNL     1       7.679 -12.902  29.134  0.00  0.00    -0.495 OA
ATOM     31  C   UNL     1       8.310 -12.273  28.019  0.00  0.00    +0.277 C 
ENDBRANCH  25   4
ENDBRANCH  12  15
ENDBRANCH   8  12
BRANCH   9  14
ATOM     14  C   UNL     1       6.633  -8.224  36.915  0.00  0.00    +0.124 C 
BRANCH  14  18
ATOM      3  O   UNL     1       6.525  -5.957  37.803  0.00  0.00    -0.251 OA
ATOM     18  C   UNL     1       6.683  -6.722  36.864  0.00  0.00    +0.305 C 
BRANCH  18   1
ATOM      1  O   UNL     1       6.938  -6.315  35.594  0.00  0.00    -0.481 OA
ATOM     34  H   UNL     1       6.826  -5.346  35.492  0.00  0.00    +0.295 HD
ENDBRANCH  18   1
ENDBRANCH  14  18
ENDBRANCH   9  14
TORSDOF 7
ENDMDL
