MODEL 1
REMARK VINA RESULT:      -6.5      0.000      0.000
REMARK  Name = 71694202
REMARK  6 active torsions:
REMARK  status: ('A' for Active; 'I' for Inactive)
REMARK    1  A    between atoms: N_3  and  C_11
REMARK    2  A    between atoms: N_6  and  C_22
REMARK    3  A    between atoms: C_8  and  C_13
REMARK    4  A    between atoms: C_11  and  C_14
REMARK    5  A    between atoms: C_15  and  C_19
REMARK    6  A    between atoms: C_27  and  C_28
REMARK                            x       y       z     vdW  Elec       q    Type
REMARK                         _______ _______ _______ _____ _____    ______ ____
ROOT
ATOM      1  O   UNL     1     -14.995   8.944  33.648  0.00  0.00    -0.377 OA
ATOM      3  N   UNL     1     -14.795   6.091  33.493  0.00  0.00    -0.285 NA
ATOM      8  C   UNL     1     -16.037   6.802  33.094  0.00  0.00    +0.149 C 
ATOM      9  C   UNL     1     -14.049   6.885  34.484  0.00  0.00    +0.113 C 
ATOM     10  C   UNL     1     -15.701   8.233  32.631  0.00  0.00    +0.186 C 
ATOM     12  C   UNL     1     -13.767   8.285  33.953  0.00  0.00    +0.175 C 
ENDROOT
BRANCH   8  13
ATOM      4  N   UNL     1     -16.229   5.768  30.803  0.00  0.00    -0.341 N 
ATOM      5  N   UNL     1     -18.078   5.731  32.032  0.00  0.00    -0.238 NA
ATOM     13  C   UNL     1     -16.816   6.097  31.993  0.00  0.00    +0.127 A 
ATOM     15  C   UNL     1     -17.176   5.154  30.034  0.00  0.00    +0.066 A 
ATOM     16  C   UNL     1     -18.309   5.142  30.814  0.00  0.00    +0.139 A 
ATOM     29  H   UNL     1     -15.265   5.943  30.550  0.00  0.00    +0.167 HD
BRANCH  15  19
ATOM      7  N   UNL     1     -16.434   3.717  26.121  0.00  0.00    -0.263 NA
ATOM     19  C   UNL     1     -16.923   4.665  28.705  0.00  0.00    +0.003 A 
ATOM     23  C   UNL     1     -16.265   3.455  28.518  0.00  0.00    +0.029 A 
ATOM     24  C   UNL     1     -17.336   5.402  27.600  0.00  0.00    +0.029 A 
ATOM     25  C   UNL     1     -16.048   3.028  27.218  0.00  0.00    +0.111 A 
ATOM     26  C   UNL     1     -17.070   4.889  26.341  0.00  0.00    +0.111 A 
ENDBRANCH  15  19
ENDBRANCH   8  13
BRANCH   3  11
ATOM     11  C   UNL     1     -15.075   4.763  34.053  0.00  0.00    +0.120 C 
BRANCH  11  14
ATOM     14  C   UNL     1     -14.601   3.660  33.144  0.00  0.00    -0.033 A 
ATOM     17  C   UNL     1     -15.127   2.375  33.275  0.00  0.00    +0.007 A 
ATOM     18  C   UNL     1     -13.636   3.924  32.173  0.00  0.00    +0.007 A 
ATOM     20  C   UNL     1     -14.687   1.353  32.434  0.00  0.00    +0.023 A 
ATOM     21  C   UNL     1     -13.196   2.902  31.332  0.00  0.00    +0.023 A 
ATOM     22  C   UNL     1     -13.721   1.616  31.463  0.00  0.00    +0.033 A 
BRANCH  22   6
ATOM      2  O   UNL     1     -15.249  -0.134  29.548  0.00  0.00    -0.276 OA
ATOM      6  N   UNL     1     -13.281   0.594  30.622  0.00  0.00    -0.286 N 
ATOM     27  C   UNL     1     -14.041  -0.194  29.747  0.00  0.00    +0.214 C 
ATOM     28  C   UNL     1     -13.185  -1.195  29.011  0.00  0.00    +0.109 C 
ATOM     30  H   UNL     1     -12.281   0.405  30.655  0.00  0.00    +0.155 HD
ENDBRANCH  22   6
ENDBRANCH  11  14
ENDBRANCH   3  11
TORSDOF 5
ENDMDL
MODEL 2
REMARK VINA RESULT:      -6.2     20.367     25.087
REMARK  Name = 71694202
REMARK  6 active torsions:
REMARK  status: ('A' for Active; 'I' for Inactive)
REMARK    1  A    between atoms: N_3  and  C_11
REMARK    2  A    between atoms: N_6  and  C_22
REMARK    3  A    between atoms: C_8  and  C_13
REMARK    4  A    between atoms: C_11  and  C_14
REMARK    5  A    between atoms: C_15  and  C_19
REMARK    6  A    between atoms: C_27  and  C_28
REMARK                            x       y       z     vdW  Elec       q    Type
REMARK                         _______ _______ _______ _____ _____    ______ ____
ROOT
ATOM      1  O   UNL     1      -1.539 -10.620  16.286  0.00  0.00    -0.377 OA
ATOM      3  N   UNL     1      -3.113 -10.593  13.893  0.00  0.00    -0.285 NA
ATOM      8  C   UNL     1      -3.565 -11.319  15.109  0.00  0.00    +0.149 C 
ATOM      9  C   UNL     1      -1.643 -10.493  13.877  0.00  0.00    +0.113 C 
ATOM     10  C   UNL     1      -2.964 -10.666  16.368  0.00  0.00    +0.186 C 
ATOM     12  C   UNL     1      -1.132  -9.848  15.159  0.00  0.00    +0.175 C 
ENDROOT
BRANCH   8  13
ATOM      4  N   UNL     1      -5.816 -10.246  15.477  0.00  0.00    -0.341 N 
ATOM      5  N   UNL     1      -5.836 -12.448  15.196  0.00  0.00    -0.238 NA
ATOM     13  C   UNL     1      -5.079 -11.376  15.256  0.00  0.00    +0.127 A 
ATOM     15  C   UNL     1      -7.126 -10.621  15.563  0.00  0.00    +0.066 A 
ATOM     16  C   UNL     1      -7.114 -11.985  15.386  0.00  0.00    +0.139 A 
ATOM     29  H   UNL     1      -5.450  -9.305  15.552  0.00  0.00    +0.167 HD
BRANCH  15  19
ATOM      7  N   UNL     1     -10.295  -7.896  16.244  0.00  0.00    -0.263 NA
ATOM     19  C   UNL     1      -8.203  -9.695  15.793  0.00  0.00    +0.003 A 
ATOM     23  C   UNL     1      -9.053  -9.338  14.753  0.00  0.00    +0.029 A 
ATOM     24  C   UNL     1      -8.398  -9.152  17.059  0.00  0.00    +0.029 A 
ATOM     25  C   UNL     1     -10.075  -8.444  15.027  0.00  0.00    +0.111 A 
ATOM     26  C   UNL     1      -9.449  -8.266  17.230  0.00  0.00    +0.111 A 
ENDBRANCH  15  19
ENDBRANCH   8  13
BRANCH   3  11
ATOM     11  C   UNL     1      -3.564 -11.248  12.659  0.00  0.00    +0.120 C 
BRANCH  11  14
ATOM     14  C   UNL     1      -4.274 -10.287  11.742  0.00  0.00    -0.033 A 
ATOM     17  C   UNL     1      -5.512  -9.760  12.108  0.00  0.00    +0.007 A 
ATOM     18  C   UNL     1      -3.692  -9.925  10.527  0.00  0.00    +0.007 A 
ATOM     20  C   UNL     1      -6.170  -8.871  11.259  0.00  0.00    +0.023 A 
ATOM     21  C   UNL     1      -4.350  -9.036   9.678  0.00  0.00    +0.023 A 
ATOM     22  C   UNL     1      -5.590  -8.509  10.043  0.00  0.00    +0.033 A 
BRANCH  22   6
ATOM      2  O   UNL     1      -8.280  -8.710   8.707  0.00  0.00    -0.276 OA
ATOM      6  N   UNL     1      -6.248  -7.619   9.193  0.00  0.00    -0.286 N 
ATOM     27  C   UNL     1      -7.506  -7.766   8.595  0.00  0.00    +0.214 C 
ATOM     28  C   UNL     1      -7.860  -6.573   7.741  0.00  0.00    +0.109 C 
ATOM     30  H   UNL     1      -5.742  -6.760   8.989  0.00  0.00    +0.155 HD
ENDBRANCH  22   6
ENDBRANCH  11  14
ENDBRANCH   3  11
TORSDOF 5
ENDMDL
MODEL 3
REMARK VINA RESULT:      -6.2     33.445     35.094
REMARK  Name = 71694202
REMARK  6 active torsions:
REMARK  status: ('A' for Active; 'I' for Inactive)
REMARK    1  A    between atoms: N_3  and  C_11
REMARK    2  A    between atoms: N_6  and  C_22
REMARK    3  A    between atoms: C_8  and  C_13
REMARK    4  A    between atoms: C_11  and  C_14
REMARK    5  A    between atoms: C_15  and  C_19
REMARK    6  A    between atoms: C_27  and  C_28
REMARK                            x       y       z     vdW  Elec       q    Type
REMARK                         _______ _______ _______ _____ _____    ______ ____
ROOT
ATOM      1  O   UNL     1      18.826  11.517  20.963  0.00  0.00    -0.377 OA
ATOM      3  N   UNL     1      18.903   8.687  21.394  0.00  0.00    -0.285 NA
ATOM      8  C   UNL     1      17.626   9.443  21.452  0.00  0.00    +0.149 C 
ATOM      9  C   UNL     1      20.035   9.571  21.726  0.00  0.00    +0.113 C 
ATOM     10  C   UNL     1      17.718  10.705  20.572  0.00  0.00    +0.186 C 
ATOM     12  C   UNL     1      20.047  10.795  20.819  0.00  0.00    +0.175 C 
ENDROOT
BRANCH   8  13
ATOM      4  N   UNL     1      15.210   8.755  21.652  0.00  0.00    -0.341 N 
ATOM      5  N   UNL     1      16.365   7.749  20.045  0.00  0.00    -0.238 NA
ATOM     13  C   UNL     1      16.415   8.628  21.021  0.00  0.00    +0.127 A 
ATOM     15  C   UNL     1      14.335   7.901  21.042  0.00  0.00    +0.066 A 
ATOM     16  C   UNL     1      15.071   7.291  20.053  0.00  0.00    +0.139 A 
ATOM     29  H   UNL     1      15.008   9.377  22.425  0.00  0.00    +0.167 HD
BRANCH  15  19
ATOM      7  N   UNL     1      10.287   7.477  22.209  0.00  0.00    -0.263 NA
ATOM     19  C   UNL     1      12.960   7.758  21.439  0.00  0.00    +0.003 A 
ATOM     23  C   UNL     1      12.295   8.814  22.052  0.00  0.00    +0.029 A 
ATOM     24  C   UNL     1      12.288   6.561  21.211  0.00  0.00    +0.029 A 
ATOM     25  C   UNL     1      10.971   8.625  22.413  0.00  0.00    +0.111 A 
ATOM     26  C   UNL     1      10.965   6.472  21.611  0.00  0.00    +0.111 A 
ENDBRANCH  15  19
ENDBRANCH   8  13
BRANCH   3  11
ATOM     11  C   UNL     1      18.907   7.539  22.309  0.00  0.00    +0.120 C 
BRANCH  11  14
ATOM     14  C   UNL     1      19.927   6.506  21.908  0.00  0.00    -0.033 A 
ATOM     17  C   UNL     1      19.820   5.864  20.674  0.00  0.00    +0.007 A 
ATOM     18  C   UNL     1      20.977   6.191  22.770  0.00  0.00    +0.007 A 
ATOM     20  C   UNL     1      20.764   4.907  20.303  0.00  0.00    +0.023 A 
ATOM     21  C   UNL     1      21.920   5.234  22.398  0.00  0.00    +0.023 A 
ATOM     22  C   UNL     1      21.814   4.591  21.165  0.00  0.00    +0.033 A 
BRANCH  22   6
ATOM      2  O   UNL     1      24.627   4.913  20.140  0.00  0.00    -0.276 OA
ATOM      6  N   UNL     1      22.758   3.633  20.793  0.00  0.00    -0.286 N 
ATOM     27  C   UNL     1      24.060   3.841  20.319  0.00  0.00    +0.214 C 
ATOM     28  C   UNL     1      24.762   2.538  20.027  0.00  0.00    +0.109 C 
ATOM     30  H   UNL     1      22.453   2.667  20.882  0.00  0.00    +0.155 HD
ENDBRANCH  22   6
ENDBRANCH  11  14
ENDBRANCH   3  11
TORSDOF 5
ENDMDL
MODEL 4
REMARK VINA RESULT:      -6.1     21.440     26.500
REMARK  Name = 71694202
REMARK  6 active torsions:
REMARK  status: ('A' for Active; 'I' for Inactive)
REMARK    1  A    between atoms: N_3  and  C_11
REMARK    2  A    between atoms: N_6  and  C_22
REMARK    3  A    between atoms: C_8  and  C_13
REMARK    4  A    between atoms: C_11  and  C_14
REMARK    5  A    between atoms: C_15  and  C_19
REMARK    6  A    between atoms: C_27  and  C_28
REMARK                            x       y       z     vdW  Elec       q    Type
REMARK                         _______ _______ _______ _____ _____    ______ ____
ROOT
ATOM      1  O   UNL     1      -2.417 -15.400  12.541  0.00  0.00    -0.377 OA
ATOM      3  N   UNL     1      -3.099 -13.017  13.976  0.00  0.00    -0.285 NA
ATOM      8  C   UNL     1      -2.337 -12.962  12.701  0.00  0.00    +0.149 C 
ATOM      9  C   UNL     1      -2.877 -14.310  14.646  0.00  0.00    +0.113 C 
ATOM     10  C   UNL     1      -2.672 -14.188  11.831  0.00  0.00    +0.186 C 
ATOM     12  C   UNL     1      -3.222 -15.466  13.717  0.00  0.00    +0.175 C 
ENDROOT
BRANCH   8  13
ATOM      4  N   UNL     1      -3.712 -11.561  11.121  0.00  0.00    -0.341 N 
ATOM      5  N   UNL     1      -1.823 -10.635  11.829  0.00  0.00    -0.238 NA
ATOM     13  C   UNL     1      -2.592 -11.698  11.893  0.00  0.00    +0.127 A 
ATOM     15  C   UNL     1      -3.653 -10.332  10.528  0.00  0.00    +0.066 A 
ATOM     16  C   UNL     1      -2.478  -9.778  10.980  0.00  0.00    +0.139 A 
ATOM     29  H   UNL     1      -4.451 -12.246  11.022  0.00  0.00    +0.167 HD
BRANCH  15  19
ATOM      7  N   UNL     1      -6.636  -8.861   7.906  0.00  0.00    -0.263 NA
ATOM     19  C   UNL     1      -4.666  -9.832   9.636  0.00  0.00    +0.003 A 
ATOM     23  C   UNL     1      -4.767 -10.331   8.343  0.00  0.00    +0.029 A 
ATOM     24  C   UNL     1      -5.551  -8.848  10.066  0.00  0.00    +0.029 A 
ATOM     25  C   UNL     1      -5.760  -9.818   7.525  0.00  0.00    +0.111 A 
ATOM     26  C   UNL     1      -6.508  -8.401   9.170  0.00  0.00    +0.111 A 
ENDBRANCH  15  19
ENDBRANCH   8  13
BRANCH   3  11
ATOM     11  C   UNL     1      -2.725 -11.931  14.890  0.00  0.00    +0.120 C 
BRANCH  11  14
ATOM     14  C   UNL     1      -3.928 -11.158  15.362  0.00  0.00    -0.033 A 
ATOM     17  C   UNL     1      -4.822 -10.625  14.434  0.00  0.00    +0.007 A 
ATOM     18  C   UNL     1      -4.146 -10.974  16.727  0.00  0.00    +0.007 A 
ATOM     20  C   UNL     1      -5.935  -9.907  14.872  0.00  0.00    +0.023 A 
ATOM     21  C   UNL     1      -5.260 -10.257  17.165  0.00  0.00    +0.023 A 
ATOM     22  C   UNL     1      -6.154  -9.723  16.237  0.00  0.00    +0.033 A 
BRANCH  22   6
ATOM      2  O   UNL     1      -9.053 -10.518  16.395  0.00  0.00    -0.276 OA
ATOM      6  N   UNL     1      -7.268  -9.005  16.674  0.00  0.00    -0.286 N 
ATOM     27  C   UNL     1      -8.603  -9.427  16.725  0.00  0.00    +0.214 C 
ATOM     28  C   UNL     1      -9.509  -8.348  17.264  0.00  0.00    +0.109 C 
ATOM     30  H   UNL     1      -7.075  -8.059  16.995  0.00  0.00    +0.155 HD
ENDBRANCH  22   6
ENDBRANCH  11  14
ENDBRANCH   3  11
TORSDOF 5
ENDMDL
MODEL 5
REMARK VINA RESULT:      -6.0     19.909     25.169
REMARK  Name = 71694202
REMARK  6 active torsions:
REMARK  status: ('A' for Active; 'I' for Inactive)
REMARK    1  A    between atoms: N_3  and  C_11
REMARK    2  A    between atoms: N_6  and  C_22
REMARK    3  A    between atoms: C_8  and  C_13
REMARK    4  A    between atoms: C_11  and  C_14
REMARK    5  A    between atoms: C_15  and  C_19
REMARK    6  A    between atoms: C_27  and  C_28
REMARK                            x       y       z     vdW  Elec       q    Type
REMARK                         _______ _______ _______ _____ _____    ______ ____
ROOT
ATOM      1  O   UNL     1      -4.217 -15.939  14.838  0.00  0.00    -0.377 OA
ATOM      3  N   UNL     1      -4.780 -13.412  16.063  0.00  0.00    -0.285 NA
ATOM      8  C   UNL     1      -3.619 -13.590  15.153  0.00  0.00    +0.149 C 
ATOM      9  C   UNL     1      -5.133 -14.697  16.695  0.00  0.00    +0.113 C 
ATOM     10  C   UNL     1      -3.900 -14.728  14.153  0.00  0.00    +0.186 C 
ATOM     12  C   UNL     1      -5.384 -15.766  15.640  0.00  0.00    +0.175 C 
ENDROOT
BRANCH   8  13
ATOM      4  N   UNL     1      -4.023 -11.885  13.342  0.00  0.00    -0.341 N 
ATOM      5  N   UNL     1      -2.217 -11.551  14.589  0.00  0.00    -0.238 NA
ATOM     13  C   UNL     1      -3.254 -12.331  14.379  0.00  0.00    +0.127 A 
ATOM     15  C   UNL     1      -3.441 -10.748  12.858  0.00  0.00    +0.066 A 
ATOM     16  C   UNL     1      -2.327 -10.561  13.644  0.00  0.00    +0.139 A 
ATOM     29  H   UNL     1      -4.874 -12.319  13.006  0.00  0.00    +0.167 HD
BRANCH  15  19
ATOM      7  N   UNL     1      -5.006  -8.525   9.611  0.00  0.00    -0.263 NA
ATOM     19  C   UNL     1      -3.972  -9.993  11.755  0.00  0.00    +0.003 A 
ATOM     23  C   UNL     1      -3.189  -9.751  10.631  0.00  0.00    +0.029 A 
ATOM     24  C   UNL     1      -5.272  -9.500  11.807  0.00  0.00    +0.029 A 
ATOM     25  C   UNL     1      -3.748  -9.021   9.596  0.00  0.00    +0.111 A 
ATOM     26  C   UNL     1      -5.737  -8.779  10.719  0.00  0.00    +0.111 A 
ENDBRANCH  15  19
ENDBRANCH   8  13
BRANCH   3  11
ATOM     11  C   UNL     1      -4.514 -12.419  17.111  0.00  0.00    +0.120 C 
BRANCH  11  14
ATOM     14  C   UNL     1      -5.614 -11.395  17.204  0.00  0.00    -0.033 A 
ATOM     17  C   UNL     1      -6.574 -11.493  18.211  0.00  0.00    +0.007 A 
ATOM     18  C   UNL     1      -5.673 -10.350  16.283  0.00  0.00    +0.007 A 
ATOM     20  C   UNL     1      -7.594 -10.545  18.297  0.00  0.00    +0.023 A 
ATOM     21  C   UNL     1      -6.693  -9.402  16.368  0.00  0.00    +0.023 A 
ATOM     22  C   UNL     1      -7.654  -9.500  17.375  0.00  0.00    +0.033 A 
BRANCH  22   6
ATOM      2  O   UNL     1     -10.007  -8.991  15.567  0.00  0.00    -0.276 OA
ATOM      6  N   UNL     1      -8.674  -8.552  17.461  0.00  0.00    -0.286 N 
ATOM     27  C   UNL     1      -9.750  -8.358  16.585  0.00  0.00    +0.214 C 
ATOM     28  C   UNL     1     -10.637  -7.222  17.033  0.00  0.00    +0.109 C 
ATOM     30  H   UNL     1      -8.620  -7.929  18.264  0.00  0.00    +0.155 HD
ENDBRANCH  22   6
ENDBRANCH  11  14
ENDBRANCH   3  11
TORSDOF 5
ENDMDL
MODEL 6
REMARK VINA RESULT:      -6.0     30.432     32.111
REMARK  Name = 71694202
REMARK  6 active torsions:
REMARK  status: ('A' for Active; 'I' for Inactive)
REMARK    1  A    between atoms: N_3  and  C_11
REMARK    2  A    between atoms: N_6  and  C_22
REMARK    3  A    between atoms: C_8  and  C_13
REMARK    4  A    between atoms: C_11  and  C_14
REMARK    5  A    between atoms: C_15  and  C_19
REMARK    6  A    between atoms: C_27  and  C_28
REMARK                            x       y       z     vdW  Elec       q    Type
REMARK                         _______ _______ _______ _____ _____    ______ ____
ROOT
ATOM      1  O   UNL     1      15.927   7.850  21.130  0.00  0.00    -0.377 OA
ATOM      3  N   UNL     1      13.334   7.659  19.929  0.00  0.00    -0.285 NA
ATOM      8  C   UNL     1      14.375   8.568  19.382  0.00  0.00    +0.149 C 
ATOM      9  C   UNL     1      13.561   7.432  21.368  0.00  0.00    +0.113 C 
ATOM     10  C   UNL     1      15.778   8.028  19.721  0.00  0.00    +0.186 C 
ATOM     12  C   UNL     1      14.970   6.911  21.616  0.00  0.00    +0.175 C 
ENDROOT
BRANCH   8  13
ATOM      4  N   UNL     1      14.563   9.978  17.303  0.00  0.00    -0.341 N 
ATOM      5  N   UNL     1      13.922   7.877  16.983  0.00  0.00    -0.238 NA
ATOM     13  C   UNL     1      14.275   8.772  17.878  0.00  0.00    +0.127 A 
ATOM     15  C   UNL     1      14.381   9.844  15.955  0.00  0.00    +0.066 A 
ATOM     16  C   UNL     1      13.986   8.538  15.782  0.00  0.00    +0.139 A 
ATOM     29  H   UNL     1      14.864  10.811  17.792  0.00  0.00    +0.167 HD
BRANCH  15  19
ATOM      7  N   UNL     1      14.993  12.993  13.191  0.00  0.00    -0.263 NA
ATOM     19  C   UNL     1      14.590  10.914  15.017  0.00  0.00    +0.003 A 
ATOM     23  C   UNL     1      15.815  11.050  14.372  0.00  0.00    +0.029 A 
ATOM     24  C   UNL     1      13.567  11.818  14.749  0.00  0.00    +0.029 A 
ATOM     25  C   UNL     1      15.964  12.096  13.476  0.00  0.00    +0.111 A 
ATOM     26  C   UNL     1      13.817  12.830  13.836  0.00  0.00    +0.111 A 
ENDBRANCH  15  19
ENDBRANCH   8  13
BRANCH   3  11
ATOM     11  C   UNL     1      11.980   8.191  19.735  0.00  0.00    +0.120 C 
BRANCH  11  14
ATOM     14  C   UNL     1      11.629   9.222  20.775  0.00  0.00    -0.033 A 
ATOM     17  C   UNL     1      12.043  10.544  20.613  0.00  0.00    +0.007 A 
ATOM     18  C   UNL     1      10.890   8.855  21.899  0.00  0.00    +0.007 A 
ATOM     20  C   UNL     1      11.718  11.499  21.576  0.00  0.00    +0.023 A 
ATOM     21  C   UNL     1      10.566   9.810  22.863  0.00  0.00    +0.023 A 
ATOM     22  C   UNL     1      10.980  11.133  22.702  0.00  0.00    +0.033 A 
BRANCH  22   6
ATOM      2  O   UNL     1      11.978  11.483  25.520  0.00  0.00    -0.276 OA
ATOM      6  N   UNL     1      10.656  12.088  23.665  0.00  0.00    -0.286 N 
ATOM     27  C   UNL     1      11.153  12.203  24.970  0.00  0.00    +0.214 C 
ATOM     28  C   UNL     1      10.546  13.379  25.696  0.00  0.00    +0.109 C 
ATOM     30  H   UNL     1       9.972  12.783  23.373  0.00  0.00    +0.155 HD
ENDBRANCH  22   6
ENDBRANCH  11  14
ENDBRANCH   3  11
TORSDOF 5
ENDMDL
MODEL 7
REMARK VINA RESULT:      -5.9     37.273     39.747
REMARK  Name = 71694202
REMARK  6 active torsions:
REMARK  status: ('A' for Active; 'I' for Inactive)
REMARK    1  A    between atoms: N_3  and  C_11
REMARK    2  A    between atoms: N_6  and  C_22
REMARK    3  A    between atoms: C_8  and  C_13
REMARK    4  A    between atoms: C_11  and  C_14
REMARK    5  A    between atoms: C_15  and  C_19
REMARK    6  A    between atoms: C_27  and  C_28
REMARK                            x       y       z     vdW  Elec       q    Type
REMARK                         _______ _______ _______ _____ _____    ______ ____
ROOT
ATOM      1  O   UNL     1      15.135   8.425   2.889  0.00  0.00    -0.377 OA
ATOM      3  N   UNL     1      13.463   6.295   1.953  0.00  0.00    -0.285 NA
ATOM      8  C   UNL     1      13.423   6.746   3.369  0.00  0.00    +0.149 C 
ATOM      9  C   UNL     1      14.782   6.587   1.363  0.00  0.00    +0.113 C 
ATOM     10  C   UNL     1      13.843   8.225   3.465  0.00  0.00    +0.186 C 
ATOM     12  C   UNL     1      15.124   8.064   1.510  0.00  0.00    +0.175 C 
ENDROOT
BRANCH   8  13
ATOM      4  N   UNL     1      11.940   6.184   5.327  0.00  0.00    -0.341 N 
ATOM      5  N   UNL     1      10.887   6.769   3.461  0.00  0.00    -0.238 NA
ATOM     13  C   UNL     1      12.060   6.576   4.023  0.00  0.00    +0.127 A 
ATOM     15  C   UNL     1      10.606   6.124   5.616  0.00  0.00    +0.066 A 
ATOM     16  C   UNL     1       9.976   6.489   4.449  0.00  0.00    +0.139 A 
ATOM     29  H   UNL     1      12.705   5.987   5.959  0.00  0.00    +0.167 HD
BRANCH  15  19
ATOM      7  N   UNL     1       9.088   5.009   9.409  0.00  0.00    -0.263 NA
ATOM     19  C   UNL     1      10.090   5.744   6.904  0.00  0.00    +0.003 A 
ATOM     23  C   UNL     1      10.119   4.413   7.305  0.00  0.00    +0.029 A 
ATOM     24  C   UNL     1       9.559   6.708   7.756  0.00  0.00    +0.029 A 
ATOM     25  C   UNL     1       9.612   4.100   8.555  0.00  0.00    +0.111 A 
ATOM     26  C   UNL     1       9.076   6.293   8.986  0.00  0.00    +0.111 A 
ENDBRANCH  15  19
ENDBRANCH   8  13
BRANCH   3  11
ATOM     11  C   UNL     1      13.186   4.860   1.822  0.00  0.00    +0.120 C 
BRANCH  11  14
ATOM     14  C   UNL     1      12.562   4.530   0.491  0.00  0.00    -0.033 A 
ATOM     17  C   UNL     1      11.532   5.324  -0.012  0.00  0.00    +0.007 A 
ATOM     18  C   UNL     1      13.014   3.430  -0.237  0.00  0.00    +0.007 A 
ATOM     20  C   UNL     1      10.953   5.018  -1.243  0.00  0.00    +0.023 A 
ATOM     21  C   UNL     1      12.435   3.124  -1.468  0.00  0.00    +0.023 A 
ATOM     22  C   UNL     1      11.404   3.918  -1.972  0.00  0.00    +0.033 A 
BRANCH  22   6
ATOM      2  O   UNL     1       9.728   1.562  -2.812  0.00  0.00    -0.276 OA
ATOM      6  N   UNL     1      10.825   3.611  -3.204  0.00  0.00    -0.286 N 
ATOM     27  C   UNL     1      10.051   2.494  -3.541  0.00  0.00    +0.214 C 
ATOM     28  C   UNL     1       9.611   2.534  -4.984  0.00  0.00    +0.109 C 
ATOM     30  H   UNL     1      10.992   4.292  -3.942  0.00  0.00    +0.155 HD
ENDBRANCH  22   6
ENDBRANCH  11  14
ENDBRANCH   3  11
TORSDOF 5
ENDMDL
MODEL 8
REMARK VINA RESULT:      -5.9      1.796      2.668
REMARK  Name = 71694202
REMARK  6 active torsions:
REMARK  status: ('A' for Active; 'I' for Inactive)
REMARK    1  A    between atoms: N_3  and  C_11
REMARK    2  A    between atoms: N_6  and  C_22
REMARK    3  A    between atoms: C_8  and  C_13
REMARK    4  A    between atoms: C_11  and  C_14
REMARK    5  A    between atoms: C_15  and  C_19
REMARK    6  A    between atoms: C_27  and  C_28
REMARK                            x       y       z     vdW  Elec       q    Type
REMARK                         _______ _______ _______ _____ _____    ______ ____
ROOT
ATOM      1  O   UNL     1     -16.091   9.481  30.734  0.00  0.00    -0.377 OA
ATOM      3  N   UNL     1     -15.932   6.638  31.042  0.00  0.00    -0.285 NA
ATOM      8  C   UNL     1     -17.050   7.274  30.300  0.00  0.00    +0.149 C 
ATOM      9  C   UNL     1     -15.382   7.576  32.037  0.00  0.00    +0.113 C 
ATOM     10  C   UNL     1     -16.594   8.623  29.710  0.00  0.00    +0.186 C 
ATOM     12  C   UNL     1     -14.966   8.883  31.375  0.00  0.00    +0.175 C 
ENDROOT
BRANCH   8  13
ATOM      4  N   UNL     1     -16.837   6.042  28.112  0.00  0.00    -0.341 N 
ATOM      5  N   UNL     1     -18.827   5.925  29.090  0.00  0.00    -0.238 NA
ATOM     13  C   UNL     1     -17.608   6.408  29.179  0.00  0.00    +0.127 A 
ATOM     15  C   UNL     1     -17.614   5.277  27.289  0.00  0.00    +0.066 A 
ATOM     16  C   UNL     1     -18.838   5.218  27.913  0.00  0.00    +0.139 A 
ATOM     29  H   UNL     1     -15.866   6.289  27.970  0.00  0.00    +0.167 HD
BRANCH  15  19
ATOM      7  N   UNL     1     -16.217   3.602  23.658  0.00  0.00    -0.263 NA
ATOM     19  C   UNL     1     -17.140   4.708  26.055  0.00  0.00    +0.003 A 
ATOM     23  C   UNL     1     -17.600   5.197  24.837  0.00  0.00    +0.029 A 
ATOM     24  C   UNL     1     -16.219   3.665  26.075  0.00  0.00    +0.029 A 
ATOM     25  C   UNL     1     -17.111   4.616  23.678  0.00  0.00    +0.111 A 
ATOM     26  C   UNL     1     -15.793   3.152  24.861  0.00  0.00    +0.111 A 
ENDBRANCH  15  19
ENDBRANCH   8  13
BRANCH   3  11
ATOM     11  C   UNL     1     -16.350   5.406  31.723  0.00  0.00    +0.120 C 
BRANCH  11  14
ATOM     14  C   UNL     1     -15.570   4.210  31.245  0.00  0.00    -0.033 A 
ATOM     17  C   UNL     1     -14.314   3.935  31.785  0.00  0.00    +0.007 A 
ATOM     18  C   UNL     1     -16.104   3.378  30.261  0.00  0.00    +0.007 A 
ATOM     20  C   UNL     1     -13.592   2.828  31.342  0.00  0.00    +0.023 A 
ATOM     21  C   UNL     1     -15.381   2.270  29.818  0.00  0.00    +0.023 A 
ATOM     22  C   UNL     1     -14.124   1.995  30.358  0.00  0.00    +0.033 A 
BRANCH  22   6
ATOM      2  O   UNL     1     -14.925  -0.898  30.131  0.00  0.00    -0.276 OA
ATOM      6  N   UNL     1     -13.402   0.887  29.915  0.00  0.00    -0.286 N 
ATOM     27  C   UNL     1     -13.826  -0.445  29.831  0.00  0.00    +0.214 C 
ATOM     28  C   UNL     1     -12.739  -1.345  29.297  0.00  0.00    +0.109 C 
ATOM     30  H   UNL     1     -12.448   1.083  29.616  0.00  0.00    +0.155 HD
ENDBRANCH  22   6
ENDBRANCH  11  14
ENDBRANCH   3  11
TORSDOF 5
ENDMDL
MODEL 9
REMARK VINA RESULT:      -5.7      3.024      6.616
REMARK  Name = 71694202
REMARK  6 active torsions:
REMARK  status: ('A' for Active; 'I' for Inactive)
REMARK    1  A    between atoms: N_3  and  C_11
REMARK    2  A    between atoms: N_6  and  C_22
REMARK    3  A    between atoms: C_8  and  C_13
REMARK    4  A    between atoms: C_11  and  C_14
REMARK    5  A    between atoms: C_15  and  C_19
REMARK    6  A    between atoms: C_27  and  C_28
REMARK                            x       y       z     vdW  Elec       q    Type
REMARK                         _______ _______ _______ _____ _____    ______ ____
ROOT
ATOM      1  O   UNL     1     -17.773   7.728  32.733  0.00  0.00    -0.377 OA
ATOM      3  N   UNL     1     -14.990   7.235  33.196  0.00  0.00    -0.285 NA
ATOM      8  C   UNL     1     -16.014   6.187  33.446  0.00  0.00    +0.149 C 
ATOM      9  C   UNL     1     -15.590   8.575  33.324  0.00  0.00    +0.113 C 
ATOM     10  C   UNL     1     -17.239   6.418  32.541  0.00  0.00    +0.186 C 
ATOM     12  C   UNL     1     -16.797   8.716  32.406  0.00  0.00    +0.175 C 
ENDROOT
BRANCH   8  13
ATOM      4  N   UNL     1     -15.675   4.123  32.041  0.00  0.00    -0.341 N 
ATOM      5  N   UNL     1     -14.861   4.024  34.104  0.00  0.00    -0.238 NA
ATOM     13  C   UNL     1     -15.501   4.771  33.232  0.00  0.00    +0.127 A 
ATOM     15  C   UNL     1     -15.111   2.885  32.161  0.00  0.00    +0.066 A 
ATOM     16  C   UNL     1     -14.615   2.847  33.444  0.00  0.00    +0.139 A 
ATOM     29  H   UNL     1     -16.131   4.503  31.221  0.00  0.00    +0.167 HD
BRANCH  15  19
ATOM      7  N   UNL     1     -15.085   0.021  29.041  0.00  0.00    -0.263 NA
ATOM     19  C   UNL     1     -15.101   1.912  31.101  0.00  0.00    +0.003 A 
ATOM     23  C   UNL     1     -14.188   0.864  31.122  0.00  0.00    +0.029 A 
ATOM     24  C   UNL     1     -16.006   2.015  30.050  0.00  0.00    +0.029 A 
ATOM     25  C   UNL     1     -14.221  -0.048  30.080  0.00  0.00    +0.111 A 
ATOM     26  C   UNL     1     -15.958   1.053  29.054  0.00  0.00    +0.111 A 
ENDBRANCH  15  19
ENDBRANCH   8  13
BRANCH   3  11
ATOM     11  C   UNL     1     -13.853   7.128  34.119  0.00  0.00    +0.120 C 
BRANCH  11  14
ATOM     14  C   UNL     1     -12.728   8.050  33.730  0.00  0.00    -0.033 A 
ATOM     17  C   UNL     1     -12.155   8.891  34.684  0.00  0.00    +0.007 A 
ATOM     18  C   UNL     1     -12.259   8.063  32.417  0.00  0.00    +0.007 A 
ATOM     20  C   UNL     1     -11.114   9.746  34.324  0.00  0.00    +0.023 A 
ATOM     21  C   UNL     1     -11.218   8.918  32.057  0.00  0.00    +0.023 A 
ATOM     22  C   UNL     1     -10.645   9.760  33.010  0.00  0.00    +0.033 A 
BRANCH  22   6
ATOM      2  O   UNL     1     -10.707  12.504  31.774  0.00  0.00    -0.276 OA
ATOM      6  N   UNL     1      -9.603  10.615  32.650  0.00  0.00    -0.286 N 
ATOM     27  C   UNL     1      -9.690  11.889  32.074  0.00  0.00    +0.214 C 
ATOM     28  C   UNL     1      -8.326  12.489  31.836  0.00  0.00    +0.109 C 
ATOM     30  H   UNL     1      -8.667  10.260  32.834  0.00  0.00    +0.155 HD
ENDBRANCH  22   6
ENDBRANCH  11  14
ENDBRANCH   3  11
TORSDOF 5
ENDMDL
MODEL 10
REMARK VINA RESULT:      -5.5     19.670     22.040
REMARK  Name = 71694202
REMARK  6 active torsions:
REMARK  status: ('A' for Active; 'I' for Inactive)
REMARK    1  A    between atoms: N_3  and  C_11
REMARK    2  A    between atoms: N_6  and  C_22
REMARK    3  A    between atoms: C_8  and  C_13
REMARK    4  A    between atoms: C_11  and  C_14
REMARK    5  A    between atoms: C_15  and  C_19
REMARK    6  A    between atoms: C_27  and  C_28
REMARK                            x       y       z     vdW  Elec       q    Type
REMARK                         _______ _______ _______ _____ _____    ______ ____
ROOT
ATOM      1  O   UNL     1     -10.145 -14.637  19.589  0.00  0.00    -0.377 OA
ATOM      3  N   UNL     1     -10.314 -11.825  19.071  0.00  0.00    -0.285 NA
ATOM      8  C   UNL     1      -9.095 -12.430  19.668  0.00  0.00    +0.149 C 
ATOM      9  C   UNL     1     -11.497 -12.647  19.385  0.00  0.00    +0.113 C 
ATOM     10  C   UNL     1      -8.971 -13.904  19.238  0.00  0.00    +0.186 C 
ATOM     12  C   UNL     1     -11.287 -14.088  18.937  0.00  0.00    +0.175 C 
ENDROOT
BRANCH   8  13
ATOM      4  N   UNL     1      -7.277 -11.781  18.049  0.00  0.00    -0.341 N 
ATOM      5  N   UNL     1      -7.088 -10.937  20.094  0.00  0.00    -0.238 NA
ATOM     13  C   UNL     1      -7.811 -11.699  19.304  0.00  0.00    +0.127 A 
ATOM     15  C   UNL     1      -6.140 -11.024  18.037  0.00  0.00    +0.066 A 
ATOM     16  C   UNL     1      -6.044 -10.513  19.310  0.00  0.00    +0.139 A 
ATOM     29  H   UNL     1      -7.665 -12.302  17.273  0.00  0.00    +0.167 HD
BRANCH  15  19
ATOM      7  N   UNL     1      -3.674 -10.574  14.624  0.00  0.00    -0.263 NA
ATOM     19  C   UNL     1      -5.301 -10.871  16.878  0.00  0.00    +0.003 A 
ATOM     23  C   UNL     1      -3.929 -11.071  16.976  0.00  0.00    +0.029 A 
ATOM     24  C   UNL     1      -5.860 -10.522  15.653  0.00  0.00    +0.029 A 
ATOM     25  C   UNL     1      -3.166 -10.913  15.830  0.00  0.00    +0.111 A 
ATOM     26  C   UNL     1      -5.011 -10.388  14.566  0.00  0.00    +0.111 A 
ENDBRANCH  15  19
ENDBRANCH   8  13
BRANCH   3  11
ATOM     11  C   UNL     1     -10.541 -10.455  19.546  0.00  0.00    +0.120 C 
BRANCH  11  14
ATOM     14  C   UNL     1     -10.889  -9.521  18.417  0.00  0.00    -0.033 A 
ATOM     17  C   UNL     1      -9.883  -8.803  17.772  0.00  0.00    +0.007 A 
ATOM     18  C   UNL     1     -12.217  -9.375  18.018  0.00  0.00    +0.007 A 
ATOM     20  C   UNL     1     -10.205  -7.937  16.727  0.00  0.00    +0.023 A 
ATOM     21  C   UNL     1     -12.540  -8.509  16.973  0.00  0.00    +0.023 A 
ATOM     22  C   UNL     1     -11.534  -7.789  16.328  0.00  0.00    +0.033 A 
BRANCH  22   6
ATOM      2  O   UNL     1     -12.145  -8.358  13.435  0.00  0.00    -0.276 OA
ATOM      6  N   UNL     1     -11.856  -6.923  15.283  0.00  0.00    -0.286 N 
ATOM     27  C   UNL     1     -12.131  -7.244  13.947  0.00  0.00    +0.214 C 
ATOM     28  C   UNL     1     -12.436  -6.014  13.129  0.00  0.00    +0.109 C 
ATOM     30  H   UNL     1     -11.894  -5.937  15.533  0.00  0.00    +0.155 HD
ENDBRANCH  22   6
ENDBRANCH  11  14
ENDBRANCH   3  11
TORSDOF 5
ENDMDL
