REMARK  Name = 45783697
REMARK  6 active torsions:
REMARK  status: ('A' for Active; 'I' for Inactive)
REMARK    1  A    between atoms: O_2  and  C_24
REMARK    2  A    between atoms: O_2  and  C_25
REMARK    3  A    between atoms: N_3  and  C_8
REMARK    4  A    between atoms: N_4  and  C_18
REMARK    5  A    between atoms: C_9  and  C_17
REMARK    6  A    between atoms: C_19  and  C_20
REMARK                            x       y       z     vdW  Elec       q    Type
REMARK                         _______ _______ _______ _____ _____    ______ ____
ROOT
ATOM      1  O   UNL     1      -0.163  -1.855   1.878  0.00  0.00    -0.336 OA
ATOM      5  N   UNL     1       0.199  -0.975  -0.150  0.00  0.00    -0.190 NA
ATOM      6  N   UNL     1       1.173  -1.432   1.869  0.00  0.00    -0.056 NA
ATOM     17  C   UNL     1      -0.663  -1.549   0.652  0.00  0.00    +0.245 A 
ATOM     19  C   UNL     1       1.310  -0.925   0.640  0.00  0.00    +0.204 A 
ENDROOT
BRANCH  19  20
ATOM      7  N   UNL     1       4.854   0.201   0.604  0.00  0.00    -0.221 NA
ATOM     20  C   UNL     1       2.543  -0.362   0.171  0.00  0.00    +0.041 A 
ATOM     21  C   UNL     1       2.650   0.155  -1.115  0.00  0.00    +0.018 A 
ATOM     22  C   UNL     1       3.664  -0.316   0.984  0.00  0.00    +0.126 A 
ATOM     23  C   UNL     1       3.858   0.696  -1.542  0.00  0.00    +0.068 A 
ATOM     24  C   UNL     1       4.920   0.695  -0.653  0.00  0.00    +0.214 A 
BRANCH  24   2
ATOM      2  O   UNL     1       6.121   1.222  -1.050  0.00  0.00    -0.480 OA
ATOM     25  C   UNL     1       7.178   1.195  -0.098  0.00  0.00    +0.279 C 
ENDBRANCH  24   2
ENDBRANCH  19  20
BRANCH  17   9
ATOM      3  N   UNL     1      -2.752  -1.034  -0.597  0.00  0.00    -0.288 NA
ATOM      9  C   UNL     1      -2.112  -1.909   0.405  0.00  0.00    +0.146 C 
ATOM     10  C   UNL     1      -3.789  -1.838  -1.246  0.00  0.00    +0.085 C 
ATOM     13  C   UNL     1      -2.284  -3.334  -0.153  0.00  0.00    +0.030 C 
ATOM     14  C   UNL     1      -3.083  -3.165  -1.437  0.00  0.00    +0.017 C 
BRANCH   3   8
ATOM      4  N   UNL     1      -3.307   3.123   0.091  0.00  0.00    -0.305 NA
ATOM      8  C   UNL     1      -3.289   0.199  -0.027  0.00  0.00    +0.060 C 
ATOM     11  C   UNL     1      -3.926   1.057  -1.123  0.00  0.00    +0.034 C 
ATOM     12  C   UNL     1      -2.194   0.995   0.689  0.00  0.00    +0.034 C 
ATOM     15  C   UNL     1      -4.406   2.398  -0.561  0.00  0.00    +0.085 C 
ATOM     16  C   UNL     1      -2.730   2.337   1.191  0.00  0.00    +0.085 C 
ATOM     18  C   UNL     1      -3.769   4.422   0.578  0.00  0.00    +0.104 C 
ENDBRANCH   3   8
ENDBRANCH  17   9
TORSDOF 4
