MODEL 1
REMARK VINA RESULT:      -6.9      0.000      0.000
REMARK  Name = 11886128
REMARK  5 active torsions:
REMARK  status: ('A' for Active; 'I' for Inactive)
REMARK    1  A    between atoms: S_1  and  N_8
REMARK    2  A    between atoms: S_1  and  C_19
REMARK    3  A    between atoms: N_7  and  C_14
REMARK    4  A    between atoms: N_8  and  C_15
REMARK    5  A    between atoms: C_18  and  C_20
REMARK                            x       y       z     vdW  Elec       q    Type
REMARK                         _______ _______ _______ _____ _____    ______ ____
ROOT
ATOM      3  O   UNL     1      13.538  10.473  18.024  0.00  0.00    -0.370 OA
ATOM      4  O   UNL     1      12.966   8.430  15.703  0.00  0.00    -0.370 OA
ATOM     12  C   UNL     1      13.920   8.476  16.779  0.00  0.00    +0.175 C 
ATOM     13  C   UNL     1      14.326   9.927  16.955  0.00  0.00    +0.170 C 
ATOM     14  C   UNL     1      13.244   8.104  18.085  0.00  0.00    +0.168 C 
ATOM     15  C   UNL     1      13.954  10.580  15.643  0.00  0.00    +0.133 C 
ATOM     16  C   UNL     1      12.718   9.442  18.593  0.00  0.00    +0.190 C 
ATOM     17  C   UNL     1      12.762   9.756  15.197  0.00  0.00    +0.183 C 
ENDROOT
BRANCH  14   7
ATOM      7  N   UNL     1      14.145   7.402  19.004  0.00  0.00    -0.217 N 
ATOM      9  N   UNL     1      15.334   6.960  18.583  0.00  0.00    -0.043 NA
ATOM     10  N   UNL     1      15.035   6.464  20.736  0.00  0.00    -0.108 NA
ATOM     11  N   UNL     1      15.877   6.386  19.650  0.00  0.00    -0.023 NA
ATOM     18  C   UNL     1      13.967   7.099  20.312  0.00  0.00    +0.182 A 
BRANCH  18  20
ATOM     20  C   UNL     1      12.793   7.430  21.078  0.00  0.00    +0.021 A 
ATOM     22  C   UNL     1      11.685   6.581  21.062  0.00  0.00    +0.011 A 
ATOM     23  C   UNL     1      12.759   8.601  21.836  0.00  0.00    +0.011 A 
ATOM     26  C   UNL     1      10.547   6.902  21.803  0.00  0.00    +0.001 A 
ATOM     27  C   UNL     1      11.622   8.922  22.577  0.00  0.00    +0.001 A 
ATOM     28  C   UNL     1      10.516   8.072  22.561  0.00  0.00    +0.000 A 
ENDBRANCH  18  20
ENDBRANCH  14   7
BRANCH  15   8
ATOM      8  N   UNL     1      15.036  10.493  14.691  0.00  0.00    -0.182 NA
ATOM     29  H   UNL     1      15.667   9.688  14.780  0.00  0.00    +0.149 HD
BRANCH   8   1
ATOM      1  S   UNL     1      15.613  11.901  13.937  0.00  0.00    +0.065 S 
ATOM      5  O   UNL     1      14.758  13.020  14.285  0.00  0.00    -0.153 OA
ATOM      6  O   UNL     1      15.896  11.603  12.547  0.00  0.00    -0.153 OA
BRANCH   1  19
ATOM      2  S   UNL     1      17.073  12.915  16.258  0.00  0.00    -0.077 S 
ATOM     19  C   UNL     1      17.169  12.133  14.742  0.00  0.00    +0.142 A 
ATOM     21  C   UNL     1      18.456  11.811  14.397  0.00  0.00    +0.036 A 
ATOM     24  C   UNL     1      19.389  12.214  15.396  0.00  0.00    +0.010 A 
ATOM     25  C   UNL     1      18.771  12.827  16.463  0.00  0.00    +0.047 A 
ENDBRANCH   1  19
ENDBRANCH   8   1
ENDBRANCH  15   8
TORSDOF 5
ENDMDL
MODEL 2
REMARK VINA RESULT:      -6.9      5.048      8.114
REMARK  Name = 11886128
REMARK  5 active torsions:
REMARK  status: ('A' for Active; 'I' for Inactive)
REMARK    1  A    between atoms: S_1  and  N_8
REMARK    2  A    between atoms: S_1  and  C_19
REMARK    3  A    between atoms: N_7  and  C_14
REMARK    4  A    between atoms: N_8  and  C_15
REMARK    5  A    between atoms: C_18  and  C_20
REMARK                            x       y       z     vdW  Elec       q    Type
REMARK                         _______ _______ _______ _____ _____    ______ ____
ROOT
ATOM      3  O   UNL     1      13.082  11.139  21.460  0.00  0.00    -0.370 OA
ATOM      4  O   UNL     1      15.892   9.879  22.095  0.00  0.00    -0.370 OA
ATOM     12  C   UNL     1      14.549   9.363  22.075  0.00  0.00    +0.175 C 
ATOM     13  C   UNL     1      13.640  10.460  22.596  0.00  0.00    +0.170 C 
ATOM     14  C   UNL     1      14.103   9.141  20.642  0.00  0.00    +0.168 C 
ATOM     15  C   UNL     1      14.567  11.383  23.355  0.00  0.00    +0.133 C 
ATOM     16  C   UNL     1      13.511  10.492  20.254  0.00  0.00    +0.190 C 
ATOM     17  C   UNL     1      15.874  11.220  22.603  0.00  0.00    +0.183 C 
ENDROOT
BRANCH  14   7
ATOM      7  N   UNL     1      13.191   8.003  20.508  0.00  0.00    -0.217 N 
ATOM      9  N   UNL     1      12.864   7.265  21.574  0.00  0.00    -0.043 NA
ATOM     10  N   UNL     1      11.847   6.489  19.748  0.00  0.00    -0.108 NA
ATOM     11  N   UNL     1      12.039   6.338  21.103  0.00  0.00    -0.023 NA
ATOM     18  C   UNL     1      12.572   7.527  19.401  0.00  0.00    +0.182 A 
BRANCH  18  20
ATOM     20  C   UNL     1      12.706   8.089  18.081  0.00  0.00    +0.021 A 
ATOM     22  C   UNL     1      11.617   8.717  17.475  0.00  0.00    +0.011 A 
ATOM     23  C   UNL     1      13.924   8.004  17.405  0.00  0.00    +0.011 A 
ATOM     26  C   UNL     1      11.746   9.260  16.196  0.00  0.00    +0.001 A 
ATOM     27  C   UNL     1      14.052   8.546  16.126  0.00  0.00    +0.001 A 
ATOM     28  C   UNL     1      12.963   9.175  15.522  0.00  0.00    +0.000 A 
ENDBRANCH  18  20
ENDBRANCH  14   7
BRANCH  15   8
ATOM      8  N   UNL     1      14.701  10.973  24.732  0.00  0.00    -0.182 NA
ATOM     29  H   UNL     1      14.509   9.986  24.942  0.00  0.00    +0.149 HD
BRANCH   8   1
ATOM      1  S   UNL     1      14.532  12.117  25.975  0.00  0.00    +0.065 S 
ATOM      5  O   UNL     1      15.441  13.223  25.740  0.00  0.00    -0.153 OA
ATOM      6  O   UNL     1      14.538  11.426  27.250  0.00  0.00    -0.153 OA
BRANCH   1  19
ATOM      2  S   UNL     1      12.680  14.379  25.955  0.00  0.00    -0.077 S 
ATOM     19  C   UNL     1      12.885  12.700  25.712  0.00  0.00    +0.142 A 
ATOM     21  C   UNL     1      11.720  12.076  25.348  0.00  0.00    +0.036 A 
ATOM     24  C   UNL     1      10.632  12.992  25.265  0.00  0.00    +0.010 A 
ATOM     25  C   UNL     1      11.015  14.279  25.571  0.00  0.00    +0.047 A 
ENDBRANCH   1  19
ENDBRANCH   8   1
ENDBRANCH  15   8
TORSDOF 5
ENDMDL
MODEL 3
REMARK VINA RESULT:      -6.8      3.015      4.750
REMARK  Name = 11886128
REMARK  5 active torsions:
REMARK  status: ('A' for Active; 'I' for Inactive)
REMARK    1  A    between atoms: S_1  and  N_8
REMARK    2  A    between atoms: S_1  and  C_19
REMARK    3  A    between atoms: N_7  and  C_14
REMARK    4  A    between atoms: N_8  and  C_15
REMARK    5  A    between atoms: C_18  and  C_20
REMARK                            x       y       z     vdW  Elec       q    Type
REMARK                         _______ _______ _______ _____ _____    ______ ____
ROOT
ATOM      3  O   UNL     1      13.562   8.060  16.750  0.00  0.00    -0.370 OA
ATOM      4  O   UNL     1      14.318  11.016  17.511  0.00  0.00    -0.370 OA
ATOM     12  C   UNL     1      13.184  10.175  17.784  0.00  0.00    +0.175 C 
ATOM     13  C   UNL     1      12.938   9.337  16.543  0.00  0.00    +0.170 C 
ATOM     14  C   UNL     1      13.534   9.170  18.865  0.00  0.00    +0.168 C 
ATOM     15  C   UNL     1      13.643  10.092  15.439  0.00  0.00    +0.133 C 
ATOM     16  C   UNL     1      14.114   8.003  18.073  0.00  0.00    +0.190 C 
ATOM     17  C   UNL     1      14.786  10.759  16.180  0.00  0.00    +0.183 C 
ENDROOT
BRANCH  14   7
ATOM      7  N   UNL     1      12.387   8.834  19.713  0.00  0.00    -0.217 N 
ATOM      9  N   UNL     1      11.635   7.762  19.445  0.00  0.00    -0.043 NA
ATOM     10  N   UNL     1      10.867   8.820  21.250  0.00  0.00    -0.108 NA
ATOM     11  N   UNL     1      10.704   7.757  20.391  0.00  0.00    -0.023 NA
ATOM     18  C   UNL     1      11.916   9.474  20.810  0.00  0.00    +0.182 A 
BRANCH  18  20
ATOM     20  C   UNL     1      12.493  10.668  21.373  0.00  0.00    +0.021 A 
ATOM     22  C   UNL     1      13.508  10.572  22.327  0.00  0.00    +0.011 A 
ATOM     23  C   UNL     1      12.037  11.924  20.969  0.00  0.00    +0.011 A 
ATOM     26  C   UNL     1      14.066  11.727  22.873  0.00  0.00    +0.001 A 
ATOM     27  C   UNL     1      12.595  13.079  21.516  0.00  0.00    +0.001 A 
ATOM     28  C   UNL     1      13.610  12.981  22.468  0.00  0.00    +0.000 A 
ENDBRANCH  18  20
ENDBRANCH  14   7
BRANCH  15   8
ATOM      8  N   UNL     1      12.770  11.069  14.834  0.00  0.00    -0.182 NA
ATOM     29  H   UNL     1      11.765  10.860  14.842  0.00  0.00    +0.149 HD
BRANCH   8   1
ATOM      1  S   UNL     1      13.373  12.120  13.644  0.00  0.00    +0.065 S 
ATOM      5  O   UNL     1      14.499  11.495  12.975  0.00  0.00    -0.153 OA
ATOM      6  O   UNL     1      13.509  13.445  14.216  0.00  0.00    -0.153 OA
BRANCH   1  19
ATOM      2  S   UNL     1      12.489  12.473  10.880  0.00  0.00    -0.077 S 
ATOM     19  C   UNL     1      12.028  12.186  12.501  0.00  0.00    +0.142 A 
ATOM     21  C   UNL     1      10.671  12.053  12.646  0.00  0.00    +0.036 A 
ATOM     24  C   UNL     1       9.990  12.189  11.402  0.00  0.00    +0.010 A 
ATOM     25  C   UNL     1      10.859  12.420  10.359  0.00  0.00    +0.047 A 
ENDBRANCH   1  19
ENDBRANCH   8   1
ENDBRANCH  15   8
TORSDOF 5
ENDMDL
MODEL 4
REMARK VINA RESULT:      -6.7      3.937      6.762
REMARK  Name = 11886128
REMARK  5 active torsions:
REMARK  status: ('A' for Active; 'I' for Inactive)
REMARK    1  A    between atoms: S_1  and  N_8
REMARK    2  A    between atoms: S_1  and  C_19
REMARK    3  A    between atoms: N_7  and  C_14
REMARK    4  A    between atoms: N_8  and  C_15
REMARK    5  A    between atoms: C_18  and  C_20
REMARK                            x       y       z     vdW  Elec       q    Type
REMARK                         _______ _______ _______ _____ _____    ______ ____
ROOT
ATOM      3  O   UNL     1      13.435  11.731  18.193  0.00  0.00    -0.370 OA
ATOM      4  O   UNL     1      16.032  11.225  19.894  0.00  0.00    -0.370 OA
ATOM     12  C   UNL     1      14.739  10.596  19.836  0.00  0.00    +0.175 C 
ATOM     13  C   UNL     1      13.717  11.694  19.601  0.00  0.00    +0.170 C 
ATOM     14  C   UNL     1      14.647   9.715  18.605  0.00  0.00    +0.168 C 
ATOM     15  C   UNL     1      14.426  12.960  20.027  0.00  0.00    +0.133 C 
ATOM     16  C   UNL     1      14.146  10.675  17.532  0.00  0.00    +0.190 C 
ATOM     17  C   UNL     1      15.876  12.640  19.718  0.00  0.00    +0.183 C 
ENDROOT
BRANCH  14   7
ATOM      7  N   UNL     1      13.808   8.534  18.821  0.00  0.00    -0.217 N 
ATOM      9  N   UNL     1      12.494   8.580  18.575  0.00  0.00    -0.043 NA
ATOM     10  N   UNL     1      13.080   6.556  19.304  0.00  0.00    -0.108 NA
ATOM     11  N   UNL     1      12.053   7.363  18.872  0.00  0.00    -0.023 NA
ATOM     18  C   UNL     1      14.159   7.303  19.264  0.00  0.00    +0.182 A 
BRANCH  18  20
ATOM     20  C   UNL     1      15.498   6.912  19.622  0.00  0.00    +0.021 A 
ATOM     22  C   UNL     1      16.011   7.243  20.878  0.00  0.00    +0.011 A 
ATOM     23  C   UNL     1      16.287   6.203  18.715  0.00  0.00    +0.011 A 
ATOM     26  C   UNL     1      17.309   6.867  21.225  0.00  0.00    +0.001 A 
ATOM     27  C   UNL     1      17.585   5.826  19.062  0.00  0.00    +0.001 A 
ATOM     28  C   UNL     1      18.095   6.158  20.318  0.00  0.00    +0.000 A 
ENDBRANCH  18  20
ENDBRANCH  14   7
BRANCH  15   8
ATOM      8  N   UNL     1      14.236  13.217  21.435  0.00  0.00    -0.182 NA
ATOM     29  H   UNL     1      14.745  12.610  22.089  0.00  0.00    +0.149 HD
BRANCH   8   1
ATOM      1  S   UNL     1      12.818  13.983  21.970  0.00  0.00    +0.065 S 
ATOM      5  O   UNL     1      11.974  14.286  20.830  0.00  0.00    -0.153 OA
ATOM      6  O   UNL     1      13.178  15.027  22.909  0.00  0.00    -0.153 OA
BRANCH   1  19
ATOM      2  S   UNL     1      12.098  12.914  24.593  0.00  0.00    -0.077 S 
ATOM     19  C   UNL     1      12.038  12.699  22.900  0.00  0.00    +0.142 A 
ATOM     21  C   UNL     1      11.385  11.549  22.538  0.00  0.00    +0.036 A 
ATOM     24  C   UNL     1      10.921  10.824  23.674  0.00  0.00    +0.010 A 
ATOM     25  C   UNL     1      11.241  11.455  24.856  0.00  0.00    +0.047 A 
ENDBRANCH   1  19
ENDBRANCH   8   1
ENDBRANCH  15   8
TORSDOF 5
ENDMDL
MODEL 5
REMARK VINA RESULT:      -6.6     11.441     14.665
REMARK  Name = 11886128
REMARK  5 active torsions:
REMARK  status: ('A' for Active; 'I' for Inactive)
REMARK    1  A    between atoms: S_1  and  N_8
REMARK    2  A    between atoms: S_1  and  C_19
REMARK    3  A    between atoms: N_7  and  C_14
REMARK    4  A    between atoms: N_8  and  C_15
REMARK    5  A    between atoms: C_18  and  C_20
REMARK                            x       y       z     vdW  Elec       q    Type
REMARK                         _______ _______ _______ _____ _____    ______ ____
ROOT
ATOM      3  O   UNL     1      13.667   9.324   4.681  0.00  0.00    -0.370 OA
ATOM      4  O   UNL     1      14.738   7.060   6.584  0.00  0.00    -0.370 OA
ATOM     12  C   UNL     1      14.902   7.347   5.184  0.00  0.00    +0.175 C 
ATOM     13  C   UNL     1      13.579   7.890   4.680  0.00  0.00    +0.170 C 
ATOM     14  C   UNL     1      15.882   8.490   5.002  0.00  0.00    +0.168 C 
ATOM     15  C   UNL     1      12.570   7.427   5.706  0.00  0.00    +0.133 C 
ATOM     16  C   UNL     1      14.988   9.723   5.074  0.00  0.00    +0.190 C 
ATOM     17  C   UNL     1      13.397   7.383   6.977  0.00  0.00    +0.183 C 
ENDROOT
BRANCH  14   7
ATOM      7  N   UNL     1      16.670   8.365   3.773  0.00  0.00    -0.217 N 
ATOM      9  N   UNL     1      16.069   8.376   2.578  0.00  0.00    -0.043 NA
ATOM     10  N   UNL     1      18.275   8.152   2.341  0.00  0.00    -0.108 NA
ATOM     11  N   UNL     1      17.059   8.245   1.703  0.00  0.00    -0.023 NA
ATOM     18  C   UNL     1      18.009   8.229   3.624  0.00  0.00    +0.182 A 
BRANCH  18  20
ATOM     20  C   UNL     1      18.954   8.180   4.710  0.00  0.00    +0.021 A 
ATOM     22  C   UNL     1      18.721   8.914   5.874  0.00  0.00    +0.011 A 
ATOM     23  C   UNL     1      20.107   7.401   4.600  0.00  0.00    +0.011 A 
ATOM     26  C   UNL     1      19.636   8.868   6.925  0.00  0.00    +0.001 A 
ATOM     27  C   UNL     1      21.023   7.355   5.651  0.00  0.00    +0.001 A 
ATOM     28  C   UNL     1      20.787   8.089   6.814  0.00  0.00    +0.000 A 
ENDBRANCH  18  20
ENDBRANCH  14   7
BRANCH  15   8
ATOM      8  N   UNL     1      12.050   6.122   5.376  0.00  0.00    -0.182 NA
ATOM     29  H   UNL     1      12.672   5.494   4.851  0.00  0.00    +0.149 HD
BRANCH   8   1
ATOM      1  S   UNL     1      10.372   5.883   5.265  0.00  0.00    +0.065 S 
ATOM      5  O   UNL     1      10.101   4.772   4.372  0.00  0.00    -0.153 OA
ATOM      6  O   UNL     1       9.731   7.165   5.051  0.00  0.00    -0.153 OA
BRANCH   1  19
ATOM      2  S   UNL     1       9.514   6.645   7.954  0.00  0.00    -0.077 S 
ATOM     19  C   UNL     1       9.968   5.372   6.908  0.00  0.00    +0.142 A 
ATOM     21  C   UNL     1       9.941   4.149   7.526  0.00  0.00    +0.036 A 
ATOM     24  C   UNL     1       9.541   4.253   8.890  0.00  0.00    +0.010 A 
ATOM     25  C   UNL     1       9.278   5.555   9.253  0.00  0.00    +0.047 A 
ENDBRANCH   1  19
ENDBRANCH   8   1
ENDBRANCH  15   8
TORSDOF 5
ENDMDL
MODEL 6
REMARK VINA RESULT:      -6.6     27.691     30.083
REMARK  Name = 11886128
REMARK  5 active torsions:
REMARK  status: ('A' for Active; 'I' for Inactive)
REMARK    1  A    between atoms: S_1  and  N_8
REMARK    2  A    between atoms: S_1  and  C_19
REMARK    3  A    between atoms: N_7  and  C_14
REMARK    4  A    between atoms: N_8  and  C_15
REMARK    5  A    between atoms: C_18  and  C_20
REMARK                            x       y       z     vdW  Elec       q    Type
REMARK                         _______ _______ _______ _____ _____    ______ ____
ROOT
ATOM      3  O   UNL     1      -5.755 -12.652  14.994  0.00  0.00    -0.370 OA
ATOM      4  O   UNL     1      -7.091  -9.823  14.671  0.00  0.00    -0.370 OA
ATOM     12  C   UNL     1      -5.737 -10.271  14.862  0.00  0.00    +0.175 C 
ATOM     13  C   UNL     1      -5.787 -11.463  15.799  0.00  0.00    +0.170 C 
ATOM     14  C   UNL     1      -5.188 -10.827  13.561  0.00  0.00    +0.168 C 
ATOM     15  C   UNL     1      -7.126 -11.336  16.492  0.00  0.00    +0.133 C 
ATOM     16  C   UNL     1      -5.602 -12.294  13.613  0.00  0.00    +0.190 C 
ATOM     17  C   UNL     1      -7.974 -10.655  15.435  0.00  0.00    +0.183 C 
ENDROOT
BRANCH  14   7
ATOM      7  N   UNL     1      -3.749 -10.594  13.414  0.00  0.00    -0.217 N 
ATOM      9  N   UNL     1      -2.955 -10.545  14.488  0.00  0.00    -0.043 NA
ATOM     10  N   UNL     1      -1.768 -10.232  12.627  0.00  0.00    -0.108 NA
ATOM     11  N   UNL     1      -1.741 -10.322  14.000  0.00  0.00    -0.023 NA
ATOM     18  C   UNL     1      -3.024 -10.403  12.286  0.00  0.00    +0.182 A 
BRANCH  18  20
ATOM     20  C   UNL     1      -3.569 -10.395  10.952  0.00  0.00    +0.021 A 
ATOM     22  C   UNL     1      -3.843  -9.183  10.316  0.00  0.00    +0.011 A 
ATOM     23  C   UNL     1      -3.827 -11.599  10.294  0.00  0.00    +0.011 A 
ATOM     26  C   UNL     1      -4.373  -9.175   9.025  0.00  0.00    +0.001 A 
ATOM     27  C   UNL     1      -4.356 -11.590   9.003  0.00  0.00    +0.001 A 
ATOM     28  C   UNL     1      -4.629 -10.378   8.369  0.00  0.00    +0.000 A 
ENDBRANCH  18  20
ENDBRANCH  14   7
BRANCH  15   8
ATOM      8  N   UNL     1      -7.023 -10.526  17.682  0.00  0.00    -0.182 NA
ATOM     29  H   UNL     1      -6.680  -9.566  17.561  0.00  0.00    +0.149 HD
BRANCH   8   1
ATOM      1  S   UNL     1      -6.840 -11.270  19.197  0.00  0.00    +0.065 S 
ATOM      5  O   UNL     1      -6.353 -10.297  20.156  0.00  0.00    -0.153 OA
ATOM      6  O   UNL     1      -6.145 -12.530  19.018  0.00  0.00    -0.153 OA
BRANCH   1  19
ATOM      2  S   UNL     1      -8.789 -13.307  19.972  0.00  0.00    -0.077 S 
ATOM     19  C   UNL     1      -8.512 -11.659  19.617  0.00  0.00    +0.142 A 
ATOM     21  C   UNL     1      -9.650 -10.900  19.719  0.00  0.00    +0.036 A 
ATOM     24  C   UNL     1     -10.777 -11.686  20.097  0.00  0.00    +0.010 A 
ATOM     25  C   UNL     1     -10.450 -13.012  20.267  0.00  0.00    +0.047 A 
ENDBRANCH   1  19
ENDBRANCH   8   1
ENDBRANCH  15   8
TORSDOF 5
ENDMDL
MODEL 7
REMARK VINA RESULT:      -6.5     27.098     29.163
REMARK  Name = 11886128
REMARK  5 active torsions:
REMARK  status: ('A' for Active; 'I' for Inactive)
REMARK    1  A    between atoms: S_1  and  N_8
REMARK    2  A    between atoms: S_1  and  C_19
REMARK    3  A    between atoms: N_7  and  C_14
REMARK    4  A    between atoms: N_8  and  C_15
REMARK    5  A    between atoms: C_18  and  C_20
REMARK                            x       y       z     vdW  Elec       q    Type
REMARK                         _______ _______ _______ _____ _____    ______ ____
ROOT
ATOM      3  O   UNL     1      -4.767 -11.701  18.831  0.00  0.00    -0.370 OA
ATOM      4  O   UNL     1      -5.391  -9.701  16.485  0.00  0.00    -0.370 OA
ATOM     12  C   UNL     1      -6.065 -10.855  17.019  0.00  0.00    +0.175 C 
ATOM     13  C   UNL     1      -4.995 -11.852  17.421  0.00  0.00    +0.170 C 
ATOM     14  C   UNL     1      -6.762 -10.492  18.316  0.00  0.00    +0.168 C 
ATOM     15  C   UNL     1      -3.772 -11.421  16.643  0.00  0.00    +0.133 C 
ATOM     16  C   UNL     1      -5.680 -10.732  19.365  0.00  0.00    +0.190 C 
ATOM     17  C   UNL     1      -3.975  -9.923  16.524  0.00  0.00    +0.183 C 
ENDROOT
BRANCH  14   7
ATOM      7  N   UNL     1      -8.000 -11.248  18.519  0.00  0.00    -0.217 N 
ATOM      9  N   UNL     1      -8.000 -12.371  19.245  0.00  0.00    -0.043 NA
ATOM     10  N   UNL     1     -10.050 -11.934  18.488  0.00  0.00    -0.108 NA
ATOM     11  N   UNL     1      -9.260 -12.787  19.223  0.00  0.00    -0.023 NA
ATOM     18  C   UNL     1      -9.248 -10.987  18.061  0.00  0.00    +0.182 A 
BRANCH  18  20
ATOM     20  C   UNL     1      -9.601  -9.853  17.246  0.00  0.00    +0.021 A 
ATOM     22  C   UNL     1      -9.427  -9.905  15.862  0.00  0.00    +0.011 A 
ATOM     23  C   UNL     1     -10.115  -8.698  17.838  0.00  0.00    +0.011 A 
ATOM     26  C   UNL     1      -9.768  -8.807  15.072  0.00  0.00    +0.001 A 
ATOM     27  C   UNL     1     -10.455  -7.600  17.048  0.00  0.00    +0.001 A 
ATOM     28  C   UNL     1     -10.282  -7.655  15.664  0.00  0.00    +0.000 A 
ENDBRANCH  18  20
ENDBRANCH  14   7
BRANCH  15   8
ATOM      8  N   UNL     1      -3.732 -12.049  15.344  0.00  0.00    -0.182 NA
ATOM     29  H   UNL     1      -4.460 -12.745  15.143  0.00  0.00    +0.149 HD
BRANCH   8   1
ATOM      1  S   UNL     1      -2.265 -12.135  14.492  0.00  0.00    +0.065 S 
ATOM      5  O   UNL     1      -2.035 -13.503  14.067  0.00  0.00    -0.153 OA
ATOM      6  O   UNL     1      -1.248 -11.422  15.240  0.00  0.00    -0.153 OA
BRANCH   1  19
ATOM      2  S   UNL     1      -4.278 -10.824  12.827  0.00  0.00    -0.077 S 
ATOM     19  C   UNL     1      -2.621 -11.171  13.055  0.00  0.00    +0.142 A 
ATOM     21  C   UNL     1      -1.831 -10.635  12.071  0.00  0.00    +0.036 A 
ATOM     24  C   UNL     1      -2.599  -9.923  11.105  0.00  0.00    +0.010 A 
ATOM     25  C   UNL     1      -3.945  -9.946  11.395  0.00  0.00    +0.047 A 
ENDBRANCH   1  19
ENDBRANCH   8   1
ENDBRANCH  15   8
TORSDOF 5
ENDMDL
MODEL 8
REMARK VINA RESULT:      -6.5      5.033      7.896
REMARK  Name = 11886128
REMARK  5 active torsions:
REMARK  status: ('A' for Active; 'I' for Inactive)
REMARK    1  A    between atoms: S_1  and  N_8
REMARK    2  A    between atoms: S_1  and  C_19
REMARK    3  A    between atoms: N_7  and  C_14
REMARK    4  A    between atoms: N_8  and  C_15
REMARK    5  A    between atoms: C_18  and  C_20
REMARK                            x       y       z     vdW  Elec       q    Type
REMARK                         _______ _______ _______ _____ _____    ______ ____
ROOT
ATOM      3  O   UNL     1      16.978   5.600  20.119  0.00  0.00    -0.370 OA
ATOM      4  O   UNL     1      16.079   8.611  20.232  0.00  0.00    -0.370 OA
ATOM     12  C   UNL     1      16.762   7.740  21.150  0.00  0.00    +0.175 C 
ATOM     13  C   UNL     1      16.143   6.362  21.005  0.00  0.00    +0.170 C 
ATOM     14  C   UNL     1      18.204   7.561  20.716  0.00  0.00    +0.168 C 
ATOM     15  C   UNL     1      14.799   6.624  20.361  0.00  0.00    +0.133 C 
ATOM     16  C   UNL     1      18.131   6.375  19.759  0.00  0.00    +0.190 C 
ATOM     17  C   UNL     1      15.072   7.865  19.535  0.00  0.00    +0.183 C 
ENDROOT
BRANCH  14   7
ATOM      7  N   UNL     1      19.115   7.388  21.850  0.00  0.00    -0.217 N 
ATOM      9  N   UNL     1      19.270   6.188  22.419  0.00  0.00    -0.043 NA
ATOM     10  N   UNL     1      20.544   7.705  23.442  0.00  0.00    -0.108 NA
ATOM     11  N   UNL     1      20.147   6.388  23.395  0.00  0.00    -0.023 NA
ATOM     18  C   UNL     1      19.891   8.306  22.474  0.00  0.00    +0.182 A 
BRANCH  18  20
ATOM     20  C   UNL     1      19.964   9.699  22.113  0.00  0.00    +0.021 A 
ATOM     22  C   UNL     1      20.929  10.136  21.205  0.00  0.00    +0.011 A 
ATOM     23  C   UNL     1      19.072  10.615  22.673  0.00  0.00    +0.011 A 
ATOM     26  C   UNL     1      21.002  11.485  20.856  0.00  0.00    +0.001 A 
ATOM     27  C   UNL     1      19.144  11.964  22.324  0.00  0.00    +0.001 A 
ATOM     28  C   UNL     1      20.109  12.399  21.415  0.00  0.00    +0.000 A 
ENDBRANCH  18  20
ENDBRANCH  14   7
BRANCH  15   8
ATOM      8  N   UNL     1      13.783   6.870  21.356  0.00  0.00    -0.182 NA
ATOM     29  H   UNL     1      13.988   6.561  22.314  0.00  0.00    +0.149 HD
BRANCH   8   1
ATOM      1  S   UNL     1      12.160   7.034  20.884  0.00  0.00    +0.065 S 
ATOM      5  O   UNL     1      11.320   6.247  21.766  0.00  0.00    -0.153 OA
ATOM      6  O   UNL     1      12.072   6.863  19.447  0.00  0.00    -0.153 OA
BRANCH   1  19
ATOM      2  S   UNL     1      10.976   9.035  22.656  0.00  0.00    -0.077 S 
ATOM     19  C   UNL     1      11.854   8.742  21.220  0.00  0.00    +0.142 A 
ATOM     21  C   UNL     1      12.180   9.897  20.558  0.00  0.00    +0.036 A 
ATOM     24  C   UNL     1      11.700  11.052  21.241  0.00  0.00    +0.010 A 
ATOM     25  C   UNL     1      11.027  10.726  22.397  0.00  0.00    +0.047 A 
ENDBRANCH   1  19
ENDBRANCH   8   1
ENDBRANCH  15   8
TORSDOF 5
ENDMDL
MODEL 9
REMARK VINA RESULT:      -6.4      2.963      4.639
REMARK  Name = 11886128
REMARK  5 active torsions:
REMARK  status: ('A' for Active; 'I' for Inactive)
REMARK    1  A    between atoms: S_1  and  N_8
REMARK    2  A    between atoms: S_1  and  C_19
REMARK    3  A    between atoms: N_7  and  C_14
REMARK    4  A    between atoms: N_8  and  C_15
REMARK    5  A    between atoms: C_18  and  C_20
REMARK                            x       y       z     vdW  Elec       q    Type
REMARK                         _______ _______ _______ _____ _____    ______ ____
ROOT
ATOM      3  O   UNL     1      14.877   9.896  14.524  0.00  0.00    -0.370 OA
ATOM      4  O   UNL     1      14.998  11.555  17.193  0.00  0.00    -0.370 OA
ATOM     12  C   UNL     1      13.925  11.003  16.409  0.00  0.00    +0.175 C 
ATOM     13  C   UNL     1      14.316  11.147  14.950  0.00  0.00    +0.170 C 
ATOM     14  C   UNL     1      13.835   9.507  16.638  0.00  0.00    +0.168 C 
ATOM     15  C   UNL     1      15.378  12.223  14.954  0.00  0.00    +0.133 C 
ATOM     16  C   UNL     1      14.791   8.942  15.593  0.00  0.00    +0.190 C 
ATOM     17  C   UNL     1      16.023  12.039  16.314  0.00  0.00    +0.183 C 
ENDROOT
BRANCH  14   7
ATOM      7  N   UNL     1      12.460   9.007  16.556  0.00  0.00    -0.217 N 
ATOM      9  N   UNL     1      11.786   9.061  15.403  0.00  0.00    -0.043 NA
ATOM     10  N   UNL     1      10.524   8.155  17.001  0.00  0.00    -0.108 NA
ATOM     11  N   UNL     1      10.599   8.536  15.681  0.00  0.00    -0.023 NA
ATOM     18  C   UNL     1      11.690   8.456  17.524  0.00  0.00    +0.182 A 
BRANCH  18  20
ATOM     20  C   UNL     1      12.108   8.251  18.887  0.00  0.00    +0.021 A 
ATOM     22  C   UNL     1      11.858   9.229  19.851  0.00  0.00    +0.011 A 
ATOM     23  C   UNL     1      12.768   7.074  19.247  0.00  0.00    +0.011 A 
ATOM     26  C   UNL     1      12.265   9.032  21.170  0.00  0.00    +0.001 A 
ATOM     27  C   UNL     1      13.174   6.877  20.567  0.00  0.00    +0.001 A 
ATOM     28  C   UNL     1      12.922   7.855  21.529  0.00  0.00    +0.000 A 
ENDBRANCH  18  20
ENDBRANCH  14   7
BRANCH  15   8
ATOM      8  N   UNL     1      14.792  13.536  14.826  0.00  0.00    -0.182 NA
ATOM     29  H   UNL     1      14.245  13.879  15.625  0.00  0.00    +0.149 HD
BRANCH   8   1
ATOM      1  S   UNL     1      14.467  14.171  13.285  0.00  0.00    +0.065 S 
ATOM      5  O   UNL     1      14.987  13.270  12.274  0.00  0.00    -0.153 OA
ATOM      6  O   UNL     1      14.833  15.574  13.271  0.00  0.00    -0.153 OA
BRANCH   1  19
ATOM      2  S   UNL     1      12.078  12.763  12.361  0.00  0.00    -0.077 S 
ATOM     19  C   UNL     1      12.703  14.098  13.226  0.00  0.00    +0.142 A 
ATOM     21  C   UNL     1      11.717  14.901  13.738  0.00  0.00    +0.036 A 
ATOM     24  C   UNL     1      10.417  14.414  13.415  0.00  0.00    +0.010 A 
ATOM     25  C   UNL     1      10.468  13.258  12.670  0.00  0.00    +0.047 A 
ENDBRANCH   1  19
ENDBRANCH   8   1
ENDBRANCH  15   8
TORSDOF 5
ENDMDL
MODEL 10
REMARK VINA RESULT:      -6.3     27.147     29.587
REMARK  Name = 11886128
REMARK  5 active torsions:
REMARK  status: ('A' for Active; 'I' for Inactive)
REMARK    1  A    between atoms: S_1  and  N_8
REMARK    2  A    between atoms: S_1  and  C_19
REMARK    3  A    between atoms: N_7  and  C_14
REMARK    4  A    between atoms: N_8  and  C_15
REMARK    5  A    between atoms: C_18  and  C_20
REMARK                            x       y       z     vdW  Elec       q    Type
REMARK                         _______ _______ _______ _____ _____    ______ ____
ROOT
ATOM      3  O   UNL     1      -6.626 -11.373   9.362  0.00  0.00    -0.370 OA
ATOM      4  O   UNL     1      -7.238  -8.796  11.058  0.00  0.00    -0.370 OA
ATOM     12  C   UNL     1      -6.709  -9.020   9.739  0.00  0.00    +0.175 C 
ATOM     13  C   UNL     1      -5.837 -10.259   9.810  0.00  0.00    +0.170 C 
ATOM     14  C   UNL     1      -7.831  -9.392   8.788  0.00  0.00    +0.168 C 
ATOM     15  C   UNL     1      -5.515 -10.404  11.281  0.00  0.00    +0.133 C 
ATOM     16  C   UNL     1      -7.914 -10.908   8.932  0.00  0.00    +0.190 C 
ATOM     17  C   UNL     1      -6.744  -9.811  11.942  0.00  0.00    +0.183 C 
ENDROOT
BRANCH  14   7
ATOM      7  N   UNL     1      -7.595  -8.910   7.425  0.00  0.00    -0.217 N 
ATOM      9  N   UNL     1      -6.767  -9.567   6.606  0.00  0.00    -0.043 NA
ATOM     10  N   UNL     1      -7.621  -7.780   5.582  0.00  0.00    -0.108 NA
ATOM     11  N   UNL     1      -6.787  -8.870   5.476  0.00  0.00    -0.023 NA
ATOM     18  C   UNL     1      -8.111  -7.826   6.799  0.00  0.00    +0.182 A 
BRANCH  18  20
ATOM     20  C   UNL     1      -9.038  -6.898   7.395  0.00  0.00    +0.021 A 
ATOM     22  C   UNL     1     -10.412  -7.094   7.253  0.00  0.00    +0.011 A 
ATOM     23  C   UNL     1      -8.564  -5.799   8.114  0.00  0.00    +0.011 A 
ATOM     26  C   UNL     1     -11.311  -6.196   7.829  0.00  0.00    +0.001 A 
ATOM     27  C   UNL     1      -9.462  -4.901   8.690  0.00  0.00    +0.001 A 
ATOM     28  C   UNL     1     -10.836  -5.099   8.547  0.00  0.00    +0.000 A 
ENDBRANCH  18  20
ENDBRANCH  14   7
BRANCH  15   8
ATOM      8  N   UNL     1      -4.325  -9.666  11.630  0.00  0.00    -0.182 NA
ATOM     29  H   UNL     1      -4.332  -8.657  11.436  0.00  0.00    +0.149 HD
BRANCH   8   1
ATOM      1  S   UNL     1      -2.830 -10.465  11.723  0.00  0.00    +0.065 S 
ATOM      5  O   UNL     1      -1.799  -9.629  11.139  0.00  0.00    -0.153 OA
ATOM      6  O   UNL     1      -3.003 -11.833  11.274  0.00  0.00    -0.153 OA
BRANCH   1  19
ATOM      2  S   UNL     1      -3.840 -11.218  14.362  0.00  0.00    -0.077 S 
ATOM     19  C   UNL     1      -2.558 -10.527  13.468  0.00  0.00    +0.142 A 
ATOM     21  C   UNL     1      -1.515 -10.129  14.265  0.00  0.00    +0.036 A 
ATOM     24  C   UNL     1      -1.771 -10.396  15.642  0.00  0.00    +0.010 A 
ATOM     25  C   UNL     1      -2.999 -10.987  15.835  0.00  0.00    +0.047 A 
ENDBRANCH   1  19
ENDBRANCH   8   1
ENDBRANCH  15   8
TORSDOF 5
ENDMDL
