REMARK  Name = 7051765
REMARK  2 active torsions:
REMARK  status: ('A' for Active; 'I' for Inactive)
REMARK    1  A    between atoms: N_5  and  C_22
REMARK    2  A    between atoms: C_14  and  C_19
REMARK                            x       y       z     vdW  Elec       q    Type
REMARK                         _______ _______ _______ _____ _____    ______ ____
ROOT
ATOM      1  O   UNL     1       0.809  -2.350   3.057  0.00  0.00    -0.268 OA
ATOM      2  O   UNL     1       2.712  -1.790  -1.433  0.00  0.00    -0.252 OA
ATOM      3  N   UNL     1      -0.486  -1.842   1.173  0.00  0.00    -0.311 N 
ATOM      4  N   UNL     1       0.436  -1.650  -1.829  0.00  0.00    -0.284 N 
ATOM      5  N   UNL     1       1.708   0.299  -1.443  0.00  0.00    -0.269 N 
ATOM      7  C   UNL     1      -0.784  -3.522  -0.738  0.00  0.00    +0.027 C 
ATOM      8  C   UNL     1      -1.828  -1.298  -0.887  0.00  0.00    +0.054 C 
ATOM      9  C   UNL     1      -2.103  -2.800  -0.974  0.00  0.00    +0.018 C 
ATOM     10  C   UNL     1      -0.322  -3.219   0.688  0.00  0.00    +0.130 C 
ATOM     11  C   UNL     1       0.263  -3.104  -1.787  0.00  0.00    +0.114 C 
ATOM     12  C   UNL     1      -0.822  -0.904  -1.992  0.00  0.00    +0.119 C 
ATOM     13  C   UNL     1      -1.283  -0.900   0.490  0.00  0.00    +0.034 A 
ATOM     14  C   UNL     1      -1.507   0.322   1.041  0.00  0.00    +0.004 A 
ATOM     15  C   UNL     1       0.117  -1.562   2.412  0.00  0.00    +0.252 A 
ATOM     16  C   UNL     1       1.703  -1.091  -1.555  0.00  0.00    +0.306 C 
ATOM     17  C   UNL     1      -0.899   0.646   2.317  0.00  0.00    +0.015 A 
ATOM     18  C   UNL     1      -0.122  -0.214   2.975  0.00  0.00    +0.071 A 
ATOM     30  H   UNL     1       1.013   0.830  -1.953  0.00  0.00    +0.156 HD
ENDROOT
BRANCH  14  19
ATOM      6  N   UNL     1      -4.497   2.341   0.013  0.00  0.00    -0.263 NA
ATOM     19  C   UNL     1      -2.331   1.345   0.361  0.00  0.00    +0.002 A 
ATOM     20  C   UNL     1      -1.757   2.240  -0.528  0.00  0.00    +0.011 A 
ATOM     21  C   UNL     1      -3.688   1.431   0.600  0.00  0.00    +0.119 A 
ATOM     23  C   UNL     1      -2.557   3.191  -1.151  0.00  0.00    +0.020 A 
ATOM     24  C   UNL     1      -3.909   3.200  -0.850  0.00  0.00    +0.111 A 
ENDBRANCH  14  19
BRANCH   5  22
ATOM     22  C   UNL     1       2.625   1.093  -0.712  0.00  0.00    +0.035 A 
ATOM     25  C   UNL     1       2.537   2.481  -0.770  0.00  0.00    +0.023 A 
ATOM     26  C   UNL     1       3.607   0.480   0.061  0.00  0.00    +0.023 A 
ATOM     27  C   UNL     1       3.439   3.263  -0.049  0.00  0.00    +0.002 A 
ATOM     28  C   UNL     1       4.509   1.262   0.782  0.00  0.00    +0.002 A 
ATOM     29  C   UNL     1       4.425   2.654   0.727  0.00  0.00    +0.000 A 
ENDBRANCH   5  22
TORSDOF 2
