MODEL 1
REMARK VINA RESULT:      -6.9      0.000      0.000
REMARK  Name = 11884204
REMARK  1 active torsions:
REMARK  status: ('A' for Active; 'I' for Inactive)
REMARK    1  A    between atoms: C_8  and  C_15
REMARK                            x       y       z     vdW  Elec       q    Type
REMARK                         _______ _______ _______ _____ _____    ______ ____
ROOT
ATOM      1 BR   UNL     1     -14.432  -9.522  20.839  0.00  0.00    -0.050 Br
ATOM      2  O   UNL     1      -3.785 -11.559  18.555  0.00  0.00    -0.275 OA
ATOM      3  O   UNL     1      -7.448 -13.050  18.156  0.00  0.00    -0.273 OA
ATOM      4  O   UNL     1     -10.451  -8.768  17.390  0.00  0.00    -0.270 OA
ATOM      5  N   UNL     1      -5.756 -10.613  17.754  0.00  0.00    -0.298 N 
ATOM      6  N   UNL     1      -8.568  -9.955  18.022  0.00  0.00    -0.283 N 
ATOM      7  N   UNL     1      -9.601 -12.627  18.763  0.00  0.00    -0.283 N 
ATOM     11  C   UNL     1      -7.922 -10.834  18.986  0.00  0.00    +0.180 C 
ATOM     12  C   UNL     1      -6.407 -10.613  19.066  0.00  0.00    +0.139 C 
ATOM     15  C   UNL     1      -4.453 -11.105  17.631  0.00  0.00    +0.219 C 
ATOM     17  C   UNL     1      -6.527 -10.076  16.630  0.00  0.00    +0.127 C 
ATOM     18  C   UNL     1      -7.705  -9.229  17.089  0.00  0.00    +0.128 C 
ATOM     19  C   UNL     1      -8.290 -12.248  18.568  0.00  0.00    +0.239 C 
ATOM     20  C   UNL     1      -9.926  -9.651  18.071  0.00  0.00    +0.249 C 
ATOM     21  C   UNL     1     -10.809 -10.444  18.966  0.00  0.00    +0.059 A 
ATOM     22  C   UNL     1     -10.686 -11.827  19.177  0.00  0.00    +0.046 A 
ATOM     23  C   UNL     1     -11.934  -9.767  19.475  0.00  0.00    +0.030 A 
ATOM     24  C   UNL     1     -11.726 -12.511  19.831  0.00  0.00    +0.025 A 
ATOM     25  C   UNL     1     -12.933 -10.454  20.163  0.00  0.00    +0.019 A 
ATOM     26  C   UNL     1     -12.836 -11.828  20.329  0.00  0.00    +0.017 A 
ATOM     27  H   UNL     1      -9.783 -13.624  18.691  0.00  0.00    +0.155 HD
ENDROOT
BRANCH  15   8
ATOM      8  C   UNL     1      -3.830 -11.053  16.268  0.00  0.00    +0.075 C 
ATOM      9  C   UNL     1      -2.352 -10.672  16.383  0.00  0.00    +0.013 C 
ATOM     10  C   UNL     1      -4.007 -12.398  15.561  0.00  0.00    +0.013 C 
ATOM     13  C   UNL     1      -1.655 -10.697  15.025  0.00  0.00    +0.001 C 
ATOM     14  C   UNL     1      -3.305 -12.422  14.206  0.00  0.00    +0.001 C 
ATOM     16  C   UNL     1      -1.832 -12.043  14.327  0.00  0.00    +0.000 C 
ENDBRANCH  15   8
TORSDOF 1
ENDMDL
MODEL 2
REMARK VINA RESULT:      -6.5      3.261      8.361
REMARK  Name = 11884204
REMARK  1 active torsions:
REMARK  status: ('A' for Active; 'I' for Inactive)
REMARK    1  A    between atoms: C_8  and  C_15
REMARK                            x       y       z     vdW  Elec       q    Type
REMARK                         _______ _______ _______ _____ _____    ______ ____
ROOT
ATOM      1 BR   UNL     1      -1.035 -10.558  15.601  0.00  0.00    -0.050 Br
ATOM      2  O   UNL     1     -11.689  -8.243  17.562  0.00  0.00    -0.275 OA
ATOM      3  O   UNL     1      -9.302 -10.512  15.336  0.00  0.00    -0.273 OA
ATOM      4  O   UNL     1      -5.297 -11.660  18.589  0.00  0.00    -0.270 OA
ATOM      5  N   UNL     1      -9.906  -9.628  18.133  0.00  0.00    -0.298 N 
ATOM      6  N   UNL     1      -7.158 -10.509  17.838  0.00  0.00    -0.283 N 
ATOM      7  N   UNL     1      -7.093 -10.850  14.900  0.00  0.00    -0.283 N 
ATOM     11  C   UNL     1      -7.731  -9.555  16.899  0.00  0.00    +0.180 C 
ATOM     12  C   UNL     1      -8.905  -8.770  17.496  0.00  0.00    +0.139 C 
ATOM     15  C   UNL     1     -11.254  -9.257  18.102  0.00  0.00    +0.219 C 
ATOM     17  C   UNL     1      -9.418 -10.846  18.785  0.00  0.00    +0.127 C 
ATOM     18  C   UNL     1      -7.921 -10.798  19.053  0.00  0.00    +0.128 C 
ATOM     19  C   UNL     1      -8.125 -10.365  15.674  0.00  0.00    +0.239 C 
ATOM     20  C   UNL     1      -5.864 -11.008  17.711  0.00  0.00    +0.249 C 
ATOM     21  C   UNL     1      -5.124 -10.774  16.443  0.00  0.00    +0.059 A 
ATOM     22  C   UNL     1      -5.710 -10.810  15.167  0.00  0.00    +0.046 A 
ATOM     23  C   UNL     1      -3.723 -10.693  16.556  0.00  0.00    +0.030 A 
ATOM     24  C   UNL     1      -4.874 -10.836  14.036  0.00  0.00    +0.025 A 
ATOM     25  C   UNL     1      -2.913 -10.670  15.423  0.00  0.00    +0.019 A 
ATOM     26  C   UNL     1      -3.488 -10.756  14.163  0.00  0.00    +0.017 A 
ATOM     27  H   UNL     1      -7.361 -11.192  13.981  0.00  0.00    +0.155 HD
ENDROOT
BRANCH  15   8
ATOM      8  C   UNL     1     -12.228 -10.162  18.795  0.00  0.00    +0.075 C 
ATOM      9  C   UNL     1     -12.423  -9.708  20.243  0.00  0.00    +0.013 C 
ATOM     10  C   UNL     1     -13.554 -10.184  18.032  0.00  0.00    +0.013 C 
ATOM     13  C   UNL     1     -13.477 -10.547  20.961  0.00  0.00    +0.001 C 
ATOM     14  C   UNL     1     -14.607 -11.021  18.755  0.00  0.00    +0.001 C 
ATOM     16  C   UNL     1     -14.799 -10.562  20.197  0.00  0.00    +0.000 C 
ENDBRANCH  15   8
TORSDOF 1
ENDMDL
MODEL 3
REMARK VINA RESULT:      -6.5      7.532      9.672
REMARK  Name = 11884204
REMARK  1 active torsions:
REMARK  status: ('A' for Active; 'I' for Inactive)
REMARK    1  A    between atoms: C_8  and  C_15
REMARK                            x       y       z     vdW  Elec       q    Type
REMARK                         _______ _______ _______ _____ _____    ______ ____
ROOT
ATOM      1 BR   UNL     1     -10.751  -8.484   4.694  0.00  0.00    -0.050 Br
ATOM      2  O   UNL     1      -3.796 -12.604  12.269  0.00  0.00    -0.275 OA
ATOM      3  O   UNL     1      -3.982 -10.151   9.146  0.00  0.00    -0.273 OA
ATOM      4  O   UNL     1      -8.759  -7.933   9.596  0.00  0.00    -0.270 OA
ATOM      5  N   UNL     1      -5.245 -10.851  11.769  0.00  0.00    -0.298 N 
ATOM      6  N   UNL     1      -7.096  -9.490   9.997  0.00  0.00    -0.283 N 
ATOM      7  N   UNL     1      -5.438  -9.438   7.547  0.00  0.00    -0.283 N 
ATOM     11  C   UNL     1      -6.319 -10.626   9.521  0.00  0.00    +0.180 C 
ATOM     12  C   UNL     1      -5.878 -11.559  10.655  0.00  0.00    +0.139 C 
ATOM     15  C   UNL     1      -4.227 -11.477  12.495  0.00  0.00    +0.219 C 
ATOM     17  C   UNL     1      -5.737  -9.503  12.065  0.00  0.00    +0.127 C 
ATOM     18  C   UNL     1      -7.098  -9.234  11.439  0.00  0.00    +0.128 C 
ATOM     19  C   UNL     1      -5.146 -10.034   8.756  0.00  0.00    +0.239 C 
ATOM     20  C   UNL     1      -7.955  -8.767   9.175  0.00  0.00    +0.249 C 
ATOM     21  C   UNL     1      -7.893  -8.979   7.705  0.00  0.00    +0.059 A 
ATOM     22  C   UNL     1      -6.705  -9.184   6.984  0.00  0.00    +0.046 A 
ATOM     23  C   UNL     1      -9.097  -8.776   7.005  0.00  0.00    +0.030 A 
ATOM     24  C   UNL     1      -6.740  -9.111   5.581  0.00  0.00    +0.025 A 
ATOM     25  C   UNL     1      -9.121  -8.755   5.611  0.00  0.00    +0.019 A 
ATOM     26  C   UNL     1      -7.940  -8.908   4.899  0.00  0.00    +0.017 A 
ATOM     27  H   UNL     1      -4.637  -9.248   6.950  0.00  0.00    +0.155 HD
ENDROOT
BRANCH  15   8
ATOM      8  C   UNL     1      -3.637 -10.711  13.642  0.00  0.00    +0.075 C 
ATOM      9  C   UNL     1      -4.113 -11.308  14.968  0.00  0.00    +0.013 C 
ATOM     10  C   UNL     1      -2.110 -10.717  13.542  0.00  0.00    +0.013 C 
ATOM     13  C   UNL     1      -3.463 -10.617  16.164  0.00  0.00    +0.001 C 
ATOM     14  C   UNL     1      -1.463 -10.029  14.742  0.00  0.00    +0.001 C 
ATOM     16  C   UNL     1      -1.940 -10.629  16.061  0.00  0.00    +0.000 C 
ENDBRANCH  15   8
TORSDOF 1
ENDMDL
MODEL 4
REMARK VINA RESULT:      -6.5     17.535     21.312
REMARK  Name = 11884204
REMARK  1 active torsions:
REMARK  status: ('A' for Active; 'I' for Inactive)
REMARK    1  A    between atoms: C_8  and  C_15
REMARK                            x       y       z     vdW  Elec       q    Type
REMARK                         _______ _______ _______ _____ _____    ______ ____
ROOT
ATOM      1 BR   UNL     1       1.024 -17.396   6.423  0.00  0.00    -0.050 Br
ATOM      2  O   UNL     1      -0.020 -14.713  -4.275  0.00  0.00    -0.275 OA
ATOM      3  O   UNL     1      -0.486 -13.285  -0.594  0.00  0.00    -0.273 OA
ATOM      4  O   UNL     1       3.484 -15.497   2.105  0.00  0.00    -0.270 OA
ATOM      5  N   UNL     1       1.411 -14.689  -2.437  0.00  0.00    -0.298 N 
ATOM      6  N   UNL     1       1.999 -15.231   0.351  0.00  0.00    -0.283 N 
ATOM      7  N   UNL     1      -0.364 -13.943   1.582  0.00  0.00    -0.283 N 
ATOM     11  C   UNL     1       0.642 -15.374  -0.157  0.00  0.00    +0.180 C 
ATOM     12  C   UNL     1       0.601 -15.635  -1.667  0.00  0.00    +0.139 C 
ATOM     15  C   UNL     1       1.000 -14.313  -3.720  0.00  0.00    +0.219 C 
ATOM     17  C   UNL     1       2.634 -14.193  -1.802  0.00  0.00    +0.127 C 
ATOM     18  C   UNL     1       3.071 -15.061  -0.631  0.00  0.00    +0.128 C 
ATOM     19  C   UNL     1      -0.086 -14.100   0.241  0.00  0.00    +0.239 C 
ATOM     20  C   UNL     1       2.326 -15.424   1.691  0.00  0.00    +0.249 C 
ATOM     21  C   UNL     1       1.231 -15.520   2.692  0.00  0.00    +0.059 A 
ATOM     22  C   UNL     1       0.058 -14.749   2.659  0.00  0.00    +0.046 A 
ATOM     23  C   UNL     1       1.504 -16.312   3.824  0.00  0.00    +0.030 A 
ATOM     24  C   UNL     1      -0.778 -14.734   3.789  0.00  0.00    +0.025 A 
ATOM     25  C   UNL     1       0.637 -16.323   4.916  0.00  0.00    +0.019 A 
ATOM     26  C   UNL     1      -0.497 -15.523   4.904  0.00  0.00    +0.017 A 
ATOM     27  H   UNL     1      -1.033 -13.212   1.807  0.00  0.00    +0.155 HD
ENDROOT
BRANCH  15   8
ATOM      8  C   UNL     1       1.886 -13.363  -4.469  0.00  0.00    +0.075 C 
ATOM      9  C   UNL     1       2.290 -13.975  -5.812  0.00  0.00    +0.013 C 
ATOM     10  C   UNL     1       1.173 -12.022  -4.657  0.00  0.00    +0.013 C 
ATOM     13  C   UNL     1       3.119 -13.003  -6.649  0.00  0.00    +0.001 C 
ATOM     14  C   UNL     1       2.003 -11.055  -5.498  0.00  0.00    +0.001 C 
ATOM     16  C   UNL     1       2.401 -11.669  -6.836  0.00  0.00    +0.000 C 
ENDBRANCH  15   8
TORSDOF 1
ENDMDL
MODEL 5
REMARK VINA RESULT:      -6.4     27.207     30.035
REMARK  Name = 11884204
REMARK  1 active torsions:
REMARK  status: ('A' for Active; 'I' for Inactive)
REMARK    1  A    between atoms: C_8  and  C_15
REMARK                            x       y       z     vdW  Elec       q    Type
REMARK                         _______ _______ _______ _____ _____    ______ ____
ROOT
ATOM      1 BR   UNL     1       9.427   9.022   8.224  0.00  0.00    -0.050 Br
ATOM      2  O   UNL     1      14.332   3.580  -0.086  0.00  0.00    -0.275 OA
ATOM      3  O   UNL     1      11.283   3.389   2.458  0.00  0.00    -0.273 OA
ATOM      4  O   UNL     1       9.762   8.428   2.948  0.00  0.00    -0.270 OA
ATOM      5  N   UNL     1      12.683   5.129   0.463  0.00  0.00    -0.298 N 
ATOM      6  N   UNL     1      11.176   6.682   2.396  0.00  0.00    -0.283 N 
ATOM      7  N   UNL     1      10.398   4.500   4.237  0.00  0.00    -0.283 N 
ATOM     11  C   UNL     1      12.084   5.634   2.839  0.00  0.00    +0.180 C 
ATOM     12  C   UNL     1      13.191   5.340   1.820  0.00  0.00    +0.139 C 
ATOM     15  C   UNL     1      13.337   4.234  -0.388  0.00  0.00    +0.219 C 
ATOM     17  C   UNL     1      11.497   5.896   0.072  0.00  0.00    +0.127 C 
ATOM     18  C   UNL     1      11.247   7.084   0.990  0.00  0.00    +0.128 C 
ATOM     19  C   UNL     1      11.211   4.423   3.127  0.00  0.00    +0.239 C 
ATOM     20  C   UNL     1      10.387   7.418   3.276  0.00  0.00    +0.249 C 
ATOM     21  C   UNL     1      10.259   6.959   4.684  0.00  0.00    +0.059 A 
ATOM     22  C   UNL     1      10.167   5.612   5.072  0.00  0.00    +0.046 A 
ATOM     23  C   UNL     1      10.041   7.968   5.641  0.00  0.00    +0.030 A 
ATOM     24  C   UNL     1       9.788   5.310   6.392  0.00  0.00    +0.025 A 
ATOM     25  C   UNL     1       9.714   7.649   6.958  0.00  0.00    +0.019 A 
ATOM     26  C   UNL     1       9.574   6.319   7.330  0.00  0.00    +0.017 A 
ATOM     27  H   UNL     1       9.993   3.620   4.544  0.00  0.00    +0.155 HD
ENDROOT
BRANCH  15   8
ATOM      8  C   UNL     1      12.786   4.082  -1.774  0.00  0.00    +0.075 C 
ATOM      9  C   UNL     1      13.884   4.348  -2.806  0.00  0.00    +0.013 C 
ATOM     10  C   UNL     1      12.183   2.686  -1.946  0.00  0.00    +0.013 C 
ATOM     13  C   UNL     1      13.389   4.114  -4.230  0.00  0.00    +0.001 C 
ATOM     14  C   UNL     1      11.693   2.454  -3.373  0.00  0.00    +0.001 C 
ATOM     16  C   UNL     1      12.793   2.719  -4.397  0.00  0.00    +0.000 C 
ENDBRANCH  15   8
TORSDOF 1
ENDMDL
MODEL 6
REMARK VINA RESULT:      -6.3     18.131     19.462
REMARK  Name = 11884204
REMARK  1 active torsions:
REMARK  status: ('A' for Active; 'I' for Inactive)
REMARK    1  A    between atoms: C_8  and  C_15
REMARK                            x       y       z     vdW  Elec       q    Type
REMARK                         _______ _______ _______ _____ _____    ______ ____
ROOT
ATOM      1 BR   UNL     1     -19.257   3.711  25.903  0.00  0.00    -0.050 Br
ATOM      2  O   UNL     1     -11.488   9.416  20.441  0.00  0.00    -0.275 OA
ATOM      3  O   UNL     1     -12.498   5.747  21.591  0.00  0.00    -0.273 OA
ATOM      4  O   UNL     1     -17.770   5.737  21.213  0.00  0.00    -0.270 OA
ATOM      5  N   UNL     1     -13.479   8.226  20.227  0.00  0.00    -0.298 N 
ATOM      6  N   UNL     1     -15.653   6.662  21.341  0.00  0.00    -0.283 N 
ATOM      7  N   UNL     1     -14.067   4.655  22.827  0.00  0.00    -0.283 N 
ATOM     11  C   UNL     1     -14.490   6.989  22.153  0.00  0.00    +0.180 C 
ATOM     12  C   UNL     1     -13.762   8.247  21.664  0.00  0.00    +0.139 C 
ATOM     15  C   UNL     1     -12.322   8.844  19.743  0.00  0.00    +0.219 C 
ATOM     17  C   UNL     1     -14.455   7.551  19.368  0.00  0.00    +0.127 C 
ATOM     18  C   UNL     1     -15.796   7.355  20.059  0.00  0.00    +0.128 C 
ATOM     19  C   UNL     1     -13.607   5.752  22.130  0.00  0.00    +0.239 C 
ATOM     20  C   UNL     1     -16.698   5.868  21.806  0.00  0.00    +0.249 C 
ATOM     21  C   UNL     1     -16.516   5.108  23.071  0.00  0.00    +0.059 A 
ATOM     22  C   UNL     1     -15.318   4.482  23.453  0.00  0.00    +0.046 A 
ATOM     23  C   UNL     1     -17.686   4.871  23.818  0.00  0.00    +0.030 A 
ATOM     24  C   UNL     1     -15.336   3.579  24.531  0.00  0.00    +0.025 A 
ATOM     25  C   UNL     1     -17.674   4.010  24.914  0.00  0.00    +0.019 A 
ATOM     26  C   UNL     1     -16.502   3.353  25.262  0.00  0.00    +0.017 A 
ATOM     27  H   UNL     1     -13.381   3.922  22.990  0.00  0.00    +0.155 HD
ENDROOT
BRANCH  15   8
ATOM      8  C   UNL     1     -12.101   8.813  18.260  0.00  0.00    +0.075 C 
ATOM      9  C   UNL     1     -12.062  10.239  17.708  0.00  0.00    +0.013 C 
ATOM     10  C   UNL     1     -10.811   8.054  17.941  0.00  0.00    +0.013 C 
ATOM     13  C   UNL     1     -11.747  10.258  16.215  0.00  0.00    +0.001 C 
ATOM     14  C   UNL     1     -10.497   8.079  16.446  0.00  0.00    +0.001 C 
ATOM     16  C   UNL     1     -10.458   9.503  15.902  0.00  0.00    +0.000 C 
ENDBRANCH  15   8
TORSDOF 1
ENDMDL
MODEL 7
REMARK VINA RESULT:      -6.3      3.456      8.658
REMARK  Name = 11884204
REMARK  1 active torsions:
REMARK  status: ('A' for Active; 'I' for Inactive)
REMARK    1  A    between atoms: C_8  and  C_15
REMARK                            x       y       z     vdW  Elec       q    Type
REMARK                         _______ _______ _______ _____ _____    ______ ____
ROOT
ATOM      1 BR   UNL     1      -3.383 -10.751  15.830  0.00  0.00    -0.050 Br
ATOM      2  O   UNL     1     -13.776 -12.083  19.426  0.00  0.00    -0.275 OA
ATOM      3  O   UNL     1     -10.198 -10.738  20.518  0.00  0.00    -0.273 OA
ATOM      4  O   UNL     1      -8.257  -8.634  16.074  0.00  0.00    -0.270 OA
ATOM      5  N   UNL     1     -12.295 -10.618  18.384  0.00  0.00    -0.298 N 
ATOM      6  N   UNL     1      -9.666  -9.937  17.366  0.00  0.00    -0.283 N 
ATOM      7  N   UNL     1      -8.056 -10.605  19.757  0.00  0.00    -0.283 N 
ATOM     11  C   UNL     1      -9.859 -11.141  18.162  0.00  0.00    +0.180 C 
ATOM     12  C   UNL     1     -11.301 -11.658  18.111  0.00  0.00    +0.139 C 
ATOM     15  C   UNL     1     -13.484 -10.955  19.039  0.00  0.00    +0.219 C 
ATOM     17  C   UNL     1     -11.977  -9.261  17.934  0.00  0.00    +0.127 C 
ATOM     18  C   UNL     1     -10.865  -9.242  16.895  0.00  0.00    +0.128 C 
ATOM     19  C   UNL     1      -9.410 -10.784  19.570  0.00  0.00    +0.239 C 
ATOM     20  C   UNL     1      -8.418  -9.533  16.901  0.00  0.00    +0.249 C 
ATOM     21  C   UNL     1      -7.200 -10.193  17.442  0.00  0.00    +0.059 A 
ATOM     22  C   UNL     1      -7.038 -10.578  18.783  0.00  0.00    +0.046 A 
ATOM     23  C   UNL     1      -6.097 -10.256  16.569  0.00  0.00    +0.030 A 
ATOM     24  C   UNL     1      -5.759 -10.949  19.234  0.00  0.00    +0.025 A 
ATOM     25  C   UNL     1      -4.847 -10.673  17.022  0.00  0.00    +0.019 A 
ATOM     26  C   UNL     1      -4.674 -11.006  18.358  0.00  0.00    +0.017 A 
ATOM     27  H   UNL     1      -7.748 -10.588  20.726  0.00  0.00    +0.155 HD
ENDROOT
BRANCH  15   8
ATOM      8  C   UNL     1     -14.475  -9.852  19.265  0.00  0.00    +0.075 C 
ATOM      9  C   UNL     1     -15.850 -10.269  18.740  0.00  0.00    +0.013 C 
ATOM     10  C   UNL     1     -14.528  -9.495  20.752  0.00  0.00    +0.013 C 
ATOM     13  C   UNL     1     -16.911  -9.212  19.033  0.00  0.00    +0.001 C 
ATOM     14  C   UNL     1     -15.593  -8.440  21.041  0.00  0.00    +0.001 C 
ATOM     16  C   UNL     1     -16.962  -8.862  20.518  0.00  0.00    +0.000 C 
ENDBRANCH  15   8
TORSDOF 1
ENDMDL
MODEL 8
REMARK VINA RESULT:      -6.2     28.603     29.638
REMARK  Name = 11884204
REMARK  1 active torsions:
REMARK  status: ('A' for Active; 'I' for Inactive)
REMARK    1  A    between atoms: C_8  and  C_15
REMARK                            x       y       z     vdW  Elec       q    Type
REMARK                         _______ _______ _______ _____ _____    ______ ____
ROOT
ATOM      1 BR   UNL     1      -3.742   5.055  42.554  0.00  0.00    -0.050 Br
ATOM      2  O   UNL     1       0.988  12.933  36.366  0.00  0.00    -0.275 OA
ATOM      3  O   UNL     1       0.406   9.007  36.588  0.00  0.00    -0.273 OA
ATOM      4  O   UNL     1      -4.448   8.588  38.640  0.00  0.00    -0.270 OA
ATOM      5  N   UNL     1      -0.945  11.677  36.697  0.00  0.00    -0.298 N 
ATOM      6  N   UNL     1      -2.457   9.633  38.094  0.00  0.00    -0.283 N 
ATOM      7  N   UNL     1      -0.485   7.431  37.968  0.00  0.00    -0.283 N 
ATOM     11  C   UNL     1      -1.035   9.804  38.353  0.00  0.00    +0.180 C 
ATOM     12  C   UNL     1      -0.540  11.218  38.027  0.00  0.00    +0.139 C 
ATOM     15  C   UNL     1      -0.103  12.528  35.975  0.00  0.00    +0.219 C 
ATOM     17  C   UNL     1      -2.243  11.211  36.201  0.00  0.00    +0.127 C 
ATOM     18  C   UNL     1      -3.129  10.675  37.316  0.00  0.00    +0.128 C 
ATOM     19  C   UNL     1      -0.333   8.731  37.537  0.00  0.00    +0.239 C 
ATOM     20  C   UNL     1      -3.218   8.633  38.694  0.00  0.00    +0.249 C 
ATOM     21  C   UNL     1      -2.522   7.537  39.419  0.00  0.00    +0.059 A 
ATOM     22  C   UNL     1      -1.320   6.946  38.996  0.00  0.00    +0.046 A 
ATOM     23  C   UNL     1      -3.233   6.962  40.489  0.00  0.00    +0.030 A 
ATOM     24  C   UNL     1      -0.896   5.754  39.608  0.00  0.00    +0.025 A 
ATOM     25  C   UNL     1      -2.771   5.807  41.117  0.00  0.00    +0.019 A 
ATOM     26  C   UNL     1      -1.610   5.194  40.667  0.00  0.00    +0.017 A 
ATOM     27  H   UNL     1       0.156   6.756  37.558  0.00  0.00    +0.155 HD
ENDROOT
BRANCH  15   8
ATOM      8  C   UNL     1      -0.586  12.986  34.631  0.00  0.00    +0.075 C 
ATOM      9  C   UNL     1      -1.370  14.292  34.775  0.00  0.00    +0.013 C 
ATOM     10  C   UNL     1       0.600  13.147  33.677  0.00  0.00    +0.013 C 
ATOM     13  C   UNL     1      -1.802  14.844  33.419  0.00  0.00    +0.001 C 
ATOM     14  C   UNL     1       0.164  13.703  32.323  0.00  0.00    +0.001 C 
ATOM     16  C   UNL     1      -0.615  15.006  32.473  0.00  0.00    +0.000 C 
ENDBRANCH  15   8
TORSDOF 1
ENDMDL
MODEL 9
REMARK VINA RESULT:      -6.1      5.762      9.109
REMARK  Name = 11884204
REMARK  1 active torsions:
REMARK  status: ('A' for Active; 'I' for Inactive)
REMARK    1  A    between atoms: C_8  and  C_15
REMARK                            x       y       z     vdW  Elec       q    Type
REMARK                         _______ _______ _______ _____ _____    ______ ____
ROOT
ATOM      1 BR   UNL     1      -4.444 -12.010   5.406  0.00  0.00    -0.050 Br
ATOM      2  O   UNL     1      -3.195  -9.922  16.214  0.00  0.00    -0.275 OA
ATOM      3  O   UNL     1      -5.582  -9.227  13.112  0.00  0.00    -0.273 OA
ATOM      4  O   UNL     1      -5.372 -13.732  10.354  0.00  0.00    -0.270 OA
ATOM      5  N   UNL     1      -4.151 -11.360  14.651  0.00  0.00    -0.298 N 
ATOM      6  N   UNL     1      -4.695 -12.167  11.918  0.00  0.00    -0.283 N 
ATOM      7  N   UNL     1      -5.712  -9.595  10.869  0.00  0.00    -0.283 N 
ATOM     11  C   UNL     1      -4.078 -10.878  12.197  0.00  0.00    +0.180 C 
ATOM     12  C   UNL     1      -3.341 -10.854  13.541  0.00  0.00    +0.139 C 
ATOM     15  C   UNL     1      -3.983 -10.819  15.930  0.00  0.00    +0.219 C 
ATOM     17  C   UNL     1      -5.101 -12.432  14.344  0.00  0.00    +0.127 C 
ATOM     18  C   UNL     1      -4.789 -13.122  13.025  0.00  0.00    +0.128 C 
ATOM     19  C   UNL     1      -5.201  -9.857  12.122  0.00  0.00    +0.239 C 
ATOM     20  C   UNL     1      -5.030 -12.581  10.632  0.00  0.00    +0.249 C 
ATOM     21  C   UNL     1      -5.006 -11.586   9.527  0.00  0.00    +0.059 A 
ATOM     22  C   UNL     1      -5.422 -10.251   9.655  0.00  0.00    +0.046 A 
ATOM     23  C   UNL     1      -4.711 -12.096   8.249  0.00  0.00    +0.030 A 
ATOM     24  C   UNL     1      -5.602  -9.480   8.493  0.00  0.00    +0.025 A 
ATOM     25  C   UNL     1      -4.848 -11.302   7.111  0.00  0.00    +0.019 A 
ATOM     26  C   UNL     1      -5.308  -9.999   7.232  0.00  0.00    +0.017 A 
ATOM     27  H   UNL     1      -6.296  -8.765  10.800  0.00  0.00    +0.155 HD
ENDROOT
BRANCH  15   8
ATOM      8  C   UNL     1      -4.821 -11.398  17.030  0.00  0.00    +0.075 C 
ATOM      9  C   UNL     1      -3.959 -11.642  18.271  0.00  0.00    +0.013 C 
ATOM     10  C   UNL     1      -5.994 -10.465  17.339  0.00  0.00    +0.013 C 
ATOM     13  C   UNL     1      -4.792 -12.145  19.447  0.00  0.00    +0.001 C 
ATOM     14  C   UNL     1      -6.822 -10.970  18.519  0.00  0.00    +0.001 C 
ATOM     16  C   UNL     1      -5.957 -11.209  19.752  0.00  0.00    +0.000 C 
ENDBRANCH  15   8
TORSDOF 1
ENDMDL
MODEL 10
REMARK VINA RESULT:      -6.1      5.680      7.773
REMARK  Name = 11884204
REMARK  1 active torsions:
REMARK  status: ('A' for Active; 'I' for Inactive)
REMARK    1  A    between atoms: C_8  and  C_15
REMARK                            x       y       z     vdW  Elec       q    Type
REMARK                         _______ _______ _______ _____ _____    ______ ____
ROOT
ATOM      1 BR   UNL     1      -6.261 -10.897  19.711  0.00  0.00    -0.050 Br
ATOM      2  O   UNL     1      -4.740  -8.611   8.979  0.00  0.00    -0.275 OA
ATOM      3  O   UNL     1      -3.323 -10.799  11.980  0.00  0.00    -0.273 OA
ATOM      4  O   UNL     1      -7.653 -12.098  14.718  0.00  0.00    -0.270 OA
ATOM      5  N   UNL     1      -5.803 -10.027  10.491  0.00  0.00    -0.298 N 
ATOM      6  N   UNL     1      -6.384 -10.908  13.193  0.00  0.00    -0.283 N 
ATOM      7  N   UNL     1      -3.616 -11.131  14.213  0.00  0.00    -0.283 N 
ATOM     11  C   UNL     1      -5.349  -9.914  12.949  0.00  0.00    +0.180 C 
ATOM     12  C   UNL     1      -5.562  -9.149  11.637  0.00  0.00    +0.139 C 
ATOM     15  C   UNL     1      -5.350  -9.648   9.224  0.00  0.00    +0.219 C 
ATOM     17  C   UNL     1      -6.530 -11.272  10.750  0.00  0.00    +0.127 C 
ATOM     18  C   UNL     1      -7.272 -11.243  12.078  0.00  0.00    +0.128 C 
ATOM     19  C   UNL     1      -4.031 -10.672  12.981  0.00  0.00    +0.239 C 
ATOM     20  C   UNL     1      -6.665 -11.408  14.462  0.00  0.00    +0.249 C 
ATOM     21  C   UNL     1      -5.717 -11.127  15.572  0.00  0.00    +0.059 A 
ATOM     22  C   UNL     1      -4.319 -11.108  15.434  0.00  0.00    +0.046 A 
ATOM     23  C   UNL     1      -6.283 -11.057  16.859  0.00  0.00    +0.030 A 
ATOM     24  C   UNL     1      -3.522 -11.092  16.592  0.00  0.00    +0.025 A 
ATOM     25  C   UNL     1      -5.477 -10.992  17.994  0.00  0.00    +0.019 A 
ATOM     26  C   UNL     1      -4.096 -11.024  17.861  0.00  0.00    +0.017 A 
ATOM     27  H   UNL     1      -2.646 -11.434  14.262  0.00  0.00    +0.155 HD
ENDROOT
BRANCH  15   8
ATOM      8  C   UNL     1      -5.653 -10.576   8.085  0.00  0.00    +0.075 C 
ATOM      9  C   UNL     1      -6.014  -9.769   6.836  0.00  0.00    +0.013 C 
ATOM     10  C   UNL     1      -4.457 -11.496   7.830  0.00  0.00    +0.013 C 
ATOM     13  C   UNL     1      -6.239 -10.672   5.626  0.00  0.00    +0.001 C 
ATOM     14  C   UNL     1      -4.685 -12.395   6.617  0.00  0.00    +0.001 C 
ATOM     16  C   UNL     1      -5.042 -11.586   5.375  0.00  0.00    +0.000 C 
ENDBRANCH  15   8
TORSDOF 1
ENDMDL
