MODEL 1
REMARK VINA RESULT:      -7.3      0.000      0.000
REMARK  Name = 25389790
REMARK  9 active torsions:
REMARK  status: ('A' for Active; 'I' for Inactive)
REMARK    1  A    between atoms: O_3  and  C_22
REMARK    2  A    between atoms: O_3  and  C_34
REMARK    3  A    between atoms: N_7  and  C_13
REMARK    4  A    between atoms: N_7  and  C_23
REMARK    5  A    between atoms: N_9  and  C_28
REMARK    6  A    between atoms: C_11  and  C_19
REMARK    7  A    between atoms: C_15  and  C_22
REMARK    8  A    between atoms: C_23  and  C_28
REMARK    9  A    between atoms: C_35  and  C_36
REMARK                            x       y       z     vdW  Elec       q    Type
REMARK                         _______ _______ _______ _____ _____    ______ ____
ROOT
ATOM      6  N   UNL     1      -2.387   9.799  39.180  0.00  0.00    -0.274 NA
ATOM      8  N   UNL     1      -4.895  11.060  36.641  0.00  0.00    -0.356 N 
ATOM     10  C   UNL     1      -2.949  10.902  38.317  0.00  0.00    +0.106 C 
ATOM     11  C   UNL     1      -1.744   8.722  38.364  0.00  0.00    +0.090 C 
ATOM     12  C   UNL     1      -1.938  11.441  37.296  0.00  0.00    +0.044 C 
ATOM     13  C   UNL     1      -1.367  10.330  36.422  0.00  0.00    +0.057 C 
ATOM     14  C   UNL     1      -0.734   9.281  37.329  0.00  0.00    +0.042 C 
ATOM     15  C   UNL     1      -3.489   9.345  40.091  0.00  0.00    +0.172 C 
ATOM     16  C   UNL     1      -4.266  10.485  37.709  0.00  0.00    +0.038 A 
ATOM     17  C   UNL     1      -4.681   8.666  39.376  0.00  0.00    +0.068 C 
ATOM     18  C   UNL     1      -5.078   9.476  38.189  0.00  0.00    -0.016 A 
ATOM     20  C   UNL     1      -6.229   9.411  37.360  0.00  0.00    +0.003 A 
ATOM     21  C   UNL     1      -6.089  10.414  36.397  0.00  0.00    +0.047 A 
ATOM     26  C   UNL     1      -7.380   8.599  37.331  0.00  0.00    +0.010 A 
ATOM     27  C   UNL     1      -7.049  10.645  35.404  0.00  0.00    +0.026 A 
ATOM     29  C   UNL     1      -8.346   8.818  36.344  0.00  0.00    +0.001 A 
ATOM     32  C   UNL     1      -8.181   9.826  35.396  0.00  0.00    +0.002 A 
ATOM     38  H   UNL     1      -4.544  11.839  36.100  0.00  0.00    +0.166 HD
ENDROOT
BRANCH  11  19
ATOM      1  F   UNL     1      -1.007   4.085  39.764  0.00  0.00    -0.202 F 
ATOM      2  F   UNL     1       1.056   4.848  41.389  0.00  0.00    -0.202 F 
ATOM     19  C   UNL     1      -0.988   7.676  39.181  0.00  0.00    -0.027 A 
ATOM     24  C   UNL     1      -1.350   6.331  39.099  0.00  0.00    +0.046 A 
ATOM     25  C   UNL     1       0.063   8.066  40.009  0.00  0.00    +0.008 A 
ATOM     30  C   UNL     1      -0.660   5.377  39.844  0.00  0.00    +0.159 A 
ATOM     31  C   UNL     1       0.754   7.111  40.756  0.00  0.00    +0.041 A 
ATOM     33  C   UNL     1       0.393   5.766  40.672  0.00  0.00    +0.158 A 
ENDBRANCH  11  19
BRANCH  15  22
ATOM      4  O   UNL     1      -2.135   8.895  42.024  0.00  0.00    -0.249 OA
ATOM     22  C   UNL     1      -2.963   8.509  41.210  0.00  0.00    +0.325 C 
BRANCH  22   3
ATOM      3  O   UNL     1      -3.545   7.277  41.172  0.00  0.00    -0.467 OA
ATOM     34  C   UNL     1      -3.298   6.444  42.310  0.00  0.00    +0.280 C 
ENDBRANCH  22   3
ENDBRANCH  15  22
BRANCH  13   7
ATOM      7  N   UNL     1      -0.368  10.860  35.495  0.00  0.00    -0.312 NA
ATOM     37  H   UNL     1      -0.245  10.212  34.717  0.00  0.00    +0.122 HD
BRANCH   7  23
ATOM     23  C   UNL     1      -0.788  12.149  34.968  0.00  0.00    +0.100 C 
BRANCH  23  28
ATOM     28  C   UNL     1       0.419  12.942  34.487  0.00  0.00    +0.119 C 
BRANCH  28   9
ATOM      5  O   UNL     1       1.295  14.599  32.270  0.00  0.00    -0.276 OA
ATOM      9  N   UNL     1       0.843  12.506  33.184  0.00  0.00    -0.314 N 
ATOM     35  C   UNL     1       1.247  13.375  32.180  0.00  0.00    +0.210 C 
ATOM     36  C   UNL     1       1.663  12.654  30.927  0.00  0.00    +0.109 C 
ATOM     39  H   UNL     1       0.841  11.507  32.999  0.00  0.00    +0.149 HD
ENDBRANCH  28   9
ENDBRANCH  23  28
ENDBRANCH   7  23
ENDBRANCH  13   7
TORSDOF 7
ENDMDL
MODEL 2
REMARK VINA RESULT:      -7.2     28.233     29.742
REMARK  Name = 25389790
REMARK  9 active torsions:
REMARK  status: ('A' for Active; 'I' for Inactive)
REMARK    1  A    between atoms: O_3  and  C_22
REMARK    2  A    between atoms: O_3  and  C_34
REMARK    3  A    between atoms: N_7  and  C_13
REMARK    4  A    between atoms: N_7  and  C_23
REMARK    5  A    between atoms: N_9  and  C_28
REMARK    6  A    between atoms: C_11  and  C_19
REMARK    7  A    between atoms: C_15  and  C_22
REMARK    8  A    between atoms: C_23  and  C_28
REMARK    9  A    between atoms: C_35  and  C_36
REMARK                            x       y       z     vdW  Elec       q    Type
REMARK                         _______ _______ _______ _____ _____    ______ ____
ROOT
ATOM      6  N   UNL     1     -10.667 -10.540  16.768  0.00  0.00    -0.274 NA
ATOM      8  N   UNL     1      -7.007 -10.069  15.921  0.00  0.00    -0.356 N 
ATOM     10  C   UNL     1      -9.572 -10.225  15.778  0.00  0.00    +0.106 C 
ATOM     11  C   UNL     1     -10.811  -9.471  17.804  0.00  0.00    +0.090 C 
ATOM     12  C   UNL     1      -9.690  -8.817  15.179  0.00  0.00    +0.044 C 
ATOM     13  C   UNL     1      -9.747  -7.743  16.261  0.00  0.00    +0.057 C 
ATOM     14  C   UNL     1     -10.918  -8.053  17.186  0.00  0.00    +0.042 C 
ATOM     15  C   UNL     1     -10.400 -11.918  17.299  0.00  0.00    +0.172 C 
ATOM     16  C   UNL     1      -8.216 -10.523  16.369  0.00  0.00    +0.038 A 
ATOM     17  C   UNL     1      -9.109 -12.048  18.141  0.00  0.00    +0.068 C 
ATOM     18  C   UNL     1      -7.984 -11.366  17.440  0.00  0.00    -0.016 A 
ATOM     20  C   UNL     1      -6.584 -11.398  17.674  0.00  0.00    +0.003 A 
ATOM     21  C   UNL     1      -5.995 -10.576  16.709  0.00  0.00    +0.047 A 
ATOM     26  C   UNL     1      -5.755 -12.047  18.610  0.00  0.00    +0.010 A 
ATOM     27  C   UNL     1      -4.612 -10.371  16.636  0.00  0.00    +0.026 A 
ATOM     29  C   UNL     1      -4.371 -11.850  18.549  0.00  0.00    +0.001 A 
ATOM     32  C   UNL     1      -3.810 -11.024  17.577  0.00  0.00    +0.002 A 
ATOM     38  H   UNL     1      -6.866  -9.448  15.135  0.00  0.00    +0.166 HD
ENDROOT
BRANCH  11  19
ATOM      1  F   UNL     1     -15.656  -9.615  18.514  0.00  0.00    -0.202 F 
ATOM      2  F   UNL     1     -15.303 -10.079  21.187  0.00  0.00    -0.202 F 
ATOM     19  C   UNL     1     -12.023  -9.635  18.717  0.00  0.00    -0.027 A 
ATOM     24  C   UNL     1     -13.311  -9.548  18.189  0.00  0.00    +0.046 A 
ATOM     25  C   UNL     1     -11.843  -9.872  20.080  0.00  0.00    +0.008 A 
ATOM     30  C   UNL     1     -14.419  -9.698  19.023  0.00  0.00    +0.159 A 
ATOM     31  C   UNL     1     -12.951 -10.021  20.914  0.00  0.00    +0.041 A 
ATOM     33  C   UNL     1     -14.240  -9.935  20.385  0.00  0.00    +0.158 A 
ENDBRANCH  11  19
BRANCH  15  22
ATOM      4  O   UNL     1     -12.710 -12.537  17.529  0.00  0.00    -0.249 OA
ATOM     22  C   UNL     1     -11.589 -12.468  18.014  0.00  0.00    +0.325 C 
BRANCH  22   3
ATOM      3  O   UNL     1     -11.223 -12.867  19.265  0.00  0.00    -0.467 OA
ATOM     34  C   UNL     1     -12.214 -13.602  19.991  0.00  0.00    +0.280 C 
ENDBRANCH  22   3
ENDBRANCH  15  22
BRANCH  13   7
ATOM      7  N   UNL     1      -9.914  -6.417  15.667  0.00  0.00    -0.312 NA
ATOM     37  H   UNL     1      -9.692  -6.457  14.672  0.00  0.00    +0.122 HD
BRANCH   7  23
ATOM     23  C   UNL     1     -11.282  -5.951  15.823  0.00  0.00    +0.100 C 
BRANCH  23  28
ATOM     28  C   UNL     1     -12.033  -6.063  14.503  0.00  0.00    +0.119 C 
BRANCH  28   9
ATOM      5  O   UNL     1     -12.576  -5.654  11.681  0.00  0.00    -0.276 OA
ATOM      9  N   UNL     1     -11.997  -4.822  13.778  0.00  0.00    -0.314 N 
ATOM     35  C   UNL     1     -12.273  -4.721  12.421  0.00  0.00    +0.210 C 
ATOM     36  C   UNL     1     -12.189  -3.305  11.919  0.00  0.00    +0.109 C 
ATOM     39  H   UNL     1     -11.755  -3.981  14.294  0.00  0.00    +0.149 HD
ENDBRANCH  28   9
ENDBRANCH  23  28
ENDBRANCH   7  23
ENDBRANCH  13   7
TORSDOF 7
ENDMDL
MODEL 3
REMARK VINA RESULT:      -6.9     19.959     24.511
REMARK  Name = 25389790
REMARK  9 active torsions:
REMARK  status: ('A' for Active; 'I' for Inactive)
REMARK    1  A    between atoms: O_3  and  C_22
REMARK    2  A    between atoms: O_3  and  C_34
REMARK    3  A    between atoms: N_7  and  C_13
REMARK    4  A    between atoms: N_7  and  C_23
REMARK    5  A    between atoms: N_9  and  C_28
REMARK    6  A    between atoms: C_11  and  C_19
REMARK    7  A    between atoms: C_15  and  C_22
REMARK    8  A    between atoms: C_23  and  C_28
REMARK    9  A    between atoms: C_35  and  C_36
REMARK                            x       y       z     vdW  Elec       q    Type
REMARK                         _______ _______ _______ _____ _____    ______ ____
ROOT
ATOM      6  N   UNL     1      14.854   9.638  20.598  0.00  0.00    -0.274 NA
ATOM      8  N   UNL     1      18.569   9.786  21.308  0.00  0.00    -0.356 N 
ATOM     10  C   UNL     1      16.151  10.405  20.682  0.00  0.00    +0.106 C 
ATOM     11  C   UNL     1      14.371   9.204  21.945  0.00  0.00    +0.090 C 
ATOM     12  C   UNL     1      16.108  11.549  21.703  0.00  0.00    +0.044 C 
ATOM     13  C   UNL     1      15.697  11.058  23.087  0.00  0.00    +0.057 C 
ATOM     14  C   UNL     1      14.344  10.366  22.971  0.00  0.00    +0.042 C 
ATOM     15  C   UNL     1      15.055   8.535  19.601  0.00  0.00    +0.172 C 
ATOM     16  C   UNL     1      17.316   9.463  20.868  0.00  0.00    +0.038 A 
ATOM     17  C   UNL     1      16.080   7.457  20.027  0.00  0.00    +0.068 C 
ATOM     18  C   UNL     1      17.306   8.117  20.560  0.00  0.00    -0.016 A 
ATOM     20  C   UNL     1      18.592   7.592  20.857  0.00  0.00    +0.003 A 
ATOM     21  C   UNL     1      19.364   8.660  21.324  0.00  0.00    +0.047 A 
ATOM     26  C   UNL     1      19.180   6.315  20.772  0.00  0.00    +0.010 A 
ATOM     27  C   UNL     1      20.701   8.509  21.713  0.00  0.00    +0.026 A 
ATOM     29  C   UNL     1      20.514   6.150  21.159  0.00  0.00    +0.001 A 
ATOM     32  C   UNL     1      21.261   7.231  21.622  0.00  0.00    +0.002 A 
ATOM     38  H   UNL     1      18.876  10.708  21.587  0.00  0.00    +0.166 HD
ENDROOT
BRANCH  11  19
ATOM      1  F   UNL     1      11.385   5.320  21.904  0.00  0.00    -0.202 F 
ATOM      2  F   UNL     1       9.185   6.945  21.962  0.00  0.00    -0.202 F 
ATOM     19  C   UNL     1      12.971   8.594  21.949  0.00  0.00    -0.027 A 
ATOM     24  C   UNL     1      12.813   7.208  21.924  0.00  0.00    +0.046 A 
ATOM     25  C   UNL     1      11.850   9.422  21.979  0.00  0.00    +0.008 A 
ATOM     30  C   UNL     1      11.535   6.651  21.928  0.00  0.00    +0.159 A 
ATOM     31  C   UNL     1      10.571   8.866  21.983  0.00  0.00    +0.041 A 
ATOM     33  C   UNL     1      10.414   7.480  21.958  0.00  0.00    +0.158 A 
ENDBRANCH  11  19
BRANCH  15  22
ATOM      4  O   UNL     1      13.522   6.732  19.192  0.00  0.00    -0.249 OA
ATOM     22  C   UNL     1      13.755   7.932  19.182  0.00  0.00    +0.325 C 
BRANCH  22   3
ATOM      3  O   UNL     1      12.898   8.920  18.799  0.00  0.00    -0.467 OA
ATOM     34  C   UNL     1      11.617   8.478  18.335  0.00  0.00    +0.280 C 
ENDBRANCH  22   3
ENDBRANCH  15  22
BRANCH  13   7
ATOM      7  N   UNL     1      15.612  12.173  24.030  0.00  0.00    -0.312 NA
ATOM     37  H   UNL     1      15.096  12.943  23.603  0.00  0.00    +0.122 HD
BRANCH   7  23
ATOM     23  C   UNL     1      14.927  11.768  25.247  0.00  0.00    +0.100 C 
BRANCH  23  28
ATOM     28  C   UNL     1      13.955  12.851  25.692  0.00  0.00    +0.119 C 
BRANCH  28   9
ATOM      5  O   UNL     1      11.471  11.358  25.521  0.00  0.00    -0.276 OA
ATOM      9  N   UNL     1      12.896  13.025  24.736  0.00  0.00    -0.314 N 
ATOM     35  C   UNL     1      11.737  12.260  24.731  0.00  0.00    +0.210 C 
ATOM     36  C   UNL     1      10.783  12.667  23.640  0.00  0.00    +0.109 C 
ATOM     39  H   UNL     1      13.012  13.747  24.030  0.00  0.00    +0.149 HD
ENDBRANCH  28   9
ENDBRANCH  23  28
ENDBRANCH   7  23
ENDBRANCH  13   7
TORSDOF 7
ENDMDL
MODEL 4
REMARK VINA RESULT:      -6.8     28.647     30.236
REMARK  Name = 25389790
REMARK  9 active torsions:
REMARK  status: ('A' for Active; 'I' for Inactive)
REMARK    1  A    between atoms: O_3  and  C_22
REMARK    2  A    between atoms: O_3  and  C_34
REMARK    3  A    between atoms: N_7  and  C_13
REMARK    4  A    between atoms: N_7  and  C_23
REMARK    5  A    between atoms: N_9  and  C_28
REMARK    6  A    between atoms: C_11  and  C_19
REMARK    7  A    between atoms: C_15  and  C_22
REMARK    8  A    between atoms: C_23  and  C_28
REMARK    9  A    between atoms: C_35  and  C_36
REMARK                            x       y       z     vdW  Elec       q    Type
REMARK                         _______ _______ _______ _____ _____    ______ ____
ROOT
ATOM      6  N   UNL     1      -6.632 -10.180  16.819  0.00  0.00    -0.274 NA
ATOM      8  N   UNL     1      -9.558 -10.474  19.202  0.00  0.00    -0.356 N 
ATOM     10  C   UNL     1      -7.653  -9.554  17.738  0.00  0.00    +0.106 C 
ATOM     11  C   UNL     1      -7.263 -10.763  15.595  0.00  0.00    +0.090 C 
ATOM     12  C   UNL     1      -8.588  -8.574  17.018  0.00  0.00    +0.044 C 
ATOM     13  C   UNL     1      -9.283  -9.225  15.826  0.00  0.00    +0.057 C 
ATOM     14  C   UNL     1      -8.215  -9.767  14.884  0.00  0.00    +0.042 C 
ATOM     15  C   UNL     1      -5.823 -11.138  17.643  0.00  0.00    +0.172 C 
ATOM     16  C   UNL     1      -8.374 -10.614  18.534  0.00  0.00    +0.038 A 
ATOM     17  C   UNL     1      -6.612 -12.355  18.181  0.00  0.00    +0.068 C 
ATOM     18  C   UNL     1      -7.906 -11.894  18.760  0.00  0.00    -0.016 A 
ATOM     20  C   UNL     1      -8.859 -12.570  19.567  0.00  0.00    +0.003 A 
ATOM     21  C   UNL     1      -9.885 -11.657  19.830  0.00  0.00    +0.047 A 
ATOM     26  C   UNL     1      -8.952 -13.869  20.105  0.00  0.00    +0.010 A 
ATOM     27  C   UNL     1     -11.003 -11.984  20.606  0.00  0.00    +0.026 A 
ATOM     29  C   UNL     1     -10.065 -14.208  20.882  0.00  0.00    +0.001 A 
ATOM     32  C   UNL     1     -11.074 -13.279  21.127  0.00  0.00    +0.002 A 
ATOM     38  H   UNL     1     -10.121  -9.634  19.233  0.00  0.00    +0.166 HD
ENDROOT
BRANCH  11  19
ATOM      1  F   UNL     1      -3.671  -9.882  12.381  0.00  0.00    -0.202 F 
ATOM      2  F   UNL     1      -3.583 -12.523  11.676  0.00  0.00    -0.202 F 
ATOM     19  C   UNL     1      -6.270 -11.238  14.537  0.00  0.00    -0.027 A 
ATOM     24  C   UNL     1      -5.407 -10.325  13.929  0.00  0.00    +0.046 A 
ATOM     25  C   UNL     1      -6.225 -12.584  14.178  0.00  0.00    +0.008 A 
ATOM     30  C   UNL     1      -4.500 -10.759  12.964  0.00  0.00    +0.159 A 
ATOM     31  C   UNL     1      -5.317 -13.019  13.211  0.00  0.00    +0.041 A 
ATOM     33  C   UNL     1      -4.454 -12.106  12.604  0.00  0.00    +0.158 A 
ENDBRANCH  11  19
BRANCH  15  22
ATOM      4  O   UNL     1      -4.302 -12.710  16.650  0.00  0.00    -0.249 OA
ATOM     22  C   UNL     1      -4.577 -11.553  16.933  0.00  0.00    +0.325 C 
BRANCH  22   3
ATOM      3  O   UNL     1      -3.819 -10.452  16.662  0.00  0.00    -0.467 OA
ATOM     34  C   UNL     1      -2.476 -10.718  16.243  0.00  0.00    +0.280 C 
ENDBRANCH  22   3
ENDBRANCH  15  22
BRANCH  13   7
ATOM      7  N   UNL     1     -10.127  -8.257  15.126  0.00  0.00    -0.312 NA
ATOM     37  H   UNL     1     -11.088  -8.599  15.099  0.00  0.00    +0.122 HD
BRANCH   7  23
ATOM     23  C   UNL     1     -10.107  -6.971  15.803  0.00  0.00    +0.100 C 
BRANCH  23  28
ATOM     28  C   UNL     1     -11.514  -6.400  15.896  0.00  0.00    +0.119 C 
BRANCH  28   9
ATOM      5  O   UNL     1     -12.389  -6.750  13.150  0.00  0.00    -0.276 OA
ATOM      9  N   UNL     1     -11.726  -5.376  14.909  0.00  0.00    -0.314 N 
ATOM     35  C   UNL     1     -12.148  -5.638  13.613  0.00  0.00    +0.210 C 
ATOM     36  C   UNL     1     -12.315  -4.385  12.796  0.00  0.00    +0.109 C 
ATOM     39  H   UNL     1     -11.554  -4.413  15.185  0.00  0.00    +0.149 HD
ENDBRANCH  28   9
ENDBRANCH  23  28
ENDBRANCH   7  23
ENDBRANCH  13   7
TORSDOF 7
ENDMDL
MODEL 5
REMARK VINA RESULT:      -6.7     33.534     35.612
REMARK  Name = 25389790
REMARK  9 active torsions:
REMARK  status: ('A' for Active; 'I' for Inactive)
REMARK    1  A    between atoms: O_3  and  C_22
REMARK    2  A    between atoms: O_3  and  C_34
REMARK    3  A    between atoms: N_7  and  C_13
REMARK    4  A    between atoms: N_7  and  C_23
REMARK    5  A    between atoms: N_9  and  C_28
REMARK    6  A    between atoms: C_11  and  C_19
REMARK    7  A    between atoms: C_15  and  C_22
REMARK    8  A    between atoms: C_23  and  C_28
REMARK    9  A    between atoms: C_35  and  C_36
REMARK                            x       y       z     vdW  Elec       q    Type
REMARK                         _______ _______ _______ _____ _____    ______ ____
ROOT
ATOM      6  N   UNL     1      -5.642 -11.592  10.041  0.00  0.00    -0.274 NA
ATOM      8  N   UNL     1      -5.914 -11.465   6.267  0.00  0.00    -0.356 N 
ATOM     10  C   UNL     1      -6.454 -11.410   8.782  0.00  0.00    +0.106 C 
ATOM     11  C   UNL     1      -4.670 -10.473  10.247  0.00  0.00    +0.090 C 
ATOM     12  C   UNL     1      -7.103 -10.023   8.680  0.00  0.00    +0.044 C 
ATOM     13  C   UNL     1      -6.073  -8.905   8.807  0.00  0.00    +0.057 C 
ATOM     14  C   UNL     1      -5.335  -9.078  10.130  0.00  0.00    +0.042 C 
ATOM     15  C   UNL     1      -5.038 -12.965   9.983  0.00  0.00    +0.172 C 
ATOM     16  C   UNL     1      -5.649 -11.798   7.566  0.00  0.00    +0.038 A 
ATOM     17  C   UNL     1      -4.000 -13.168   8.855  0.00  0.00    +0.068 C 
ATOM     18  C   UNL     1      -4.534 -12.613   7.579  0.00  0.00    -0.016 A 
ATOM     20  C   UNL     1      -4.081 -12.753   6.240  0.00  0.00    +0.003 A 
ATOM     21  C   UNL     1      -4.963 -12.023   5.438  0.00  0.00    +0.047 A 
ATOM     26  C   UNL     1      -3.009 -13.430   5.628  0.00  0.00    +0.010 A 
ATOM     27  C   UNL     1      -4.823 -11.939   4.048  0.00  0.00    +0.026 A 
ATOM     29  C   UNL     1      -2.856 -13.353   4.239  0.00  0.00    +0.001 A 
ATOM     32  C   UNL     1      -3.750 -12.618   3.463  0.00  0.00    +0.002 A 
ATOM     38  H   UNL     1      -6.684 -10.891   5.951  0.00  0.00    +0.166 HD
ENDROOT
BRANCH  11  19
ATOM      1  F   UNL     1      -4.752 -10.434  15.145  0.00  0.00    -0.202 F 
ATOM      2  F   UNL     1      -2.022 -10.562  15.244  0.00  0.00    -0.202 F 
ATOM     19  C   UNL     1      -3.955 -10.497  11.596  0.00  0.00    -0.027 A 
ATOM     24  C   UNL     1      -4.694 -10.453  12.778  0.00  0.00    +0.046 A 
ATOM     25  C   UNL     1      -2.563 -10.563  11.646  0.00  0.00    +0.008 A 
ATOM     30  C   UNL     1      -4.042 -10.475  14.010  0.00  0.00    +0.159 A 
ATOM     31  C   UNL     1      -1.910 -10.584  12.879  0.00  0.00    +0.041 A 
ATOM     33  C   UNL     1      -2.650 -10.541  14.061  0.00  0.00    +0.158 A 
ENDBRANCH  11  19
BRANCH  15  22
ATOM      4  O   UNL     1      -5.174 -13.436  12.335  0.00  0.00    -0.249 OA
ATOM     22  C   UNL     1      -4.504 -13.382  11.313  0.00  0.00    +0.325 C 
BRANCH  22   3
ATOM      3  O   UNL     1      -3.180 -13.685  11.198  0.00  0.00    -0.467 OA
ATOM     34  C   UNL     1      -2.573 -14.247  12.366  0.00  0.00    +0.280 C 
ENDBRANCH  22   3
ENDBRANCH  15  22
BRANCH  13   7
ATOM      7  N   UNL     1      -6.722  -7.595   8.761  0.00  0.00    -0.312 NA
ATOM     37  H   UNL     1      -6.215  -6.986   8.117  0.00  0.00    +0.122 HD
BRANCH   7  23
ATOM     23  C   UNL     1      -8.097  -7.717   8.305  0.00  0.00    +0.100 C 
BRANCH  23  28
ATOM     28  C   UNL     1      -8.284  -6.983   6.986  0.00  0.00    +0.119 C 
BRANCH  28   9
ATOM      5  O   UNL     1      -6.669  -8.708   5.299  0.00  0.00    -0.276 OA
ATOM      9  N   UNL     1      -8.742  -7.874   5.955  0.00  0.00    -0.314 N 
ATOM     35  C   UNL     1      -7.892  -8.666   5.195  0.00  0.00    +0.210 C 
ATOM     36  C   UNL     1      -8.633  -9.523   4.205  0.00  0.00    +0.109 C 
ATOM     39  H   UNL     1      -9.742  -7.919   5.780  0.00  0.00    +0.149 HD
ENDBRANCH  28   9
ENDBRANCH  23  28
ENDBRANCH   7  23
ENDBRANCH  13   7
TORSDOF 7
ENDMDL
MODEL 6
REMARK VINA RESULT:      -6.7     29.158     30.956
REMARK  Name = 25389790
REMARK  9 active torsions:
REMARK  status: ('A' for Active; 'I' for Inactive)
REMARK    1  A    between atoms: O_3  and  C_22
REMARK    2  A    between atoms: O_3  and  C_34
REMARK    3  A    between atoms: N_7  and  C_13
REMARK    4  A    between atoms: N_7  and  C_23
REMARK    5  A    between atoms: N_9  and  C_28
REMARK    6  A    between atoms: C_11  and  C_19
REMARK    7  A    between atoms: C_15  and  C_22
REMARK    8  A    between atoms: C_23  and  C_28
REMARK    9  A    between atoms: C_35  and  C_36
REMARK                            x       y       z     vdW  Elec       q    Type
REMARK                         _______ _______ _______ _____ _____    ______ ____
ROOT
ATOM      6  N   UNL     1      -7.614 -11.557  14.858  0.00  0.00    -0.274 NA
ATOM      8  N   UNL     1      -7.423  -9.835  11.492  0.00  0.00    -0.356 N 
ATOM     10  C   UNL     1      -8.234 -11.169  13.538  0.00  0.00    +0.106 C 
ATOM     11  C   UNL     1      -7.394 -10.372  15.744  0.00  0.00    +0.090 C 
ATOM     12  C   UNL     1      -9.485 -10.295  13.695  0.00  0.00    +0.044 C 
ATOM     13  C   UNL     1      -9.205  -9.050  14.531  0.00  0.00    +0.057 C 
ATOM     14  C   UNL     1      -8.661  -9.491  15.885  0.00  0.00    +0.042 C 
ATOM     15  C   UNL     1      -6.388 -12.366  14.550  0.00  0.00    +0.172 C 
ATOM     16  C   UNL     1      -7.195 -10.586  12.611  0.00  0.00    +0.038 A 
ATOM     17  C   UNL     1      -5.258 -11.583  13.841  0.00  0.00    +0.068 C 
ATOM     18  C   UNL     1      -5.832 -10.777  12.726  0.00  0.00    -0.016 A 
ATOM     20  C   UNL     1      -5.203 -10.088  11.655  0.00  0.00    +0.003 A 
ATOM     21  C   UNL     1      -6.223  -9.505  10.897  0.00  0.00    +0.047 A 
ATOM     26  C   UNL     1      -3.866  -9.901  11.252  0.00  0.00    +0.010 A 
ATOM     27  C   UNL     1      -5.968  -8.743   9.751  0.00  0.00    +0.026 A 
ATOM     29  C   UNL     1      -3.598  -9.140  10.109  0.00  0.00    +0.001 A 
ATOM     32  C   UNL     1      -4.634  -8.570   9.372  0.00  0.00    +0.002 A 
ATOM     38  H   UNL     1      -8.330  -9.553  11.147  0.00  0.00    +0.166 HD
ENDROOT
BRANCH  11  19
ATOM      1  F   UNL     1      -8.252 -12.346  20.145  0.00  0.00    -0.202 F 
ATOM      2  F   UNL     1      -5.749 -11.654  21.002  0.00  0.00    -0.202 F 
ATOM     19  C   UNL     1      -6.950 -10.718  17.163  0.00  0.00    -0.027 A 
ATOM     24  C   UNL     1      -7.821 -11.387  18.023  0.00  0.00    +0.046 A 
ATOM     25  C   UNL     1      -5.674 -10.365  17.600  0.00  0.00    +0.008 A 
ATOM     30  C   UNL     1      -7.416 -11.703  19.319  0.00  0.00    +0.159 A 
ATOM     31  C   UNL     1      -5.268 -10.681  18.897  0.00  0.00    +0.041 A 
ATOM     33  C   UNL     1      -6.139 -11.351  19.757  0.00  0.00    +0.158 A 
ENDBRANCH  11  19
BRANCH  15  22
ATOM      4  O   UNL     1      -4.764 -12.964  16.216  0.00  0.00    -0.249 OA
ATOM     22  C   UNL     1      -5.891 -13.087  15.759  0.00  0.00    +0.325 C 
BRANCH  22   3
ATOM      3  O   UNL     1      -6.881 -13.885  16.252  0.00  0.00    -0.467 OA
ATOM     34  C   UNL     1      -6.487 -15.220  16.585  0.00  0.00    +0.280 C 
ENDBRANCH  22   3
ENDBRANCH  15  22
BRANCH  13   7
ATOM      7  N   UNL     1     -10.424  -8.261  14.712  0.00  0.00    -0.312 NA
ATOM     37  H   UNL     1     -11.171  -8.862  15.060  0.00  0.00    +0.122 HD
BRANCH   7  23
ATOM     23  C   UNL     1     -10.204  -7.186  15.666  0.00  0.00    +0.100 C 
BRANCH  23  28
ATOM     28  C   UNL     1     -11.410  -6.258  15.703  0.00  0.00    +0.119 C 
BRANCH  28   9
ATOM      5  O   UNL     1     -13.714  -5.472  14.120  0.00  0.00    -0.276 OA
ATOM      9  N   UNL     1     -11.429  -5.383  14.562  0.00  0.00    -0.314 N 
ATOM     35  C   UNL     1     -12.585  -5.062  13.863  0.00  0.00    +0.210 C 
ATOM     36  C   UNL     1     -12.326  -4.108  12.729  0.00  0.00    +0.109 C 
ATOM     39  H   UNL     1     -10.544  -4.985  14.258  0.00  0.00    +0.149 HD
ENDBRANCH  28   9
ENDBRANCH  23  28
ENDBRANCH   7  23
ENDBRANCH  13   7
TORSDOF 7
ENDMDL
MODEL 7
REMARK VINA RESULT:      -6.6     33.029     35.141
REMARK  Name = 25389790
REMARK  9 active torsions:
REMARK  status: ('A' for Active; 'I' for Inactive)
REMARK    1  A    between atoms: O_3  and  C_22
REMARK    2  A    between atoms: O_3  and  C_34
REMARK    3  A    between atoms: N_7  and  C_13
REMARK    4  A    between atoms: N_7  and  C_23
REMARK    5  A    between atoms: N_9  and  C_28
REMARK    6  A    between atoms: C_11  and  C_19
REMARK    7  A    between atoms: C_15  and  C_22
REMARK    8  A    between atoms: C_23  and  C_28
REMARK    9  A    between atoms: C_35  and  C_36
REMARK                            x       y       z     vdW  Elec       q    Type
REMARK                         _______ _______ _______ _____ _____    ______ ____
ROOT
ATOM      6  N   UNL     1      -5.606 -11.544  10.052  0.00  0.00    -0.274 NA
ATOM      8  N   UNL     1      -5.806 -11.422   6.274  0.00  0.00    -0.356 N 
ATOM     10  C   UNL     1      -6.391 -11.344   8.778  0.00  0.00    +0.106 C 
ATOM     11  C   UNL     1      -4.608 -10.452  10.273  0.00  0.00    +0.090 C 
ATOM     12  C   UNL     1      -6.999  -9.940   8.661  0.00  0.00    +0.044 C 
ATOM     13  C   UNL     1      -5.941  -8.851   8.804  0.00  0.00    +0.057 C 
ATOM     14  C   UNL     1      -5.232  -9.039  10.140  0.00  0.00    +0.042 C 
ATOM     15  C   UNL     1      -5.040 -12.933  10.009  0.00  0.00    +0.172 C 
ATOM     16  C   UNL     1      -5.575 -11.758   7.578  0.00  0.00    +0.038 A 
ATOM     17  C   UNL     1      -3.987 -13.169   8.901  0.00  0.00    +0.068 C 
ATOM     18  C   UNL     1      -4.482 -12.603   7.614  0.00  0.00    -0.016 A 
ATOM     20  C   UNL     1      -4.010 -12.760   6.284  0.00  0.00    +0.003 A 
ATOM     21  C   UNL     1      -4.857 -12.009   5.464  0.00  0.00    +0.047 A 
ATOM     26  C   UNL     1      -2.946 -13.468   5.692  0.00  0.00    +0.010 A 
ATOM     27  C   UNL     1      -4.689 -11.932   4.076  0.00  0.00    +0.026 A 
ATOM     29  C   UNL     1      -2.766 -13.400   4.306  0.00  0.00    +0.001 A 
ATOM     32  C   UNL     1      -3.625 -12.643   3.512  0.00  0.00    +0.002 A 
ATOM     38  H   UNL     1      -6.555 -10.828   5.942  0.00  0.00    +0.166 HD
ENDROOT
BRANCH  11  19
ATOM      1  F   UNL     1      -4.778 -10.414  15.169  0.00  0.00    -0.202 F 
ATOM      2  F   UNL     1      -2.054 -10.598  15.317  0.00  0.00    -0.202 F 
ATOM     19  C   UNL     1      -3.918 -10.491  11.634  0.00  0.00    -0.027 A 
ATOM     24  C   UNL     1      -4.678 -10.433  12.803  0.00  0.00    +0.046 A 
ATOM     25  C   UNL     1      -2.529 -10.585  11.710  0.00  0.00    +0.008 A 
ATOM     30  C   UNL     1      -4.048 -10.469  14.046  0.00  0.00    +0.159 A 
ATOM     31  C   UNL     1      -1.899 -10.621  12.954  0.00  0.00    +0.041 A 
ATOM     33  C   UNL     1      -2.659 -10.564  14.123  0.00  0.00    +0.158 A 
ENDBRANCH  11  19
BRANCH  15  22
ATOM      4  O   UNL     1      -5.233 -13.402  12.358  0.00  0.00    -0.249 OA
ATOM     22  C   UNL     1      -4.541 -13.361  11.350  0.00  0.00    +0.325 C 
BRANCH  22   3
ATOM      3  O   UNL     1      -3.221 -13.689  11.261  0.00  0.00    -0.467 OA
ATOM     34  C   UNL     1      -2.650 -14.268  12.440  0.00  0.00    +0.280 C 
ENDBRANCH  22   3
ENDBRANCH  15  22
BRANCH  13   7
ATOM      7  N   UNL     1      -6.552  -7.523   8.742  0.00  0.00    -0.312 NA
ATOM     37  H   UNL     1      -6.219  -7.031   7.912  0.00  0.00    +0.122 HD
BRANCH   7  23
ATOM     23  C   UNL     1      -8.001  -7.626   8.675  0.00  0.00    +0.100 C 
BRANCH  23  28
ATOM     28  C   UNL     1      -8.559  -6.601   7.698  0.00  0.00    +0.119 C 
BRANCH  28   9
ATOM      5  O   UNL     1     -11.351  -5.864   8.001  0.00  0.00    -0.276 OA
ATOM      9  N   UNL     1      -9.092  -5.459   8.391  0.00  0.00    -0.314 N 
ATOM     35  C   UNL     1     -10.450  -5.185   8.485  0.00  0.00    +0.210 C 
ATOM     36  C   UNL     1     -10.734  -3.943   9.286  0.00  0.00    +0.109 C 
ATOM     39  H   UNL     1      -8.431  -4.824   8.830  0.00  0.00    +0.149 HD
ENDBRANCH  28   9
ENDBRANCH  23  28
ENDBRANCH   7  23
ENDBRANCH  13   7
TORSDOF 7
ENDMDL
MODEL 8
REMARK VINA RESULT:      -6.6     32.029     39.017
REMARK  Name = 25389790
REMARK  9 active torsions:
REMARK  status: ('A' for Active; 'I' for Inactive)
REMARK    1  A    between atoms: O_3  and  C_22
REMARK    2  A    between atoms: O_3  and  C_34
REMARK    3  A    between atoms: N_7  and  C_13
REMARK    4  A    between atoms: N_7  and  C_23
REMARK    5  A    between atoms: N_9  and  C_28
REMARK    6  A    between atoms: C_11  and  C_19
REMARK    7  A    between atoms: C_15  and  C_22
REMARK    8  A    between atoms: C_23  and  C_28
REMARK    9  A    between atoms: C_35  and  C_36
REMARK                            x       y       z     vdW  Elec       q    Type
REMARK                         _______ _______ _______ _____ _____    ______ ____
ROOT
ATOM      6  N   UNL     1      14.948   8.601   2.954  0.00  0.00    -0.274 NA
ATOM      8  N   UNL     1      17.380   9.174   5.798  0.00  0.00    -0.356 N 
ATOM     10  C   UNL     1      15.405   9.383   4.162  0.00  0.00    +0.106 C 
ATOM     11  C   UNL     1      14.472   7.231   3.320  0.00  0.00    +0.090 C 
ATOM     12  C   UNL     1      14.376   9.386   5.300  0.00  0.00    +0.044 C 
ATOM     13  C   UNL     1      13.977   7.972   5.708  0.00  0.00    +0.057 C 
ATOM     14  C   UNL     1      13.443   7.247   4.479  0.00  0.00    +0.042 C 
ATOM     15  C   UNL     1      16.061   8.649   1.949  0.00  0.00    +0.172 C 
ATOM     16  C   UNL     1      16.785   8.947   4.589  0.00  0.00    +0.038 A 
ATOM     17  C   UNL     1      17.353   7.915   2.381  0.00  0.00    +0.068 C 
ATOM     18  C   UNL     1      17.694   8.289   3.783  0.00  0.00    -0.016 A 
ATOM     20  C   UNL     1      18.875   8.077   4.542  0.00  0.00    +0.003 A 
ATOM     21  C   UNL     1      18.652   8.641   5.802  0.00  0.00    +0.047 A 
ATOM     26  C   UNL     1      20.117   7.463   4.285  0.00  0.00    +0.010 A 
ATOM     27  C   UNL     1      19.614   8.620   6.819  0.00  0.00    +0.026 A 
ATOM     29  C   UNL     1      21.087   7.433   5.293  0.00  0.00    +0.001 A 
ATOM     32  C   UNL     1      20.837   8.003   6.540  0.00  0.00    +0.002 A 
ATOM     38  H   UNL     1      16.957   9.655   6.581  0.00  0.00    +0.166 HD
ENDROOT
BRANCH  11  19
ATOM      1  F   UNL     1      14.304   3.398   0.273  0.00  0.00    -0.202 F 
ATOM      2  F   UNL     1      12.049   4.381  -0.922  0.00  0.00    -0.202 F 
ATOM     19  C   UNL     1      13.819   6.462   2.175  0.00  0.00    -0.027 A 
ATOM     24  C   UNL     1      14.371   5.258   1.738  0.00  0.00    +0.046 A 
ATOM     25  C   UNL     1      12.669   6.963   1.565  0.00  0.00    +0.008 A 
ATOM     30  C   UNL     1      13.774   4.555   0.692  0.00  0.00    +0.159 A 
ATOM     31  C   UNL     1      12.071   6.260   0.519  0.00  0.00    +0.041 A 
ATOM     33  C   UNL     1      12.623   5.055   0.082  0.00  0.00    +0.158 A 
ENDBRANCH  11  19
BRANCH  15  22
ATOM      4  O   UNL     1      14.642   8.698   0.012  0.00  0.00    -0.249 OA
ATOM     22  C   UNL     1      15.598   8.212   0.599  0.00  0.00    +0.325 C 
BRANCH  22   3
ATOM      3  O   UNL     1      16.399   7.206   0.146  0.00  0.00    -0.467 OA
ATOM     34  C   UNL     1      16.086   6.711  -1.160  0.00  0.00    +0.280 C 
ENDBRANCH  22   3
ENDBRANCH  15  22
BRANCH  13   7
ATOM      7  N   UNL     1      12.957   8.002   6.757  0.00  0.00    -0.312 NA
ATOM     37  H   UNL     1      12.075   8.335   6.367  0.00  0.00    +0.122 HD
BRANCH   7  23
ATOM     23  C   UNL     1      12.752   6.675   7.314  0.00  0.00    +0.100 C 
BRANCH  23  28
ATOM     28  C   UNL     1      11.351   6.177   6.991  0.00  0.00    +0.119 C 
BRANCH  28   9
ATOM      5  O   UNL     1       8.942   6.571   8.564  0.00  0.00    -0.276 OA
ATOM      9  N   UNL     1      10.844   5.334   8.040  0.00  0.00    -0.314 N 
ATOM     35  C   UNL     1       9.676   5.603   8.741  0.00  0.00    +0.210 C 
ATOM     36  C   UNL     1       9.363   4.546   9.766  0.00  0.00    +0.109 C 
ATOM     39  H   UNL     1      11.377   4.500   8.273  0.00  0.00    +0.149 HD
ENDBRANCH  28   9
ENDBRANCH  23  28
ENDBRANCH   7  23
ENDBRANCH  13   7
TORSDOF 7
ENDMDL
MODEL 9
REMARK VINA RESULT:      -6.5     32.992     36.632
REMARK  Name = 25389790
REMARK  9 active torsions:
REMARK  status: ('A' for Active; 'I' for Inactive)
REMARK    1  A    between atoms: O_3  and  C_22
REMARK    2  A    between atoms: O_3  and  C_34
REMARK    3  A    between atoms: N_7  and  C_13
REMARK    4  A    between atoms: N_7  and  C_23
REMARK    5  A    between atoms: N_9  and  C_28
REMARK    6  A    between atoms: C_11  and  C_19
REMARK    7  A    between atoms: C_15  and  C_22
REMARK    8  A    between atoms: C_23  and  C_28
REMARK    9  A    between atoms: C_35  and  C_36
REMARK                            x       y       z     vdW  Elec       q    Type
REMARK                         _______ _______ _______ _____ _____    ______ ____
ROOT
ATOM      6  N   UNL     1       9.987   8.536   3.845  0.00  0.00    -0.274 NA
ATOM      8  N   UNL     1       7.723   9.179   0.880  0.00  0.00    -0.356 N 
ATOM     10  C   UNL     1       9.785   8.845   2.381  0.00  0.00    +0.106 C 
ATOM     11  C   UNL     1       9.536   7.153   4.192  0.00  0.00    +0.090 C 
ATOM     12  C   UNL     1      10.369   7.771   1.454  0.00  0.00    +0.044 C 
ATOM     13  C   UNL     1       9.823   6.385   1.779  0.00  0.00    +0.057 C 
ATOM     14  C   UNL     1      10.123   6.078   3.241  0.00  0.00    +0.042 C 
ATOM     15  C   UNL     1       9.334   9.640   4.624  0.00  0.00    +0.172 C 
ATOM     16  C   UNL     1       8.340   9.175   2.099  0.00  0.00    +0.038 A 
ATOM     17  C   UNL     1       7.795   9.708   4.482  0.00  0.00    +0.068 C 
ATOM     18  C   UNL     1       7.420   9.585   3.045  0.00  0.00    -0.016 A 
ATOM     20  C   UNL     1       6.186   9.815   2.381  0.00  0.00    +0.003 A 
ATOM     21  C   UNL     1       6.403   9.553   1.025  0.00  0.00    +0.047 A 
ATOM     26  C   UNL     1       4.903  10.224   2.796  0.00  0.00    +0.010 A 
ATOM     27  C   UNL     1       5.394   9.680   0.062  0.00  0.00    +0.026 A 
ATOM     29  C   UNL     1       3.886  10.353   1.844  0.00  0.00    +0.001 A 
ATOM     32  C   UNL     1       4.130  10.085   0.499  0.00  0.00    +0.002 A 
ATOM     38  H   UNL     1       8.157   8.941  -0.001  0.00  0.00    +0.166 HD
ENDROOT
BRANCH  11  19
ATOM      1  F   UNL     1      12.825   6.248   7.709  0.00  0.00    -0.202 F 
ATOM      2  F   UNL     1      10.844   5.515   9.446  0.00  0.00    -0.202 F 
ATOM     19  C   UNL     1       9.889   6.710   5.610  0.00  0.00    -0.027 A 
ATOM     24  C   UNL     1      11.222   6.680   6.021  0.00  0.00    +0.046 A 
ATOM     25  C   UNL     1       8.879   6.337   6.496  0.00  0.00    +0.008 A 
ATOM     30  C   UNL     1      11.544   6.276   7.315  0.00  0.00    +0.159 A 
ATOM     31  C   UNL     1       9.201   5.933   7.792  0.00  0.00    +0.041 A 
ATOM     33  C   UNL     1      10.534   5.903   8.202  0.00  0.00    +0.158 A 
ENDBRANCH  11  19
BRANCH  15  22
ATOM      4  O   UNL     1       9.000   9.445   6.995  0.00  0.00    -0.249 OA
ATOM     22  C   UNL     1       9.760   9.625   6.055  0.00  0.00    +0.325 C 
BRANCH  22   3
ATOM      3  O   UNL     1      11.104   9.840   6.131  0.00  0.00    -0.467 OA
ATOM     34  C   UNL     1      11.526  11.187   5.888  0.00  0.00    +0.280 C 
ENDBRANCH  22   3
ENDBRANCH  15  22
BRANCH  13   7
ATOM      7  N   UNL     1      10.434   5.372   0.917  0.00  0.00    -0.312 NA
ATOM     37  H   UNL     1      10.310   5.635  -0.061  0.00  0.00    +0.122 HD
BRANCH   7  23
ATOM     23  C   UNL     1      11.857   5.252   1.193  0.00  0.00    +0.100 C 
BRANCH  23  28
ATOM     28  C   UNL     1      12.313   3.813   1.003  0.00  0.00    +0.119 C 
BRANCH  28   9
ATOM      5  O   UNL     1      10.816   3.295  -1.431  0.00  0.00    -0.276 OA
ATOM      9  N   UNL     1      12.839   3.604  -0.319  0.00  0.00    -0.314 N 
ATOM     35  C   UNL     1      12.043   3.361  -1.430  0.00  0.00    +0.210 C 
ATOM     36  C   UNL     1      12.847   3.204  -2.692  0.00  0.00    +0.109 C 
ATOM     39  H   UNL     1      13.848   3.636  -0.434  0.00  0.00    +0.149 HD
ENDBRANCH  28   9
ENDBRANCH  23  28
ENDBRANCH   7  23
ENDBRANCH  13   7
TORSDOF 7
ENDMDL
MODEL 10
REMARK VINA RESULT:      -6.5     25.542     28.834
REMARK  Name = 25389790
REMARK  9 active torsions:
REMARK  status: ('A' for Active; 'I' for Inactive)
REMARK    1  A    between atoms: O_3  and  C_22
REMARK    2  A    between atoms: O_3  and  C_34
REMARK    3  A    between atoms: N_7  and  C_13
REMARK    4  A    between atoms: N_7  and  C_23
REMARK    5  A    between atoms: N_9  and  C_28
REMARK    6  A    between atoms: C_11  and  C_19
REMARK    7  A    between atoms: C_15  and  C_22
REMARK    8  A    between atoms: C_23  and  C_28
REMARK    9  A    between atoms: C_35  and  C_36
REMARK                            x       y       z     vdW  Elec       q    Type
REMARK                         _______ _______ _______ _____ _____    ______ ____
ROOT
ATOM      6  N   UNL     1      21.794   7.053  22.072  0.00  0.00    -0.274 NA
ATOM      8  N   UNL     1      19.004   6.111  19.693  0.00  0.00    -0.356 N 
ATOM     10  C   UNL     1      21.313   6.612  20.711  0.00  0.00    +0.106 C 
ATOM     11  C   UNL     1      21.589   5.994  23.109  0.00  0.00    +0.090 C 
ATOM     12  C   UNL     1      21.868   5.244  20.292  0.00  0.00    +0.044 C 
ATOM     13  C   UNL     1      21.568   4.168  21.330  0.00  0.00    +0.057 C 
ATOM     14  C   UNL     1      22.144   4.615  22.669  0.00  0.00    +0.042 C 
ATOM     15  C   UNL     1      21.143   8.373  22.364  0.00  0.00    +0.172 C 
ATOM     16  C   UNL     1      19.811   6.716  20.615  0.00  0.00    +0.038 A 
ATOM     17  C   UNL     1      19.606   8.313  22.530  0.00  0.00    +0.068 C 
ATOM     18  C   UNL     1      19.016   7.500  21.429  0.00  0.00    -0.016 A 
ATOM     20  C   UNL     1      17.670   7.340  21.007  0.00  0.00    +0.003 A 
ATOM     21  C   UNL     1      17.690   6.464  19.917  0.00  0.00    +0.047 A 
ATOM     26  C   UNL     1      16.432   7.855  21.441  0.00  0.00    +0.010 A 
ATOM     27  C   UNL     1      16.527   6.078  19.240  0.00  0.00    +0.026 A 
ATOM     29  C   UNL     1      15.262   7.476  20.773  0.00  0.00    +0.001 A 
ATOM     32  C   UNL     1      15.312   6.601  19.690  0.00  0.00    +0.002 A 
ATOM     38  H   UNL     1      19.313   5.492  18.956  0.00  0.00    +0.166 HD
ENDROOT
BRANCH  11  19
ATOM      1  F   UNL     1      21.232   6.993  27.892  0.00  0.00    -0.202 F 
ATOM      2  F   UNL     1      23.954   7.134  28.120  0.00  0.00    -0.202 F 
ATOM     19  C   UNL     1      22.227   6.302  24.461  0.00  0.00    -0.027 A 
ATOM     24  C   UNL     1      21.423   6.512  25.581  0.00  0.00    +0.046 A 
ATOM     25  C   UNL     1      23.615   6.374  24.577  0.00  0.00    +0.008 A 
ATOM     30  C   UNL     1      22.005   6.793  26.816  0.00  0.00    +0.159 A 
ATOM     31  C   UNL     1      24.199   6.655  25.813  0.00  0.00    +0.041 A 
ATOM     33  C   UNL     1      23.393   6.864  26.933  0.00  0.00    +0.158 A 
ENDBRANCH  11  19
BRANCH  15  22
ATOM      4  O   UNL     1      22.998   9.301  23.576  0.00  0.00    -0.249 OA
ATOM     22  C   UNL     1      21.800   9.064  23.513  0.00  0.00    +0.325 C 
BRANCH  22   3
ATOM      3  O   UNL     1      20.863   9.375  24.453  0.00  0.00    -0.467 OA
ATOM     34  C   UNL     1      21.297  10.273  25.481  0.00  0.00    +0.280 C 
ENDBRANCH  22   3
ENDBRANCH  15  22
BRANCH  13   7
ATOM      7  N   UNL     1      22.152   2.887  20.934  0.00  0.00    -0.312 NA
ATOM     37  H   UNL     1      22.341   2.893  19.932  0.00  0.00    +0.122 HD
BRANCH   7  23
ATOM     23  C   UNL     1      23.398   2.648  21.644  0.00  0.00    +0.100 C 
BRANCH  23  28
ATOM     28  C   UNL     1      24.400   1.952  20.734  0.00  0.00    +0.119 C 
BRANCH  28   9
ATOM      5  O   UNL     1      27.139   2.916  20.674  0.00  0.00    -0.276 OA
ATOM      9  N   UNL     1      24.981   2.876  19.798  0.00  0.00    -0.314 N 
ATOM     35  C   UNL     1      26.308   3.282  19.846  0.00  0.00    +0.210 C 
ATOM     36  C   UNL     1      26.661   4.232  18.734  0.00  0.00    +0.109 C 
ATOM     39  H   UNL     1      24.380   3.246  19.067  0.00  0.00    +0.149 HD
ENDBRANCH  28   9
ENDBRANCH  23  28
ENDBRANCH   7  23
ENDBRANCH  13   7
TORSDOF 7
ENDMDL
