MODEL 1
REMARK VINA RESULT:      -7.9      0.000      0.000
REMARK  Name = 75536125
REMARK  7 active torsions:
REMARK  status: ('A' for Active; 'I' for Inactive)
REMARK    1  A    between atoms: O_2  and  C_10
REMARK    2  A    between atoms: O_3  and  C_12
REMARK    3  A    between atoms: N_5  and  C_9
REMARK    4  A    between atoms: N_5  and  C_14
REMARK    5  A    between atoms: N_7  and  C_18
REMARK    6  A    between atoms: C_8  and  C_13
REMARK    7  A    between atoms: C_14  and  C_19
REMARK                            x       y       z     vdW  Elec       q    Type
REMARK                         _______ _______ _______ _____ _____    ______ ____
ROOT
ATOM      8  C   UNL     1      14.421   8.457  19.389  0.00  0.00    +0.042 C 
ATOM      9  C   UNL     1      13.270   8.253  20.422  0.00  0.00    +0.093 C 
ATOM     10  C   UNL     1      12.159   7.527  19.647  0.00  0.00    +0.160 C 
ATOM     11  C   UNL     1      13.911   7.854  18.066  0.00  0.00    +0.043 C 
ATOM     12  C   UNL     1      12.396   7.933  18.196  0.00  0.00    +0.145 C 
ENDROOT
BRANCH   8  13
ATOM      6  N   UNL     1      17.794   8.156  21.096  0.00  0.00    -0.240 NA
ATOM     13  C   UNL     1      15.753   7.889  19.829  0.00  0.00    -0.024 A 
ATOM     15  C   UNL     1      16.175   6.634  19.402  0.00  0.00    +0.009 A 
ATOM     16  C   UNL     1      16.593   8.604  20.668  0.00  0.00    +0.116 A 
ATOM     17  C   UNL     1      17.404   6.140  19.821  0.00  0.00    +0.044 A 
ATOM     18  C   UNL     1      18.170   6.932  20.660  0.00  0.00    +0.121 A 
BRANCH  18   7
ATOM      4  O   UNL     1      21.752   5.169  21.981  0.00  0.00    -0.377 OA
ATOM      7  N   UNL     1      19.405   6.422  21.072  0.00  0.00    -0.311 N 
ATOM     20  C   UNL     1      19.943   5.250  20.367  0.00  0.00    +0.134 C 
ATOM     21  C   UNL     1      19.819   6.552  22.474  0.00  0.00    +0.134 C 
ATOM     24  C   UNL     1      21.448   5.163  20.587  0.00  0.00    +0.178 C 
ATOM     25  C   UNL     1      21.332   6.395  22.581  0.00  0.00    +0.178 C 
ENDBRANCH  18   7
ENDBRANCH   8  13
BRANCH  10   2
ATOM      2  O   UNL     1      12.339   6.122  19.813  0.00  0.00    -0.388 OA
ATOM     30  H   UNL     1      12.824   5.795  19.036  0.00  0.00    +0.210 HD
ENDBRANCH  10   2
BRANCH  12   3
ATOM      3  O   UNL     1      11.755   7.072  17.277  0.00  0.00    -0.389 OA
ATOM     31  H   UNL     1      11.496   7.606  16.506  0.00  0.00    +0.210 HD
ENDBRANCH  12   3
BRANCH   9   5
ATOM      5  N   UNL     1      12.787   9.557  20.881  0.00  0.00    -0.306 NA
ATOM     29  H   UNL     1      12.283  10.014  20.120  0.00  0.00    +0.123 HD
BRANCH   5  14
ATOM     14  C   UNL     1      11.883   9.407  22.013  0.00  0.00    +0.116 C 
BRANCH  14  19
ATOM      1 CL   UNL     1      10.049  14.729  24.135  0.00  0.00    -0.084 Cl
ATOM     19  C   UNL     1      11.425  10.738  22.545  0.00  0.00    -0.033 A 
ATOM     22  C   UNL     1      11.367  11.845  21.697  0.00  0.00    +0.006 A 
ATOM     23  C   UNL     1      11.058  10.866  23.885  0.00  0.00    +0.006 A 
ATOM     26  C   UNL     1      10.943  13.080  22.190  0.00  0.00    +0.020 A 
ATOM     27  C   UNL     1      10.634  12.101  24.377  0.00  0.00    +0.020 A 
ATOM     28  C   UNL     1      10.576  13.207  23.530  0.00  0.00    +0.041 A 
ENDBRANCH  14  19
ENDBRANCH   5  14
ENDBRANCH   9   5
TORSDOF 7
ENDMDL
MODEL 2
REMARK VINA RESULT:      -7.5      5.204     10.989
REMARK  Name = 75536125
REMARK  7 active torsions:
REMARK  status: ('A' for Active; 'I' for Inactive)
REMARK    1  A    between atoms: O_2  and  C_10
REMARK    2  A    between atoms: O_3  and  C_12
REMARK    3  A    between atoms: N_5  and  C_9
REMARK    4  A    between atoms: N_5  and  C_14
REMARK    5  A    between atoms: N_7  and  C_18
REMARK    6  A    between atoms: C_8  and  C_13
REMARK    7  A    between atoms: C_14  and  C_19
REMARK                            x       y       z     vdW  Elec       q    Type
REMARK                         _______ _______ _______ _____ _____    ______ ____
ROOT
ATOM      8  C   UNL     1      19.957   6.419  20.420  0.00  0.00    +0.042 C 
ATOM      9  C   UNL     1      20.357   5.183  21.287  0.00  0.00    +0.093 C 
ATOM     10  C   UNL     1      21.220   5.753  22.423  0.00  0.00    +0.160 C 
ATOM     11  C   UNL     1      20.623   7.636  21.091  0.00  0.00    +0.043 C 
ATOM     12  C   UNL     1      21.806   7.033  21.836  0.00  0.00    +0.145 C 
ENDROOT
BRANCH   8  13
ATOM      6  N   UNL     1      16.449   5.948  19.058  0.00  0.00    -0.240 NA
ATOM     13  C   UNL     1      18.465   6.583  20.232  0.00  0.00    -0.024 A 
ATOM     15  C   UNL     1      17.738   7.479  21.008  0.00  0.00    +0.009 A 
ATOM     16  C   UNL     1      17.779   5.848  19.278  0.00  0.00    +0.116 A 
ATOM     17  C   UNL     1      16.368   7.610  20.811  0.00  0.00    +0.044 A 
ATOM     18  C   UNL     1      15.777   6.830  19.832  0.00  0.00    +0.121 A 
BRANCH  18   7
ATOM      4  O   UNL     1      11.663   7.533  19.310  0.00  0.00    -0.377 OA
ATOM      7  N   UNL     1      14.398   6.973  19.643  0.00  0.00    -0.311 N 
ATOM     20  C   UNL     1      13.933   7.740  18.479  0.00  0.00    +0.134 C 
ATOM     21  C   UNL     1      13.499   6.990  20.802  0.00  0.00    +0.134 C 
ATOM     24  C   UNL     1      12.491   7.366  18.159  0.00  0.00    +0.178 C 
ATOM     25  C   UNL     1      12.079   6.656  20.358  0.00  0.00    +0.178 C 
ENDBRANCH  18   7
ENDBRANCH   8  13
BRANCH  10   2
ATOM      2  O   UNL     1      20.368   6.050  23.529  0.00  0.00    -0.388 OA
ATOM     30  H   UNL     1      19.792   5.278  23.669  0.00  0.00    +0.210 HD
ENDBRANCH  10   2
BRANCH  12   3
ATOM      3  O   UNL     1      22.294   7.914  22.827  0.00  0.00    -0.389 OA
ATOM     31  H   UNL     1      21.595   8.565  23.010  0.00  0.00    +0.210 HD
ENDBRANCH  12   3
BRANCH   9   5
ATOM      5  N   UNL     1      21.148   4.254  20.478  0.00  0.00    -0.306 NA
ATOM     29  H   UNL     1      21.796   4.785  19.896  0.00  0.00    +0.123 HD
BRANCH   5  14
ATOM     14  C   UNL     1      21.916   3.353  21.326  0.00  0.00    +0.116 C 
BRANCH  14  19
ATOM      1 CL   UNL     1      27.727   3.221  19.773  0.00  0.00    -0.084 Cl
ATOM     19  C   UNL     1      23.370   3.321  20.938  0.00  0.00    -0.033 A 
ATOM     22  C   UNL     1      24.163   2.229  21.294  0.00  0.00    +0.006 A 
ATOM     23  C   UNL     1      23.926   4.382  20.223  0.00  0.00    +0.006 A 
ATOM     26  C   UNL     1      25.511   2.199  20.934  0.00  0.00    +0.020 A 
ATOM     27  C   UNL     1      25.274   4.352  19.863  0.00  0.00    +0.020 A 
ATOM     28  C   UNL     1      26.066   3.261  20.219  0.00  0.00    +0.041 A 
ENDBRANCH  14  19
ENDBRANCH   5  14
ENDBRANCH   9   5
TORSDOF 7
ENDMDL
MODEL 3
REMARK VINA RESULT:      -7.2     31.262     32.507
REMARK  Name = 75536125
REMARK  7 active torsions:
REMARK  status: ('A' for Active; 'I' for Inactive)
REMARK    1  A    between atoms: O_2  and  C_10
REMARK    2  A    between atoms: O_3  and  C_12
REMARK    3  A    between atoms: N_5  and  C_9
REMARK    4  A    between atoms: N_5  and  C_14
REMARK    5  A    between atoms: N_7  and  C_18
REMARK    6  A    between atoms: C_8  and  C_13
REMARK    7  A    between atoms: C_14  and  C_19
REMARK                            x       y       z     vdW  Elec       q    Type
REMARK                         _______ _______ _______ _____ _____    ______ ____
ROOT
ATOM      8  C   UNL     1     -16.229   1.832  29.546  0.00  0.00    +0.042 C 
ATOM      9  C   UNL     1     -15.132   2.633  30.314  0.00  0.00    +0.093 C 
ATOM     10  C   UNL     1     -14.183   1.566  30.885  0.00  0.00    +0.160 C 
ATOM     11  C   UNL     1     -15.868   0.345  29.724  0.00  0.00    +0.043 C 
ATOM     12  C   UNL     1     -15.059   0.324  31.015  0.00  0.00    +0.145 C 
ENDROOT
BRANCH   8  13
ATOM      6  N   UNL     1     -16.369   3.986  26.428  0.00  0.00    -0.240 NA
ATOM     13  C   UNL     1     -16.387   2.238  28.096  0.00  0.00    -0.024 A 
ATOM     15  C   UNL     1     -16.688   1.297  27.116  0.00  0.00    +0.009 A 
ATOM     16  C   UNL     1     -16.239   3.558  27.703  0.00  0.00    +0.116 A 
ATOM     17  C   UNL     1     -16.829   1.700  25.794  0.00  0.00    +0.044 A 
ATOM     18  C   UNL     1     -16.661   3.044  25.504  0.00  0.00    +0.121 A 
BRANCH  18   7
ATOM      4  O   UNL     1     -16.940   4.003  21.419  0.00  0.00    -0.377 OA
ATOM      7  N   UNL     1     -16.807   3.434  24.169  0.00  0.00    -0.311 N 
ATOM     20  C   UNL     1     -17.532   2.537  23.258  0.00  0.00    +0.134 C 
ATOM     21  C   UNL     1     -15.784   4.273  23.536  0.00  0.00    +0.134 C 
ATOM     24  C   UNL     1     -18.024   3.320  22.047  0.00  0.00    +0.178 C 
ATOM     25  C   UNL     1     -16.370   4.963  22.309  0.00  0.00    +0.178 C 
ENDBRANCH  18   7
ENDBRANCH   8  13
BRANCH  10   2
ATOM      2  O   UNL     1     -13.134   1.348  29.942  0.00  0.00    -0.388 OA
ATOM     30  H   UNL     1     -13.250   0.453  29.580  0.00  0.00    +0.210 HD
ENDBRANCH  10   2
BRANCH  12   3
ATOM      3  O   UNL     1     -14.305  -0.865  31.131  0.00  0.00    -0.389 OA
ATOM     31  H   UNL     1     -14.883  -1.542  31.522  0.00  0.00    +0.210 HD
ENDBRANCH  12   3
BRANCH   9   5
ATOM      5  N   UNL     1     -15.750   3.385  31.408  0.00  0.00    -0.306 NA
ATOM     29  H   UNL     1     -15.369   3.059  32.297  0.00  0.00    +0.123 HD
BRANCH   5  14
ATOM     14  C   UNL     1     -15.476   4.809  31.279  0.00  0.00    +0.116 C 
BRANCH  14  19
ATOM      1 CL   UNL     1     -12.859   7.040  36.216  0.00  0.00    -0.084 Cl
ATOM     19  C   UNL     1     -14.822   5.368  32.514  0.00  0.00    -0.033 A 
ATOM     22  C   UNL     1     -14.832   4.635  33.702  0.00  0.00    +0.006 A 
ATOM     23  C   UNL     1     -14.204   6.619  32.472  0.00  0.00    +0.006 A 
ATOM     26  C   UNL     1     -14.226   5.153  34.847  0.00  0.00    +0.020 A 
ATOM     27  C   UNL     1     -13.598   7.136  33.617  0.00  0.00    +0.020 A 
ATOM     28  C   UNL     1     -13.610   6.404  34.804  0.00  0.00    +0.041 A 
ENDBRANCH  14  19
ENDBRANCH   5  14
ENDBRANCH   9   5
TORSDOF 7
ENDMDL
MODEL 4
REMARK VINA RESULT:      -7.1     16.065     18.827
REMARK  Name = 75536125
REMARK  7 active torsions:
REMARK  status: ('A' for Active; 'I' for Inactive)
REMARK    1  A    between atoms: O_2  and  C_10
REMARK    2  A    between atoms: O_3  and  C_12
REMARK    3  A    between atoms: N_5  and  C_9
REMARK    4  A    between atoms: N_5  and  C_14
REMARK    5  A    between atoms: N_7  and  C_18
REMARK    6  A    between atoms: C_8  and  C_13
REMARK    7  A    between atoms: C_14  and  C_19
REMARK                            x       y       z     vdW  Elec       q    Type
REMARK                         _______ _______ _______ _____ _____    ______ ____
ROOT
ATOM      8  C   UNL     1      10.056   5.348   5.215  0.00  0.00    +0.042 C 
ATOM      9  C   UNL     1      10.437   6.578   6.097  0.00  0.00    +0.093 C 
ATOM     10  C   UNL     1      10.662   6.005   7.506  0.00  0.00    +0.160 C 
ATOM     11  C   UNL     1      10.065   4.132   6.160  0.00  0.00    +0.043 C 
ATOM     12  C   UNL     1       9.808   4.741   7.532  0.00  0.00    +0.145 C 
ENDROOT
BRANCH   8  13
ATOM      6  N   UNL     1      12.642   6.052   2.531  0.00  0.00    -0.240 NA
ATOM     13  C   UNL     1      10.938   5.165   3.999  0.00  0.00    -0.024 A 
ATOM     15  C   UNL     1      10.880   4.002   3.238  0.00  0.00    +0.009 A 
ATOM     16  C   UNL     1      11.828   6.152   3.606  0.00  0.00    +0.116 A 
ATOM     17  C   UNL     1      11.701   3.863   2.126  0.00  0.00    +0.044 A 
ATOM     18  C   UNL     1      12.557   4.907   1.817  0.00  0.00    +0.121 A 
BRANCH  18   7
ATOM      4  O   UNL     1      15.115   4.211  -1.447  0.00  0.00    -0.377 OA
ATOM      7  N   UNL     1      13.376   4.754   0.694  0.00  0.00    -0.311 N 
ATOM     20  C   UNL     1      13.120   3.617  -0.202  0.00  0.00    +0.134 C 
ATOM     21  C   UNL     1      14.768   5.216   0.735  0.00  0.00    +0.134 C 
ATOM     24  C   UNL     1      13.730   3.893  -1.571  0.00  0.00    +0.178 C 
ATOM     25  C   UNL     1      15.289   5.406  -0.685  0.00  0.00    +0.178 C 
ENDBRANCH  18   7
ENDBRANCH   8  13
BRANCH  10   2
ATOM      2  O   UNL     1      12.045   5.682   7.644  0.00  0.00    -0.388 OA
ATOM     30  H   UNL     1      12.123   5.033   8.364  0.00  0.00    +0.210 HD
ENDBRANCH  10   2
BRANCH  12   3
ATOM      3  O   UNL     1      10.178   3.854   8.567  0.00  0.00    -0.389 OA
ATOM     31  H   UNL     1       9.585   4.018   9.320  0.00  0.00    +0.210 HD
ENDBRANCH  12   3
BRANCH   9   5
ATOM      5  N   UNL     1       9.324   7.528   6.119  0.00  0.00    -0.306 NA
ATOM     29  H   UNL     1       9.662   8.447   5.829  0.00  0.00    +0.123 HD
BRANCH   5  14
ATOM     14  C   UNL     1       8.268   7.113   5.206  0.00  0.00    +0.116 C 
BRANCH  14  19
ATOM      1 CL   UNL     1       7.475  11.067   0.742  0.00  0.00    -0.084 Cl
ATOM     19  C   UNL     1       8.070   8.103   4.090  0.00  0.00    -0.033 A 
ATOM     22  C   UNL     1       8.646   7.870   2.840  0.00  0.00    +0.006 A 
ATOM     23  C   UNL     1       7.310   9.254   4.303  0.00  0.00    +0.006 A 
ATOM     26  C   UNL     1       8.463   8.788   1.805  0.00  0.00    +0.020 A 
ATOM     27  C   UNL     1       7.127  10.171   3.268  0.00  0.00    +0.020 A 
ATOM     28  C   UNL     1       7.704   9.938   2.020  0.00  0.00    +0.041 A 
ENDBRANCH  14  19
ENDBRANCH   5  14
ENDBRANCH   9   5
TORSDOF 7
ENDMDL
MODEL 5
REMARK VINA RESULT:      -7.1      5.015     10.564
REMARK  Name = 75536125
REMARK  7 active torsions:
REMARK  status: ('A' for Active; 'I' for Inactive)
REMARK    1  A    between atoms: O_2  and  C_10
REMARK    2  A    between atoms: O_3  and  C_12
REMARK    3  A    between atoms: N_5  and  C_9
REMARK    4  A    between atoms: N_5  and  C_14
REMARK    5  A    between atoms: N_7  and  C_18
REMARK    6  A    between atoms: C_8  and  C_13
REMARK    7  A    between atoms: C_14  and  C_19
REMARK                            x       y       z     vdW  Elec       q    Type
REMARK                         _______ _______ _______ _____ _____    ______ ____
ROOT
ATOM      8  C   UNL     1      19.863   7.458  21.226  0.00  0.00    +0.042 C 
ATOM      9  C   UNL     1      20.408   6.174  21.927  0.00  0.00    +0.093 C 
ATOM     10  C   UNL     1      20.991   6.664  23.262  0.00  0.00    +0.160 C 
ATOM     11  C   UNL     1      20.173   8.625  22.183  0.00  0.00    +0.043 C 
ATOM     12  C   UNL     1      21.360   8.120  22.992  0.00  0.00    +0.145 C 
ENDROOT
BRANCH   8  13
ATOM      6  N   UNL     1      16.184   8.331  20.937  0.00  0.00    -0.240 NA
ATOM     13  C   UNL     1      18.402   7.377  20.839  0.00  0.00    -0.024 A 
ATOM     15  C   UNL     1      17.922   6.325  20.064  0.00  0.00    +0.009 A 
ATOM     16  C   UNL     1      17.499   8.346  21.246  0.00  0.00    +0.116 A 
ATOM     17  C   UNL     1      16.575   6.276  19.726  0.00  0.00    +0.044 A 
ATOM     18  C   UNL     1      15.754   7.294  20.183  0.00  0.00    +0.121 A 
BRANCH  18   7
ATOM      4  O   UNL     1      11.671   7.377  19.182  0.00  0.00    -0.377 OA
ATOM      7  N   UNL     1      14.401   7.231  19.836  0.00  0.00    -0.311 N 
ATOM     20  C   UNL     1      13.967   7.914  18.610  0.00  0.00    +0.134 C 
ATOM     21  C   UNL     1      13.381   7.121  20.885  0.00  0.00    +0.134 C 
ATOM     24  C   UNL     1      12.641   7.329  18.137  0.00  0.00    +0.178 C 
ATOM     25  C   UNL     1      12.086   6.578  20.290  0.00  0.00    +0.178 C 
ENDBRANCH  18   7
ENDBRANCH   8  13
BRANCH  10   2
ATOM      2  O   UNL     1      19.971   6.578  24.256  0.00  0.00    -0.388 OA
ATOM     30  H   UNL     1      19.985   7.410  24.761  0.00  0.00    +0.210 HD
ENDBRANCH  10   2
BRANCH  12   3
ATOM      3  O   UNL     1      21.531   8.868  24.178  0.00  0.00    -0.389 OA
ATOM     31  H   UNL     1      21.156   8.348  24.909  0.00  0.00    +0.210 HD
ENDBRANCH  12   3
BRANCH   9   5
ATOM      5  N   UNL     1      21.467   5.582  21.108  0.00  0.00    -0.306 NA
ATOM     29  H   UNL     1      22.355   5.652  21.607  0.00  0.00    +0.123 HD
BRANCH   5  14
ATOM     14  C   UNL     1      21.193   4.177  20.842  0.00  0.00    +0.116 C 
BRANCH  14  19
ATOM      1 CL   UNL     1      25.334   0.576  23.307  0.00  0.00    -0.084 Cl
ATOM     19  C   UNL     1      22.230   3.276  21.458  0.00  0.00    -0.033 A 
ATOM     22  C   UNL     1      22.339   3.187  22.847  0.00  0.00    +0.006 A 
ATOM     23  C   UNL     1      23.082   2.531  20.642  0.00  0.00    +0.006 A 
ATOM     26  C   UNL     1      23.300   2.352  23.418  0.00  0.00    +0.020 A 
ATOM     27  C   UNL     1      24.043   1.697  21.214  0.00  0.00    +0.020 A 
ATOM     28  C   UNL     1      24.152   1.608  22.601  0.00  0.00    +0.041 A 
ENDBRANCH  14  19
ENDBRANCH   5  14
ENDBRANCH   9   5
TORSDOF 7
ENDMDL
MODEL 6
REMARK VINA RESULT:      -7.0     17.929     21.377
REMARK  Name = 75536125
REMARK  7 active torsions:
REMARK  status: ('A' for Active; 'I' for Inactive)
REMARK    1  A    between atoms: O_2  and  C_10
REMARK    2  A    between atoms: O_3  and  C_12
REMARK    3  A    between atoms: N_5  and  C_9
REMARK    4  A    between atoms: N_5  and  C_14
REMARK    5  A    between atoms: N_7  and  C_18
REMARK    6  A    between atoms: C_8  and  C_13
REMARK    7  A    between atoms: C_14  and  C_19
REMARK                            x       y       z     vdW  Elec       q    Type
REMARK                         _______ _______ _______ _____ _____    ______ ____
ROOT
ATOM      8  C   UNL     1      12.894   5.116   1.477  0.00  0.00    +0.042 C 
ATOM      9  C   UNL     1      13.318   3.616   1.404  0.00  0.00    +0.093 C 
ATOM     10  C   UNL     1      14.839   3.640   1.184  0.00  0.00    +0.160 C 
ATOM     11  C   UNL     1      14.187   5.930   1.278  0.00  0.00    +0.043 C 
ATOM     12  C   UNL     1      15.093   4.981   0.504  0.00  0.00    +0.145 C 
ENDROOT
BRANCH   8  13
ATOM      6  N   UNL     1      11.849   7.005   4.595  0.00  0.00    -0.240 NA
ATOM     13  C   UNL     1      12.144   5.486   2.738  0.00  0.00    -0.024 A 
ATOM     15  C   UNL     1      11.102   4.695   3.212  0.00  0.00    +0.009 A 
ATOM     16  C   UNL     1      12.476   6.621   3.461  0.00  0.00    +0.116 A 
ATOM     17  C   UNL     1      10.433   5.059   4.374  0.00  0.00    +0.044 A 
ATOM     18  C   UNL     1      10.842   6.212   5.024  0.00  0.00    +0.121 A 
BRANCH  18   7
ATOM      4  O   UNL     1       8.564   7.165   8.428  0.00  0.00    -0.377 OA
ATOM      7  N   UNL     1      10.161   6.565   6.193  0.00  0.00    -0.311 N 
ATOM     20  C   UNL     1       9.637   5.486   7.043  0.00  0.00    +0.134 C 
ATOM     21  C   UNL     1       9.414   7.826   6.253  0.00  0.00    +0.134 C 
ATOM     24  C   UNL     1       9.404   6.011   8.455  0.00  0.00    +0.178 C 
ATOM     25  C   UNL     1       9.192   8.225   7.708  0.00  0.00    +0.178 C 
ENDBRANCH  18   7
ENDBRANCH   8  13
BRANCH  10   2
ATOM      2  O   UNL     1      15.478   3.591   2.459  0.00  0.00    -0.388 OA
ATOM     30  H   UNL     1      14.936   4.112   3.077  0.00  0.00    +0.210 HD
ENDBRANCH  10   2
BRANCH  12   3
ATOM      3  O   UNL     1      16.445   5.384   0.579  0.00  0.00    -0.389 OA
ATOM     31  H   UNL     1      16.851   4.909   1.324  0.00  0.00    +0.210 HD
ENDBRANCH  12   3
BRANCH   9   5
ATOM      5  N   UNL     1      12.660   2.975   0.264  0.00  0.00    -0.306 NA
ATOM     29  H   UNL     1      12.154   2.150   0.589  0.00  0.00    +0.123 HD
BRANCH   5  14
ATOM     14  C   UNL     1      11.711   3.883  -0.365  0.00  0.00    +0.116 C 
BRANCH  14  19
ATOM      1 CL   UNL     1      11.236   2.876  -6.278  0.00  0.00    -0.084 Cl
ATOM     19  C   UNL     1      11.592   3.632  -1.844  0.00  0.00    -0.033 A 
ATOM     22  C   UNL     1      12.647   3.037  -2.538  0.00  0.00    +0.006 A 
ATOM     23  C   UNL     1      10.428   3.994  -2.523  0.00  0.00    +0.006 A 
ATOM     26  C   UNL     1      12.537   2.804  -3.910  0.00  0.00    +0.020 A 
ATOM     27  C   UNL     1      10.318   3.762  -3.894  0.00  0.00    +0.020 A 
ATOM     28  C   UNL     1      11.372   3.167  -4.587  0.00  0.00    +0.041 A 
ENDBRANCH  14  19
ENDBRANCH   5  14
ENDBRANCH   9   5
TORSDOF 7
ENDMDL
MODEL 7
REMARK VINA RESULT:      -7.0     26.382     28.453
REMARK  Name = 75536125
REMARK  7 active torsions:
REMARK  status: ('A' for Active; 'I' for Inactive)
REMARK    1  A    between atoms: O_2  and  C_10
REMARK    2  A    between atoms: O_3  and  C_12
REMARK    3  A    between atoms: N_5  and  C_9
REMARK    4  A    between atoms: N_5  and  C_14
REMARK    5  A    between atoms: N_7  and  C_18
REMARK    6  A    between atoms: C_8  and  C_13
REMARK    7  A    between atoms: C_14  and  C_19
REMARK                            x       y       z     vdW  Elec       q    Type
REMARK                         _______ _______ _______ _____ _____    ______ ____
ROOT
ATOM      8  C   UNL     1     -11.063   9.022  18.391  0.00  0.00    +0.042 C 
ATOM      9  C   UNL     1     -11.730  10.349  17.910  0.00  0.00    +0.093 C 
ATOM     10  C   UNL     1     -11.633  10.314  16.377  0.00  0.00    +0.160 C 
ATOM     11  C   UNL     1     -10.602   8.296  17.112  0.00  0.00    +0.043 C 
ATOM     12  C   UNL     1     -10.426   9.423  16.103  0.00  0.00    +0.145 C 
ENDROOT
BRANCH   8  13
ATOM      6  N   UNL     1     -14.161   7.346  19.796  0.00  0.00    -0.240 NA
ATOM     13  C   UNL     1     -11.950   8.171  19.273  0.00  0.00    -0.024 A 
ATOM     15  C   UNL     1     -11.422   7.451  20.340  0.00  0.00    +0.009 A 
ATOM     16  C   UNL     1     -13.314   8.085  19.046  0.00  0.00    +0.116 A 
ATOM     17  C   UNL     1     -12.262   6.679  21.134  0.00  0.00    +0.044 A 
ATOM     18  C   UNL     1     -13.612   6.660  20.824  0.00  0.00    +0.121 A 
BRANCH  18   7
ATOM      4  O   UNL     1     -16.014   4.090  23.127  0.00  0.00    -0.377 OA
ATOM      7  N   UNL     1     -14.444   5.880  21.632  0.00  0.00    -0.311 N 
ATOM     20  C   UNL     1     -13.817   4.980  22.610  0.00  0.00    +0.134 C 
ATOM     21  C   UNL     1     -15.751   5.443  21.129  0.00  0.00    +0.134 C 
ATOM     24  C   UNL     1     -14.821   4.625  23.701  0.00  0.00    +0.178 C 
ATOM     25  C   UNL     1     -16.652   5.062  22.299  0.00  0.00    +0.178 C 
ENDBRANCH  18   7
ENDBRANCH   8  13
BRANCH  10   2
ATOM      2  O   UNL     1     -12.825   9.720  15.865  0.00  0.00    -0.388 OA
ATOM     30  H   UNL     1     -12.624   9.383  14.975  0.00  0.00    +0.210 HD
ENDBRANCH  10   2
BRANCH  12   3
ATOM      3  O   UNL     1     -10.401   8.930  14.780  0.00  0.00    -0.389 OA
ATOM     31  H   UNL     1     -11.276   8.550  14.592  0.00  0.00    +0.210 HD
ENDBRANCH  12   3
BRANCH   9   5
ATOM      5  N   UNL     1     -10.976  11.492  18.431  0.00  0.00    -0.306 NA
ATOM     29  H   UNL     1     -10.589  12.022  17.649  0.00  0.00    +0.123 HD
BRANCH   5  14
ATOM     14  C   UNL     1     -11.838  12.372  19.208  0.00  0.00    +0.116 C 
BRANCH  14  19
ATOM      1 CL   UNL     1     -14.929   9.355  23.395  0.00  0.00    -0.084 Cl
ATOM     19  C   UNL     1     -12.610  11.618  20.256  0.00  0.00    -0.033 A 
ATOM     22  C   UNL     1     -13.996  11.491  20.145  0.00  0.00    +0.006 A 
ATOM     23  C   UNL     1     -11.943  11.045  21.339  0.00  0.00    +0.006 A 
ATOM     26  C   UNL     1     -14.713  10.792  21.116  0.00  0.00    +0.020 A 
ATOM     27  C   UNL     1     -12.660  10.346  22.310  0.00  0.00    +0.020 A 
ATOM     28  C   UNL     1     -14.045  10.220  22.199  0.00  0.00    +0.041 A 
ENDBRANCH  14  19
ENDBRANCH   5  14
ENDBRANCH   9   5
TORSDOF 7
ENDMDL
MODEL 8
REMARK VINA RESULT:      -6.6     27.826     30.225
REMARK  Name = 75536125
REMARK  7 active torsions:
REMARK  status: ('A' for Active; 'I' for Inactive)
REMARK    1  A    between atoms: O_2  and  C_10
REMARK    2  A    between atoms: O_3  and  C_12
REMARK    3  A    between atoms: N_5  and  C_9
REMARK    4  A    between atoms: N_5  and  C_14
REMARK    5  A    between atoms: N_7  and  C_18
REMARK    6  A    between atoms: C_8  and  C_13
REMARK    7  A    between atoms: C_14  and  C_19
REMARK                            x       y       z     vdW  Elec       q    Type
REMARK                         _______ _______ _______ _____ _____    ______ ____
ROOT
ATOM      8  C   UNL     1      -5.407 -10.681  16.844  0.00  0.00    +0.042 C 
ATOM      9  C   UNL     1      -5.331 -12.181  16.422  0.00  0.00    +0.093 C 
ATOM     10  C   UNL     1      -4.883 -12.931  17.687  0.00  0.00    +0.160 C 
ATOM     11  C   UNL     1      -4.985 -10.638  18.325  0.00  0.00    +0.043 C 
ATOM     12  C   UNL     1      -4.120 -11.881  18.488  0.00  0.00    +0.145 C 
ENDROOT
BRANCH   8  13
ATOM      6  N   UNL     1      -8.652  -8.812  17.446  0.00  0.00    -0.240 NA
ATOM     13  C   UNL     1      -6.752 -10.036  16.588  0.00  0.00    -0.024 A 
ATOM     15  C   UNL     1      -7.331 -10.059  15.323  0.00  0.00    +0.009 A 
ATOM     16  C   UNL     1      -7.448  -9.405  17.607  0.00  0.00    +0.116 A 
ATOM     17  C   UNL     1      -8.568  -9.460  15.119  0.00  0.00    +0.044 A 
ATOM     18  C   UNL     1      -9.182  -8.855  16.203  0.00  0.00    +0.121 A 
BRANCH  18   7
ATOM      4  O   UNL     1     -12.889  -7.102  15.270  0.00  0.00    -0.377 OA
ATOM      7  N   UNL     1     -10.427  -8.258  15.983  0.00  0.00    -0.311 N 
ATOM     20  C   UNL     1     -11.512  -9.092  15.446  0.00  0.00    +0.134 C 
ATOM     21  C   UNL     1     -10.505  -6.834  15.638  0.00  0.00    +0.134 C 
ATOM     24  C   UNL     1     -12.858  -8.445  15.752  0.00  0.00    +0.178 C 
ATOM     25  C   UNL     1     -11.905  -6.308  15.934  0.00  0.00    +0.178 C 
ENDBRANCH  18   7
ENDBRANCH   8  13
BRANCH  10   2
ATOM      2  O   UNL     1      -6.048 -13.356  18.393  0.00  0.00    -0.388 OA
ATOM     30  H   UNL     1      -5.971 -13.030  19.306  0.00  0.00    +0.210 HD
ENDBRANCH  10   2
BRANCH  12   3
ATOM      3  O   UNL     1      -3.975 -12.232  19.849  0.00  0.00    -0.389 OA
ATOM     31  H   UNL     1      -4.022 -11.413  20.370  0.00  0.00    +0.210 HD
ENDBRANCH  12   3
BRANCH   9   5
ATOM      5  N   UNL     1      -4.329 -12.343  15.367  0.00  0.00    -0.306 NA
ATOM     29  H   UNL     1      -4.797 -12.599  14.496  0.00  0.00    +0.123 HD
BRANCH   5  14
ATOM     14  C   UNL     1      -3.595 -11.104  15.153  0.00  0.00    +0.116 C 
BRANCH  14  19
ATOM      1 CL   UNL     1      -3.705  -9.397   9.385  0.00  0.00    -0.084 Cl
ATOM     19  C   UNL     1      -3.622 -10.678  13.710  0.00  0.00    -0.033 A 
ATOM     22  C   UNL     1      -4.833 -10.332  13.107  0.00  0.00    +0.006 A 
ATOM     23  C   UNL     1      -2.438 -10.627  12.974  0.00  0.00    +0.006 A 
ATOM     26  C   UNL     1      -4.858  -9.937  11.769  0.00  0.00    +0.020 A 
ATOM     27  C   UNL     1      -2.463 -10.232  11.636  0.00  0.00    +0.020 A 
ATOM     28  C   UNL     1      -3.673  -9.888  11.034  0.00  0.00    +0.041 A 
ENDBRANCH  14  19
ENDBRANCH   5  14
ENDBRANCH   9   5
TORSDOF 7
ENDMDL
MODEL 9
REMARK VINA RESULT:      -6.5     28.968     31.916
REMARK  Name = 75536125
REMARK  7 active torsions:
REMARK  status: ('A' for Active; 'I' for Inactive)
REMARK    1  A    between atoms: O_2  and  C_10
REMARK    2  A    between atoms: O_3  and  C_12
REMARK    3  A    between atoms: N_5  and  C_9
REMARK    4  A    between atoms: N_5  and  C_14
REMARK    5  A    between atoms: N_7  and  C_18
REMARK    6  A    between atoms: C_8  and  C_13
REMARK    7  A    between atoms: C_14  and  C_19
REMARK                            x       y       z     vdW  Elec       q    Type
REMARK                         _______ _______ _______ _____ _____    ______ ____
ROOT
ATOM      8  C   UNL     1     -11.299  -8.513  17.492  0.00  0.00    +0.042 C 
ATOM      9  C   UNL     1     -10.106  -9.412  17.039  0.00  0.00    +0.093 C 
ATOM     10  C   UNL     1     -10.548 -10.851  17.351  0.00  0.00    +0.160 C 
ATOM     11  C   UNL     1     -12.361  -9.476  18.057  0.00  0.00    +0.043 C 
ATOM     12  C   UNL     1     -11.551 -10.691  18.490  0.00  0.00    +0.145 C 
ENDROOT
BRANCH   8  13
ATOM      6  N   UNL     1     -11.431  -5.841  14.804  0.00  0.00    -0.240 NA
ATOM     13  C   UNL     1     -11.835  -7.606  16.406  0.00  0.00    -0.024 A 
ATOM     15  C   UNL     1     -13.166  -7.671  16.008  0.00  0.00    +0.009 A 
ATOM     16  C   UNL     1     -11.016  -6.681  15.779  0.00  0.00    +0.116 A 
ATOM     17  C   UNL     1     -13.630  -6.823  15.009  0.00  0.00    +0.044 A 
ATOM     18  C   UNL     1     -12.731  -5.934  14.444  0.00  0.00    +0.121 A 
BRANCH  18   7
ATOM      4  O   UNL     1     -14.170  -3.177  11.613  0.00  0.00    -0.377 OA
ATOM      7  N   UNL     1     -13.212  -5.086  13.442  0.00  0.00    -0.311 N 
ATOM     20  C   UNL     1     -12.334  -4.010  12.962  0.00  0.00    +0.134 C 
ATOM     21  C   UNL     1     -14.650  -4.809  13.345  0.00  0.00    +0.134 C 
ATOM     24  C   UNL     1     -12.792  -3.546  11.585  0.00  0.00    +0.178 C 
ATOM     25  C   UNL     1     -14.984  -4.302  11.946  0.00  0.00    +0.178 C 
ENDBRANCH  18   7
ENDBRANCH   8  13
BRANCH  10   2
ATOM      2  O   UNL     1     -11.182 -11.388  16.192  0.00  0.00    -0.388 OA
ATOM     30  H   UNL     1     -10.574 -12.040  15.802  0.00  0.00    +0.210 HD
ENDBRANCH  10   2
BRANCH  12   3
ATOM      3  O   UNL     1     -12.374 -11.827  18.655  0.00  0.00    -0.389 OA
ATOM     31  H   UNL     1     -11.984 -12.372  19.359  0.00  0.00    +0.210 HD
ENDBRANCH  12   3
BRANCH   9   5
ATOM      5  N   UNL     1      -8.915  -9.076  17.821  0.00  0.00    -0.306 NA
ATOM     29  H   UNL     1      -8.831  -9.728  18.601  0.00  0.00    +0.123 HD
BRANCH   5  14
ATOM     14  C   UNL     1      -7.714  -9.171  17.004  0.00  0.00    +0.116 C 
BRANCH  14  19
ATOM      1 CL   UNL     1      -3.406 -12.380  19.713  0.00  0.00    -0.084 Cl
ATOM     19  C   UNL     1      -6.637  -9.974  17.682  0.00  0.00    -0.033 A 
ATOM     22  C   UNL     1      -5.463 -10.288  16.995  0.00  0.00    +0.006 A 
ATOM     23  C   UNL     1      -6.811 -10.406  18.997  0.00  0.00    +0.006 A 
ATOM     26  C   UNL     1      -4.464 -11.033  17.623  0.00  0.00    +0.020 A 
ATOM     27  C   UNL     1      -5.812 -11.151  19.625  0.00  0.00    +0.020 A 
ATOM     28  C   UNL     1      -4.640 -11.465  18.938  0.00  0.00    +0.041 A 
ENDBRANCH  14  19
ENDBRANCH   5  14
ENDBRANCH   9   5
TORSDOF 7
ENDMDL
MODEL 10
REMARK VINA RESULT:      -6.5     27.794     30.610
REMARK  Name = 75536125
REMARK  7 active torsions:
REMARK  status: ('A' for Active; 'I' for Inactive)
REMARK    1  A    between atoms: O_2  and  C_10
REMARK    2  A    between atoms: O_3  and  C_12
REMARK    3  A    between atoms: N_5  and  C_9
REMARK    4  A    between atoms: N_5  and  C_14
REMARK    5  A    between atoms: N_7  and  C_18
REMARK    6  A    between atoms: C_8  and  C_13
REMARK    7  A    between atoms: C_14  and  C_19
REMARK                            x       y       z     vdW  Elec       q    Type
REMARK                         _______ _______ _______ _____ _____    ______ ____
ROOT
ATOM      8  C   UNL     1      -5.775 -10.248  17.650  0.00  0.00    +0.042 C 
ATOM      9  C   UNL     1      -5.264 -11.083  16.435  0.00  0.00    +0.093 C 
ATOM     10  C   UNL     1      -4.441 -12.226  17.052  0.00  0.00    +0.160 C 
ATOM     11  C   UNL     1      -5.208 -10.939  18.905  0.00  0.00    +0.043 C 
ATOM     12  C   UNL     1      -3.971 -11.662  18.389  0.00  0.00    +0.145 C 
ENDROOT
BRANCH   8  13
ATOM      6  N   UNL     1      -9.259  -9.016  16.799  0.00  0.00    -0.240 NA
ATOM     13  C   UNL     1      -7.277 -10.074  17.691  0.00  0.00    -0.024 A 
ATOM     15  C   UNL     1      -8.055 -10.769  18.612  0.00  0.00    +0.009 A 
ATOM     16  C   UNL     1      -7.923  -9.217  16.814  0.00  0.00    +0.116 A 
ATOM     17  C   UNL     1      -9.433 -10.588  18.627  0.00  0.00    +0.044 A 
ATOM     18  C   UNL     1      -9.982  -9.708  17.709  0.00  0.00    +0.121 A 
BRANCH  18   7
ATOM      4  O   UNL     1     -14.111  -8.935  17.900  0.00  0.00    -0.377 OA
ATOM      7  N   UNL     1     -11.369  -9.535  17.737  0.00  0.00    -0.311 N 
ATOM     20  C   UNL     1     -11.957  -8.505  16.869  0.00  0.00    +0.134 C 
ATOM     21  C   UNL     1     -12.117  -9.816  18.967  0.00  0.00    +0.134 C 
ATOM     24  C   UNL     1     -13.436  -8.801  16.649  0.00  0.00    +0.178 C 
ATOM     25  C   UNL     1     -13.588 -10.041  18.635  0.00  0.00    +0.178 C 
ENDBRANCH  18   7
ENDBRANCH   8  13
BRANCH  10   2
ATOM      2  O   UNL     1      -5.304 -13.344  17.251  0.00  0.00    -0.388 OA
ATOM     30  H   UNL     1      -5.030 -13.781  18.076  0.00  0.00    +0.210 HD
ENDBRANCH  10   2
BRANCH  12   3
ATOM      3  O   UNL     1      -3.550 -12.668  19.287  0.00  0.00    -0.389 OA
ATOM     31  H   UNL     1      -3.834 -13.523  18.923  0.00  0.00    +0.210 HD
ENDBRANCH  12   3
BRANCH   9   5
ATOM      5  N   UNL     1      -4.404 -10.249  15.593  0.00  0.00    -0.306 NA
ATOM     29  H   UNL     1      -3.749  -9.738  16.186  0.00  0.00    +0.123 HD
BRANCH   5  14
ATOM     14  C   UNL     1      -3.644 -11.065  14.657  0.00  0.00    +0.116 C 
BRANCH  14  19
ATOM      1 CL   UNL     1      -3.992  -8.946   9.037  0.00  0.00    -0.084 Cl
ATOM     19  C   UNL     1      -3.731 -10.534  13.251  0.00  0.00    -0.033 A 
ATOM     22  C   UNL     1      -2.589 -10.487  12.451  0.00  0.00    +0.006 A 
ATOM     23  C   UNL     1      -4.954 -10.089  12.747  0.00  0.00    +0.006 A 
ATOM     26  C   UNL     1      -2.669  -9.995  11.148  0.00  0.00    +0.020 A 
ATOM     27  C   UNL     1      -5.034  -9.597  11.444  0.00  0.00    +0.020 A 
ATOM     28  C   UNL     1      -3.892  -9.550  10.645  0.00  0.00    +0.041 A 
ENDBRANCH  14  19
ENDBRANCH   5  14
ENDBRANCH   9   5
TORSDOF 7
ENDMDL
