MODEL 1
REMARK VINA RESULT:      -6.5      0.000      0.000
REMARK  Name = 45361435
REMARK  13 active torsions:
REMARK  status: ('A' for Active; 'I' for Inactive)
REMARK    1  A    between atoms: O_1  and  C_10
REMARK    2  A    between atoms: N_4  and  C_14
REMARK    3  A    between atoms: N_5  and  C_24
REMARK    4  A    between atoms: N_5  and  C_25
REMARK    5  A    between atoms: C_7  and  C_17
REMARK    6  A    between atoms: C_9  and  C_19
REMARK    7  A    between atoms: C_12  and  C_18
REMARK    8  A    between atoms: C_18  and  C_20
REMARK    9  A    between atoms: C_18  and  C_21
REMARK   10  A    between atoms: C_22  and  C_23
REMARK   11  A    between atoms: C_24  and  C_26
REMARK   12  A    between atoms: C_25  and  C_27
REMARK   13  A    between atoms: C_32  and  C_33
REMARK                            x       y       z     vdW  Elec       q    Type
REMARK                         _______ _______ _______ _____ _____    ______ ____
ROOT
ATOM      7  C   UNL     1      -4.865 -11.201  17.168  0.00  0.00    -0.027 C 
ATOM      8  C   UNL     1      -5.639 -10.524  15.988  0.00  0.00    +0.028 C 
ATOM      9  C   UNL     1      -7.191 -10.593  16.226  0.00  0.00    +0.012 C 
ATOM     10  C   UNL     1      -5.150 -11.060  14.612  0.00  0.00    +0.122 C 
ATOM     11  C   UNL     1      -3.343 -11.019  16.959  0.00  0.00    +0.007 C 
ATOM     12  C   UNL     1      -3.614 -10.970  14.451  0.00  0.00    +0.029 C 
ATOM     13  C   UNL     1      -5.247 -10.499  18.492  0.00  0.00    +0.009 C 
ATOM     14  C   UNL     1      -7.554  -9.949  17.594  0.00  0.00    +0.076 C 
ATOM     15  C   UNL     1      -2.854 -11.577  15.630  0.00  0.00    +0.007 C 
ATOM     16  C   UNL     1      -6.744 -10.509  18.763  0.00  0.00    +0.023 C 
ATOM     17  C   UNL     1      -5.172 -12.717  17.288  0.00  0.00    +0.011 C 
ATOM     19  C   UNL     1      -8.013  -9.917  15.115  0.00  0.00    +0.010 C 
ENDROOT
BRANCH  14   4
ATOM      3  O   UNL     1      -9.551  -7.887  17.520  0.00  0.00    -0.270 OA
ATOM      4  N   UNL     1      -8.961 -10.098  17.898  0.00  0.00    -0.308 N 
ATOM     22  C   UNL     1      -9.849  -9.036  17.833  0.00  0.00    +0.244 C 
ATOM     34  H   UNL     1      -9.257 -10.992  18.276  0.00  0.00    +0.149 HD
BRANCH  22  23
ATOM     23  C   UNL     1     -11.254  -9.346  18.202  0.00  0.00    +0.037 A 
ATOM     28  C   UNL     1     -11.538  -9.938  19.432  0.00  0.00    +0.014 A 
ATOM     29  C   UNL     1     -12.291  -9.043  17.318  0.00  0.00    +0.014 A 
ATOM     30  C   UNL     1     -12.858 -10.228  19.779  0.00  0.00    +0.019 A 
ATOM     31  C   UNL     1     -13.609  -9.333  17.664  0.00  0.00    +0.019 A 
ATOM     32  C   UNL     1     -13.894  -9.925  18.895  0.00  0.00    +0.052 A 
BRANCH  32  33
ATOM      6  N   UNL     1     -16.344 -10.464  19.538  0.00  0.00    -0.191 NA
ATOM     33  C   UNL     1     -15.245 -10.222  19.249  0.00  0.00    +0.099 C 
ENDBRANCH  32  33
ENDBRANCH  22  23
ENDBRANCH  14   4
BRANCH  10   1
ATOM      1  O   UNL     1      -5.716 -10.272  13.565  0.00  0.00    -0.391 OA
ATOM     35  H   UNL     1      -5.553 -10.727  12.721  0.00  0.00    +0.210 HD
ENDBRANCH  10   1
BRANCH  12  18
ATOM     18  C   UNL     1      -3.140 -11.621  13.146  0.00  0.00    +0.078 C 
ATOM     20  C   UNL     1      -2.018 -12.615  13.450  0.00  0.00    +0.017 C 
BRANCH  18  21
ATOM      2  O   UNL     1      -1.709  -9.821  12.475  0.00  0.00    -0.275 OA
ATOM      5  N   UNL     1      -3.366 -10.399  10.966  0.00  0.00    -0.302 N 
ATOM     21  C   UNL     1      -2.668 -10.540  12.170  0.00  0.00    +0.219 C 
BRANCH   5  24
ATOM     24  C   UNL     1      -4.482 -11.227  10.514  0.00  0.00    +0.104 C 
ATOM     26  C   UNL     1      -3.998 -12.429   9.730  0.00  0.00    +0.024 C 
ENDBRANCH   5  24
BRANCH   5  25
ATOM     25  C   UNL     1      -2.954  -9.364  10.023  0.00  0.00    +0.104 C 
ATOM     27  C   UNL     1      -4.135  -8.826   9.241  0.00  0.00    +0.024 C 
ENDBRANCH   5  25
ENDBRANCH  18  21
ENDBRANCH  12  18
TORSDOF 8
ENDMDL
MODEL 2
REMARK VINA RESULT:      -6.3      1.543      1.819
REMARK  Name = 45361435
REMARK  13 active torsions:
REMARK  status: ('A' for Active; 'I' for Inactive)
REMARK    1  A    between atoms: O_1  and  C_10
REMARK    2  A    between atoms: N_4  and  C_14
REMARK    3  A    between atoms: N_5  and  C_24
REMARK    4  A    between atoms: N_5  and  C_25
REMARK    5  A    between atoms: C_7  and  C_17
REMARK    6  A    between atoms: C_9  and  C_19
REMARK    7  A    between atoms: C_12  and  C_18
REMARK    8  A    between atoms: C_18  and  C_20
REMARK    9  A    between atoms: C_18  and  C_21
REMARK   10  A    between atoms: C_22  and  C_23
REMARK   11  A    between atoms: C_24  and  C_26
REMARK   12  A    between atoms: C_25  and  C_27
REMARK   13  A    between atoms: C_32  and  C_33
REMARK                            x       y       z     vdW  Elec       q    Type
REMARK                         _______ _______ _______ _____ _____    ______ ____
ROOT
ATOM      7  C   UNL     1      -4.900 -11.349  17.658  0.00  0.00    -0.027 C 
ATOM      8  C   UNL     1      -5.800 -10.586  16.629  0.00  0.00    +0.028 C 
ATOM      9  C   UNL     1      -7.303 -10.592  17.090  0.00  0.00    +0.012 C 
ATOM     10  C   UNL     1      -5.545 -11.084  15.178  0.00  0.00    +0.122 C 
ATOM     11  C   UNL     1      -3.417 -11.229  17.234  0.00  0.00    +0.007 C 
ATOM     12  C   UNL     1      -4.046 -11.059  14.796  0.00  0.00    +0.029 C 
ATOM     13  C   UNL     1      -5.049 -10.688  19.047  0.00  0.00    +0.009 C 
ATOM     14  C   UNL     1      -7.429  -9.993  18.519  0.00  0.00    +0.076 C 
ATOM     15  C   UNL     1      -3.156 -11.752  15.828  0.00  0.00    +0.007 C 
ATOM     16  C   UNL     1      -6.490 -10.640  19.536  0.00  0.00    +0.023 C 
ATOM     17  C   UNL     1      -5.265 -12.852  17.767  0.00  0.00    +0.011 C 
ATOM     19  C   UNL     1      -8.241  -9.832  16.137  0.00  0.00    +0.010 C 
ENDROOT
BRANCH  14   4
ATOM      3  O   UNL     1      -8.645 -12.286  19.749  0.00  0.00    -0.270 OA
ATOM      4  N   UNL     1      -8.784 -10.088  19.021  0.00  0.00    -0.308 N 
ATOM     22  C   UNL     1      -9.279 -11.245  19.601  0.00  0.00    +0.244 C 
ATOM     34  H   UNL     1      -9.401  -9.306  18.828  0.00  0.00    +0.149 HD
BRANCH  22  23
ATOM     23  C   UNL     1     -10.697 -11.190  20.041  0.00  0.00    +0.037 A 
ATOM     28  C   UNL     1     -11.378  -9.973  20.052  0.00  0.00    +0.014 A 
ATOM     29  C   UNL     1     -11.348 -12.357  20.443  0.00  0.00    +0.014 A 
ATOM     30  C   UNL     1     -12.709  -9.922  20.464  0.00  0.00    +0.019 A 
ATOM     31  C   UNL     1     -12.679 -12.306  20.854  0.00  0.00    +0.019 A 
ATOM     32  C   UNL     1     -13.361 -11.089  20.865  0.00  0.00    +0.052 A 
BRANCH  32  33
ATOM      6  N   UNL     1     -15.832 -10.994  21.631  0.00  0.00    -0.191 NA
ATOM     33  C   UNL     1     -14.724 -11.037  21.288  0.00  0.00    +0.099 C 
ENDBRANCH  32  33
ENDBRANCH  22  23
ENDBRANCH  14   4
BRANCH  10   1
ATOM      1  O   UNL     1      -6.215 -10.226  14.254  0.00  0.00    -0.391 OA
ATOM     35  H   UNL     1      -6.736  -9.581  14.763  0.00  0.00    +0.210 HD
ENDBRANCH  10   1
BRANCH  12  18
ATOM     18  C   UNL     1      -3.801 -11.674  13.413  0.00  0.00    +0.078 C 
ATOM     20  C   UNL     1      -2.967 -12.947  13.561  0.00  0.00    +0.017 C 
BRANCH  18  21
ATOM      2  O   UNL     1      -2.133 -10.018  12.951  0.00  0.00    -0.275 OA
ATOM      5  N   UNL     1      -3.594 -10.478  11.216  0.00  0.00    -0.302 N 
ATOM     21  C   UNL     1      -3.096 -10.657  12.512  0.00  0.00    +0.219 C 
BRANCH   5  24
ATOM     24  C   UNL     1      -4.700 -11.215  10.609  0.00  0.00    +0.104 C 
ATOM     26  C   UNL     1      -4.206 -12.422   9.838  0.00  0.00    +0.024 C 
ENDBRANCH   5  24
BRANCH   5  25
ATOM     25  C   UNL     1      -2.957  -9.501  10.339  0.00  0.00    +0.104 C 
ATOM     27  C   UNL     1      -3.975  -8.797   9.465  0.00  0.00    +0.024 C 
ENDBRANCH   5  25
ENDBRANCH  18  21
ENDBRANCH  12  18
TORSDOF 8
ENDMDL
MODEL 3
REMARK VINA RESULT:      -6.2     18.200     19.930
REMARK  Name = 45361435
REMARK  13 active torsions:
REMARK  status: ('A' for Active; 'I' for Inactive)
REMARK    1  A    between atoms: O_1  and  C_10
REMARK    2  A    between atoms: N_4  and  C_14
REMARK    3  A    between atoms: N_5  and  C_24
REMARK    4  A    between atoms: N_5  and  C_25
REMARK    5  A    between atoms: C_7  and  C_17
REMARK    6  A    between atoms: C_9  and  C_19
REMARK    7  A    between atoms: C_12  and  C_18
REMARK    8  A    between atoms: C_18  and  C_20
REMARK    9  A    between atoms: C_18  and  C_21
REMARK   10  A    between atoms: C_22  and  C_23
REMARK   11  A    between atoms: C_24  and  C_26
REMARK   12  A    between atoms: C_25  and  C_27
REMARK   13  A    between atoms: C_32  and  C_33
REMARK                            x       y       z     vdW  Elec       q    Type
REMARK                         _______ _______ _______ _____ _____    ______ ____
ROOT
ATOM      7  C   UNL     1     -15.912   7.111  22.240  0.00  0.00    -0.027 C 
ATOM      8  C   UNL     1     -14.709   6.116  22.119  0.00  0.00    +0.028 C 
ATOM      9  C   UNL     1     -14.441   5.397  23.491  0.00  0.00    +0.012 C 
ATOM     10  C   UNL     1     -13.473   6.801  21.471  0.00  0.00    +0.122 C 
ATOM     11  C   UNL     1     -16.221   7.717  20.850  0.00  0.00    +0.007 C 
ATOM     12  C   UNL     1     -13.813   7.495  20.131  0.00  0.00    +0.029 C 
ATOM     13  C   UNL     1     -17.165   6.335  22.706  0.00  0.00    +0.009 C 
ATOM     14  C   UNL     1     -15.729   4.682  23.985  0.00  0.00    +0.076 C 
ATOM     15  C   UNL     1     -15.023   8.422  20.229  0.00  0.00    +0.007 C 
ATOM     16  C   UNL     1     -16.956   5.593  24.018  0.00  0.00    +0.023 C 
ATOM     17  C   UNL     1     -15.629   8.267  23.234  0.00  0.00    +0.011 C 
ATOM     19  C   UNL     1     -13.287   4.380  23.436  0.00  0.00    +0.010 C 
ENDROOT
BRANCH  14   4
ATOM      3  O   UNL     1     -17.343   2.638  25.195  0.00  0.00    -0.270 OA
ATOM      4  N   UNL     1     -15.551   4.106  25.301  0.00  0.00    -0.308 N 
ATOM     22  C   UNL     1     -16.387   3.119  25.798  0.00  0.00    +0.244 C 
ATOM     34  H   UNL     1     -14.853   4.536  25.899  0.00  0.00    +0.149 HD
BRANCH  22  23
ATOM     23  C   UNL     1     -16.087   2.652  27.175  0.00  0.00    +0.037 A 
ATOM     28  C   UNL     1     -15.542   3.533  28.108  0.00  0.00    +0.014 A 
ATOM     29  C   UNL     1     -16.352   1.330  27.536  0.00  0.00    +0.014 A 
ATOM     30  C   UNL     1     -15.262   3.095  29.402  0.00  0.00    +0.019 A 
ATOM     31  C   UNL     1     -16.071   0.891  28.830  0.00  0.00    +0.019 A 
ATOM     32  C   UNL     1     -15.527   1.773  29.763  0.00  0.00    +0.052 A 
BRANCH  32  33
ATOM      6  N   UNL     1     -15.006   0.958  32.165  0.00  0.00    -0.191 NA
ATOM     33  C   UNL     1     -15.239   1.324  31.088  0.00  0.00    +0.099 C 
ENDBRANCH  32  33
ENDBRANCH  22  23
ENDBRANCH  14   4
BRANCH  10   1
ATOM      1  O   UNL     1     -12.480   5.817  21.180  0.00  0.00    -0.391 OA
ATOM     35  H   UNL     1     -11.615   6.261  21.143  0.00  0.00    +0.210 HD
ENDBRANCH  10   1
BRANCH  12  18
ATOM     18  C   UNL     1     -12.614   8.273  19.573  0.00  0.00    +0.078 C 
ATOM     20  C   UNL     1     -12.571   9.664  20.206  0.00  0.00    +0.017 C 
BRANCH  18  21
ATOM      2  O   UNL     1     -13.785   8.068  17.494  0.00  0.00    -0.275 OA
ATOM      5  N   UNL     1     -11.584   8.769  17.339  0.00  0.00    -0.302 N 
ATOM     21  C   UNL     1     -12.721   8.365  18.049  0.00  0.00    +0.219 C 
BRANCH   5  24
ATOM     24  C   UNL     1     -10.304   9.170  17.918  0.00  0.00    +0.104 C 
ATOM     26  C   UNL     1     -10.058  10.654  17.746  0.00  0.00    +0.024 C 
ENDBRANCH   5  24
BRANCH   5  25
ATOM     25  C   UNL     1     -11.646   8.846  15.883  0.00  0.00    +0.104 C 
ATOM     27  C   UNL     1     -10.579   7.987  15.237  0.00  0.00    +0.024 C 
ENDBRANCH   5  25
ENDBRANCH  18  21
ENDBRANCH  12  18
TORSDOF 8
ENDMDL
MODEL 4
REMARK VINA RESULT:      -6.1      5.784     10.695
REMARK  Name = 45361435
REMARK  13 active torsions:
REMARK  status: ('A' for Active; 'I' for Inactive)
REMARK    1  A    between atoms: O_1  and  C_10
REMARK    2  A    between atoms: N_4  and  C_14
REMARK    3  A    between atoms: N_5  and  C_24
REMARK    4  A    between atoms: N_5  and  C_25
REMARK    5  A    between atoms: C_7  and  C_17
REMARK    6  A    between atoms: C_9  and  C_19
REMARK    7  A    between atoms: C_12  and  C_18
REMARK    8  A    between atoms: C_18  and  C_20
REMARK    9  A    between atoms: C_18  and  C_21
REMARK   10  A    between atoms: C_22  and  C_23
REMARK   11  A    between atoms: C_24  and  C_26
REMARK   12  A    between atoms: C_25  and  C_27
REMARK   13  A    between atoms: C_32  and  C_33
REMARK                            x       y       z     vdW  Elec       q    Type
REMARK                         _______ _______ _______ _____ _____    ______ ____
ROOT
ATOM      7  C   UNL     1      -5.620 -11.818   5.820  0.00  0.00    -0.027 C 
ATOM      8  C   UNL     1      -5.973 -10.391   6.357  0.00  0.00    +0.028 C 
ATOM      9  C   UNL     1      -5.899 -10.351   7.926  0.00  0.00    +0.012 C 
ATOM     10  C   UNL     1      -7.301  -9.868   5.737  0.00  0.00    +0.122 C 
ATOM     11  C   UNL     1      -5.593 -11.795   4.273  0.00  0.00    +0.007 C 
ATOM     12  C   UNL     1      -7.306  -9.945   4.192  0.00  0.00    +0.029 C 
ATOM     13  C   UNL     1      -4.206 -12.207   6.311  0.00  0.00    +0.009 C 
ATOM     14  C   UNL     1      -4.497 -10.815   8.410  0.00  0.00    +0.076 C 
ATOM     15  C   UNL     1      -6.904 -11.321   3.662  0.00  0.00    +0.007 C 
ATOM     16  C   UNL     1      -4.065 -12.160   7.825  0.00  0.00    +0.023 C 
ATOM     17  C   UNL     1      -6.635 -12.896   6.283  0.00  0.00    +0.011 C 
ATOM     19  C   UNL     1      -6.207  -8.966   8.520  0.00  0.00    +0.010 C 
ENDROOT
BRANCH  14   4
ATOM      3  O   UNL     1      -2.843  -9.236  10.147  0.00  0.00    -0.270 OA
ATOM      4  N   UNL     1      -4.430 -10.900   9.854  0.00  0.00    -0.308 N 
ATOM     22  C   UNL     1      -3.596 -10.090  10.606  0.00  0.00    +0.244 C 
ATOM     34  H   UNL     1      -4.938 -11.662  10.292  0.00  0.00    +0.149 HD
BRANCH  22  23
ATOM     23  C   UNL     1      -3.624 -10.320  12.074  0.00  0.00    +0.037 A 
ATOM     28  C   UNL     1      -2.431 -10.479  12.778  0.00  0.00    +0.014 A 
ATOM     29  C   UNL     1      -4.845 -10.374  12.748  0.00  0.00    +0.014 A 
ATOM     30  C   UNL     1      -2.457 -10.693  14.156  0.00  0.00    +0.019 A 
ATOM     31  C   UNL     1      -4.871 -10.588  14.125  0.00  0.00    +0.019 A 
ATOM     32  C   UNL     1      -3.678 -10.748  14.830  0.00  0.00    +0.052 A 
BRANCH  32  33
ATOM      6  N   UNL     1      -3.727 -11.146  17.388  0.00  0.00    -0.191 NA
ATOM     33  C   UNL     1      -3.705 -10.967  16.241  0.00  0.00    +0.099 C 
ENDBRANCH  32  33
ENDBRANCH  22  23
ENDBRANCH  14   4
BRANCH  10   1
ATOM      1  O   UNL     1      -7.476  -8.492   6.077  0.00  0.00    -0.391 OA
ATOM     35  H   UNL     1      -7.508  -7.978   5.253  0.00  0.00    +0.210 HD
ENDBRANCH  10   1
BRANCH  12  18
ATOM     18  C   UNL     1      -8.668  -9.549   3.608  0.00  0.00    +0.078 C 
ATOM     20  C   UNL     1      -9.183 -10.672   2.707  0.00  0.00    +0.017 C 
BRANCH  18  21
ATOM      2  O   UNL     1      -7.536  -8.043   2.129  0.00  0.00    -0.275 OA
ATOM      5  N   UNL     1      -9.559  -7.292   2.966  0.00  0.00    -0.302 N 
ATOM     21  C   UNL     1      -8.535  -8.237   2.830  0.00  0.00    +0.219 C 
BRANCH   5  24
ATOM     24  C   UNL     1     -10.785  -7.456   3.742  0.00  0.00    +0.104 C 
ATOM     26  C   UNL     1     -10.591  -7.027   5.182  0.00  0.00    +0.024 C 
ENDBRANCH   5  24
BRANCH   5  25
ATOM     25  C   UNL     1      -9.453  -6.022   2.254  0.00  0.00    +0.104 C 
ATOM     27  C   UNL     1     -10.705  -5.730   1.453  0.00  0.00    +0.024 C 
ENDBRANCH   5  25
ENDBRANCH  18  21
ENDBRANCH  12  18
TORSDOF 8
ENDMDL
MODEL 5
REMARK VINA RESULT:      -6.0     24.493     29.698
REMARK  Name = 45361435
REMARK  13 active torsions:
REMARK  status: ('A' for Active; 'I' for Inactive)
REMARK    1  A    between atoms: O_1  and  C_10
REMARK    2  A    between atoms: N_4  and  C_14
REMARK    3  A    between atoms: N_5  and  C_24
REMARK    4  A    between atoms: N_5  and  C_25
REMARK    5  A    between atoms: C_7  and  C_17
REMARK    6  A    between atoms: C_9  and  C_19
REMARK    7  A    between atoms: C_12  and  C_18
REMARK    8  A    between atoms: C_18  and  C_20
REMARK    9  A    between atoms: C_18  and  C_21
REMARK   10  A    between atoms: C_22  and  C_23
REMARK   11  A    between atoms: C_24  and  C_26
REMARK   12  A    between atoms: C_25  and  C_27
REMARK   13  A    between atoms: C_32  and  C_33
REMARK                            x       y       z     vdW  Elec       q    Type
REMARK                         _______ _______ _______ _____ _____    ______ ____
ROOT
ATOM      7  C   UNL     1      13.848   6.820   2.085  0.00  0.00    -0.027 C 
ATOM      8  C   UNL     1      12.617   5.910   2.410  0.00  0.00    +0.028 C 
ATOM      9  C   UNL     1      11.827   5.551   1.100  0.00  0.00    +0.012 C 
ATOM     10  C   UNL     1      11.761   6.509   3.562  0.00  0.00    +0.122 C 
ATOM     11  C   UNL     1      14.666   7.062   3.376  0.00  0.00    +0.007 C 
ATOM     12  C   UNL     1      12.604   6.847   4.815  0.00  0.00    +0.029 C 
ATOM     13  C   UNL     1      14.765   6.088   1.077  0.00  0.00    +0.009 C 
ATOM     14  C   UNL     1      12.776   4.883   0.066  0.00  0.00    +0.076 C 
ATOM     15  C   UNL     1      13.841   7.685   4.494  0.00  0.00    +0.007 C 
ATOM     16  C   UNL     1      14.046   5.690  -0.204  0.00  0.00    +0.023 C 
ATOM     17  C   UNL     1      13.434   8.192   1.494  0.00  0.00    +0.011 C 
ATOM     19  C   UNL     1      10.618   4.632   1.344  0.00  0.00    +0.010 C 
ENDROOT
BRANCH  14   4
ATOM      3  O   UNL     1      12.600   2.381  -1.333  0.00  0.00    -0.270 OA
ATOM      4  N   UNL     1      12.109   4.643  -1.197  0.00  0.00    -0.308 N 
ATOM     22  C   UNL     1      12.079   3.394  -1.794  0.00  0.00    +0.244 C 
ATOM     34  H   UNL     1      11.757   5.457  -1.691  0.00  0.00    +0.149 HD
BRANCH  22  23
ATOM     23  C   UNL     1      11.377   3.318  -3.101  0.00  0.00    +0.037 A 
ATOM     28  C   UNL     1      12.111   3.227  -4.282  0.00  0.00    +0.014 A 
ATOM     29  C   UNL     1       9.982   3.338  -3.145  0.00  0.00    +0.014 A 
ATOM     30  C   UNL     1      11.452   3.154  -5.510  0.00  0.00    +0.019 A 
ATOM     31  C   UNL     1       9.323   3.266  -4.371  0.00  0.00    +0.019 A 
ATOM     32  C   UNL     1      10.057   3.174  -5.554  0.00  0.00    +0.052 A 
BRANCH  32  33
ATOM      6  N   UNL     1       8.833   3.041  -7.832  0.00  0.00    -0.191 NA
ATOM     33  C   UNL     1       9.382   3.101  -6.810  0.00  0.00    +0.099 C 
ENDBRANCH  32  33
ENDBRANCH  22  23
ENDBRANCH  14   4
BRANCH  10   1
ATOM      1  O   UNL     1      10.782   5.556   3.975  0.00  0.00    -0.391 OA
ATOM     35  H   UNL     1      11.152   5.040   4.711  0.00  0.00    +0.210 HD
ENDBRANCH  10   1
BRANCH  12  18
ATOM     18  C   UNL     1      11.769   7.555   5.889  0.00  0.00    +0.078 C 
ATOM     20  C   UNL     1      12.409   8.903   6.225  0.00  0.00    +0.017 C 
BRANCH  18  21
ATOM      2  O   UNL     1      12.694   6.186   7.623  0.00  0.00    -0.275 OA
ATOM      5  N   UNL     1      10.393   6.425   7.657  0.00  0.00    -0.302 N 
ATOM     21  C   UNL     1      11.667   6.669   7.133  0.00  0.00    +0.219 C 
BRANCH   5  24
ATOM     24  C   UNL     1       9.136   6.983   7.163  0.00  0.00    +0.104 C 
ATOM     26  C   UNL     1       8.891   8.373   7.714  0.00  0.00    +0.024 C 
ENDBRANCH   5  24
BRANCH   5  25
ATOM     25  C   UNL     1      10.259   5.567   8.830  0.00  0.00    +0.104 C 
ATOM     27  C   UNL     1       9.717   4.202   8.459  0.00  0.00    +0.024 C 
ENDBRANCH   5  25
ENDBRANCH  18  21
ENDBRANCH  12  18
TORSDOF 8
ENDMDL
MODEL 6
REMARK VINA RESULT:      -5.9     28.455     32.317
REMARK  Name = 45361435
REMARK  13 active torsions:
REMARK  status: ('A' for Active; 'I' for Inactive)
REMARK    1  A    between atoms: O_1  and  C_10
REMARK    2  A    between atoms: N_4  and  C_14
REMARK    3  A    between atoms: N_5  and  C_24
REMARK    4  A    between atoms: N_5  and  C_25
REMARK    5  A    between atoms: C_7  and  C_17
REMARK    6  A    between atoms: C_9  and  C_19
REMARK    7  A    between atoms: C_12  and  C_18
REMARK    8  A    between atoms: C_18  and  C_20
REMARK    9  A    between atoms: C_18  and  C_21
REMARK   10  A    between atoms: C_22  and  C_23
REMARK   11  A    between atoms: C_24  and  C_26
REMARK   12  A    between atoms: C_25  and  C_27
REMARK   13  A    between atoms: C_32  and  C_33
REMARK                            x       y       z     vdW  Elec       q    Type
REMARK                         _______ _______ _______ _____ _____    ______ ____
ROOT
ATOM      7  C   UNL     1      12.762   9.083  18.293  0.00  0.00    -0.027 C 
ATOM      8  C   UNL     1      13.141  10.567  18.614  0.00  0.00    +0.028 C 
ATOM      9  C   UNL     1      14.459  10.981  17.864  0.00  0.00    +0.012 C 
ATOM     10  C   UNL     1      13.133  10.834  20.146  0.00  0.00    +0.122 C 
ATOM     11  C   UNL     1      11.405   8.743  18.954  0.00  0.00    +0.007 C 
ATOM     12  C   UNL     1      11.811  10.395  20.818  0.00  0.00    +0.029 C 
ATOM     13  C   UNL     1      12.595   8.923  16.764  0.00  0.00    +0.009 C 
ATOM     14  C   UNL     1      14.305  10.746  16.335  0.00  0.00    +0.076 C 
ATOM     15  C   UNL     1      11.405   8.965  20.460  0.00  0.00    +0.007 C 
ATOM     16  C   UNL     1      13.833   9.336  15.981  0.00  0.00    +0.023 C 
ATOM     17  C   UNL     1      13.826   8.075  18.798  0.00  0.00    +0.011 C 
ATOM     19  C   UNL     1      14.875  12.441  18.112  0.00  0.00    +0.010 C 
ENDROOT
BRANCH  14   4
ATOM      3  O   UNL     1      14.663  12.536  14.119  0.00  0.00    -0.270 OA
ATOM      4  N   UNL     1      15.539  11.007  15.626  0.00  0.00    -0.308 N 
ATOM     22  C   UNL     1      15.610  11.894  14.564  0.00  0.00    +0.244 C 
ATOM     34  H   UNL     1      16.336  10.426  15.863  0.00  0.00    +0.149 HD
BRANCH  22  23
ATOM     23  C   UNL     1      16.944  12.031  13.925  0.00  0.00    +0.037 A 
ATOM     28  C   UNL     1      17.041  12.397  12.583  0.00  0.00    +0.014 A 
ATOM     29  C   UNL     1      18.101  11.795  14.669  0.00  0.00    +0.014 A 
ATOM     30  C   UNL     1      18.293  12.527  11.983  0.00  0.00    +0.019 A 
ATOM     31  C   UNL     1      19.353  11.925  14.070  0.00  0.00    +0.019 A 
ATOM     32  C   UNL     1      19.450  12.291  12.727  0.00  0.00    +0.052 A 
BRANCH  32  33
ATOM      6  N   UNL     1      21.776  12.532  11.614  0.00  0.00    -0.191 NA
ATOM     33  C   UNL     1      20.733  12.424  12.114  0.00  0.00    +0.099 C 
ENDBRANCH  32  33
ENDBRANCH  22  23
ENDBRANCH  14   4
BRANCH  10   1
ATOM      1  O   UNL     1      13.268  12.234  20.388  0.00  0.00    -0.391 OA
ATOM     35  H   UNL     1      13.305  12.373  21.350  0.00  0.00    +0.210 HD
ENDBRANCH  10   1
BRANCH  12  18
ATOM     18  C   UNL     1      11.871  10.544  22.343  0.00  0.00    +0.078 C 
ATOM     20  C   UNL     1      10.984   9.482  22.995  0.00  0.00    +0.017 C 
BRANCH  18  21
ATOM      2  O   UNL     1      10.685  12.594  21.992  0.00  0.00    -0.275 OA
ATOM      5  N   UNL     1      11.905  12.468  23.954  0.00  0.00    -0.302 N 
ATOM     21  C   UNL     1      11.427  11.953  22.744  0.00  0.00    +0.219 C 
BRANCH   5  24
ATOM     24  C   UNL     1      12.754  11.766  24.914  0.00  0.00    +0.104 C 
ATOM     26  C   UNL     1      14.194  12.227  24.823  0.00  0.00    +0.024 C 
ENDBRANCH   5  24
BRANCH   5  25
ATOM     25  C   UNL     1      11.518  13.817  24.355  0.00  0.00    +0.104 C 
ATOM     27  C   UNL     1      10.523  13.791  25.497  0.00  0.00    +0.024 C 
ENDBRANCH   5  25
ENDBRANCH  18  21
ENDBRANCH  12  18
TORSDOF 8
ENDMDL
MODEL 7
REMARK VINA RESULT:      -5.9     29.104     32.681
REMARK  Name = 45361435
REMARK  13 active torsions:
REMARK  status: ('A' for Active; 'I' for Inactive)
REMARK    1  A    between atoms: O_1  and  C_10
REMARK    2  A    between atoms: N_4  and  C_14
REMARK    3  A    between atoms: N_5  and  C_24
REMARK    4  A    between atoms: N_5  and  C_25
REMARK    5  A    between atoms: C_7  and  C_17
REMARK    6  A    between atoms: C_9  and  C_19
REMARK    7  A    between atoms: C_12  and  C_18
REMARK    8  A    between atoms: C_18  and  C_20
REMARK    9  A    between atoms: C_18  and  C_21
REMARK   10  A    between atoms: C_22  and  C_23
REMARK   11  A    between atoms: C_24  and  C_26
REMARK   12  A    between atoms: C_25  and  C_27
REMARK   13  A    between atoms: C_32  and  C_33
REMARK                            x       y       z     vdW  Elec       q    Type
REMARK                         _______ _______ _______ _____ _____    ______ ____
ROOT
ATOM      7  C   UNL     1      17.602  10.729  21.613  0.00  0.00    -0.027 C 
ATOM      8  C   UNL     1      16.958   9.304  21.555  0.00  0.00    +0.028 C 
ATOM      9  C   UNL     1      18.040   8.216  21.218  0.00  0.00    +0.012 C 
ATOM     10  C   UNL     1      15.694   9.292  20.649  0.00  0.00    +0.122 C 
ATOM     11  C   UNL     1      16.536  11.759  22.056  0.00  0.00    +0.007 C 
ATOM     12  C   UNL     1      14.678  10.394  21.032  0.00  0.00    +0.029 C 
ATOM     13  C   UNL     1      18.729  10.731  22.672  0.00  0.00    +0.009 C 
ATOM     14  C   UNL     1      19.204   8.278  22.247  0.00  0.00    +0.076 C 
ATOM     15  C   UNL     1      15.314  11.779  21.148  0.00  0.00    +0.007 C 
ATOM     16  C   UNL     1      19.795   9.677  22.413  0.00  0.00    +0.023 C 
ATOM     17  C   UNL     1      18.185  11.174  20.247  0.00  0.00    +0.011 C 
ATOM     19  C   UNL     1      17.479   6.784  21.174  0.00  0.00    +0.010 C 
ENDROOT
BRANCH  14   4
ATOM      3  O   UNL     1      20.295   6.203  23.905  0.00  0.00    -0.270 OA
ATOM      4  N   UNL     1      20.274   7.366  21.900  0.00  0.00    -0.308 N 
ATOM     22  C   UNL     1      20.732   6.394  22.774  0.00  0.00    +0.244 C 
ATOM     34  H   UNL     1      20.760   7.541  21.026  0.00  0.00    +0.149 HD
BRANCH  22  23
ATOM     23  C   UNL     1      21.855   5.557  22.278  0.00  0.00    +0.037 A 
ATOM     28  C   UNL     1      22.546   4.725  23.158  0.00  0.00    +0.014 A 
ATOM     29  C   UNL     1      22.215   5.601  20.930  0.00  0.00    +0.014 A 
ATOM     30  C   UNL     1      23.599   3.937  22.692  0.00  0.00    +0.019 A 
ATOM     31  C   UNL     1      23.267   4.814  20.465  0.00  0.00    +0.019 A 
ATOM     32  C   UNL     1      23.959   3.982  21.344  0.00  0.00    +0.052 A 
BRANCH  32  33
ATOM      6  N   UNL     1      25.914   2.521  20.479  0.00  0.00    -0.191 NA
ATOM     33  C   UNL     1      25.038   3.176  20.867  0.00  0.00    +0.099 C 
ENDBRANCH  32  33
ENDBRANCH  22  23
ENDBRANCH  14   4
BRANCH  10   1
ATOM      1  O   UNL     1      15.016   8.044  20.791  0.00  0.00    -0.391 OA
ATOM     35  H   UNL     1      14.241   8.052  20.204  0.00  0.00    +0.210 HD
ENDBRANCH  10   1
BRANCH  12  18
ATOM     18  C   UNL     1      13.503  10.450  20.048  0.00  0.00    +0.078 C 
ATOM     20  C   UNL     1      13.262  11.900  19.625  0.00  0.00    +0.017 C 
BRANCH  18  21
ATOM      2  O   UNL     1      11.765  10.398  21.695  0.00  0.00    -0.275 OA
ATOM      5  N   UNL     1      11.722   8.684  20.140  0.00  0.00    -0.302 N 
ATOM     21  C   UNL     1      12.253   9.853  20.699  0.00  0.00    +0.219 C 
BRANCH   5  24
ATOM     24  C   UNL     1      12.214   7.998  18.948  0.00  0.00    +0.104 C 
ATOM     26  C   UNL     1      11.481   8.454  17.703  0.00  0.00    +0.024 C 
ENDBRANCH   5  24
BRANCH   5  25
ATOM     25  C   UNL     1      10.543   8.077  20.750  0.00  0.00    +0.104 C 
ATOM     27  C   UNL     1      10.913   6.870  21.587  0.00  0.00    +0.024 C 
ENDBRANCH   5  25
ENDBRANCH  18  21
ENDBRANCH  12  18
TORSDOF 8
ENDMDL
MODEL 8
REMARK VINA RESULT:      -5.9     18.307     20.128
REMARK  Name = 45361435
REMARK  13 active torsions:
REMARK  status: ('A' for Active; 'I' for Inactive)
REMARK    1  A    between atoms: O_1  and  C_10
REMARK    2  A    between atoms: N_4  and  C_14
REMARK    3  A    between atoms: N_5  and  C_24
REMARK    4  A    between atoms: N_5  and  C_25
REMARK    5  A    between atoms: C_7  and  C_17
REMARK    6  A    between atoms: C_9  and  C_19
REMARK    7  A    between atoms: C_12  and  C_18
REMARK    8  A    between atoms: C_18  and  C_20
REMARK    9  A    between atoms: C_18  and  C_21
REMARK   10  A    between atoms: C_22  and  C_23
REMARK   11  A    between atoms: C_24  and  C_26
REMARK   12  A    between atoms: C_25  and  C_27
REMARK   13  A    between atoms: C_32  and  C_33
REMARK                            x       y       z     vdW  Elec       q    Type
REMARK                         _______ _______ _______ _____ _____    ______ ____
ROOT
ATOM      7  C   UNL     1     -15.278   7.705  20.276  0.00  0.00    -0.027 C 
ATOM      8  C   UNL     1     -13.929   7.017  20.672  0.00  0.00    +0.028 C 
ATOM      9  C   UNL     1     -14.131   6.060  21.901  0.00  0.00    +0.012 C 
ATOM     10  C   UNL     1     -12.785   8.061  20.818  0.00  0.00    +0.122 C 
ATOM     11  C   UNL     1     -15.070   8.551  18.997  0.00  0.00    +0.007 C 
ATOM     12  C   UNL     1     -12.651   8.973  19.576  0.00  0.00    +0.029 C 
ATOM     13  C   UNL     1     -16.326   6.614  19.954  0.00  0.00    +0.009 C 
ATOM     14  C   UNL     1     -15.239   5.014  21.593  0.00  0.00    +0.076 C 
ATOM     15  C   UNL     1     -13.978   9.600  19.150  0.00  0.00    +0.007 C 
ATOM     16  C   UNL     1     -16.544   5.638  21.101  0.00  0.00    +0.023 C 
ATOM     17  C   UNL     1     -15.828   8.625  21.396  0.00  0.00    +0.011 C 
ATOM     19  C   UNL     1     -12.847   5.327  22.326  0.00  0.00    +0.010 C 
ENDROOT
BRANCH  14   4
ATOM      3  O   UNL     1     -16.508   5.855  24.028  0.00  0.00    -0.270 OA
ATOM      4  N   UNL     1     -15.531   4.188  22.746  0.00  0.00    -0.308 N 
ATOM     22  C   UNL     1     -16.150   4.690  23.879  0.00  0.00    +0.244 C 
ATOM     34  H   UNL     1     -15.159   3.244  22.740  0.00  0.00    +0.149 HD
BRANCH  22  23
ATOM     23  C   UNL     1     -16.355   3.721  24.986  0.00  0.00    +0.037 A 
ATOM     28  C   UNL     1     -16.483   4.176  26.297  0.00  0.00    +0.014 A 
ATOM     29  C   UNL     1     -16.422   2.354  24.712  0.00  0.00    +0.014 A 
ATOM     30  C   UNL     1     -16.678   3.266  27.336  0.00  0.00    +0.019 A 
ATOM     31  C   UNL     1     -16.616   1.444  25.750  0.00  0.00    +0.019 A 
ATOM     32  C   UNL     1     -16.745   1.900  27.063  0.00  0.00    +0.052 A 
BRANCH  32  33
ATOM      6  N   UNL     1     -17.105   0.209  28.991  0.00  0.00    -0.191 NA
ATOM     33  C   UNL     1     -16.943   0.967  28.126  0.00  0.00    +0.099 C 
ENDBRANCH  32  33
ENDBRANCH  22  23
ENDBRANCH  14   4
BRANCH  10   1
ATOM      1  O   UNL     1     -11.537   7.384  20.964  0.00  0.00    -0.391 OA
ATOM     35  H   UNL     1     -11.349   6.913  20.134  0.00  0.00    +0.210 HD
ENDBRANCH  10   1
BRANCH  12  18
ATOM     18  C   UNL     1     -11.608  10.077  19.792  0.00  0.00    +0.078 C 
ATOM     20  C   UNL     1     -11.997  10.915  21.009  0.00  0.00    +0.017 C 
BRANCH  18  21
ATOM      2  O   UNL     1     -12.132  12.011  18.480  0.00  0.00    -0.275 OA
ATOM      5  N   UNL     1     -10.715  10.478  17.481  0.00  0.00    -0.302 N 
ATOM     21  C   UNL     1     -11.507  10.946  18.535  0.00  0.00    +0.219 C 
BRANCH   5  24
ATOM     24  C   UNL     1      -9.919   9.253  17.479  0.00  0.00    +0.104 C 
ATOM     26  C   UNL     1     -10.575   8.166  16.652  0.00  0.00    +0.024 C 
ENDBRANCH   5  24
BRANCH   5  25
ATOM     25  C   UNL     1     -10.614  11.273  16.261  0.00  0.00    +0.104 C 
ATOM     27  C   UNL     1      -9.432  12.218  16.312  0.00  0.00    +0.024 C 
ENDBRANCH   5  25
ENDBRANCH  18  21
ENDBRANCH  12  18
TORSDOF 8
ENDMDL
MODEL 9
REMARK VINA RESULT:      -5.9      4.047      9.779
REMARK  Name = 45361435
REMARK  13 active torsions:
REMARK  status: ('A' for Active; 'I' for Inactive)
REMARK    1  A    between atoms: O_1  and  C_10
REMARK    2  A    between atoms: N_4  and  C_14
REMARK    3  A    between atoms: N_5  and  C_24
REMARK    4  A    between atoms: N_5  and  C_25
REMARK    5  A    between atoms: C_7  and  C_17
REMARK    6  A    between atoms: C_9  and  C_19
REMARK    7  A    between atoms: C_12  and  C_18
REMARK    8  A    between atoms: C_18  and  C_20
REMARK    9  A    between atoms: C_18  and  C_21
REMARK   10  A    between atoms: C_22  and  C_23
REMARK   11  A    between atoms: C_24  and  C_26
REMARK   12  A    between atoms: C_25  and  C_27
REMARK   13  A    between atoms: C_32  and  C_33
REMARK                            x       y       z     vdW  Elec       q    Type
REMARK                         _______ _______ _______ _____ _____    ______ ____
ROOT
ATOM      7  C   UNL     1      -3.631 -11.337  11.248  0.00  0.00    -0.027 C 
ATOM      8  C   UNL     1      -5.087 -10.983  11.703  0.00  0.00    +0.028 C 
ATOM      9  C   UNL     1      -5.824 -10.136  10.604  0.00  0.00    +0.012 C 
ATOM     10  C   UNL     1      -5.098 -10.376  13.134  0.00  0.00    +0.122 C 
ATOM     11  C   UNL     1      -2.973 -12.263  12.298  0.00  0.00    +0.007 C 
ATOM     12  C   UNL     1      -4.348 -11.258  14.160  0.00  0.00    +0.029 C 
ATOM     13  C   UNL     1      -3.694 -12.111   9.911  0.00  0.00    +0.009 C 
ATOM     14  C   UNL     1      -5.815 -10.892   9.246  0.00  0.00    +0.076 C 
ATOM     15  C   UNL     1      -2.947 -11.655  13.694  0.00  0.00    +0.007 C 
ATOM     16  C   UNL     1      -4.423 -11.349   8.813  0.00  0.00    +0.023 C 
ATOM     17  C   UNL     1      -2.742 -10.079  11.068  0.00  0.00    +0.011 C 
ATOM     19  C   UNL     1      -7.274  -9.778  10.974  0.00  0.00    +0.010 C 
ENDROOT
BRANCH  14   4
ATOM      3  O   UNL     1      -7.230 -11.856   6.940  0.00  0.00    -0.270 OA
ATOM      4  N   UNL     1      -6.385 -10.091   8.183  0.00  0.00    -0.308 N 
ATOM     22  C   UNL     1      -7.052 -10.653   7.107  0.00  0.00    +0.244 C 
ATOM     34  H   UNL     1      -6.177  -9.098   8.196  0.00  0.00    +0.149 HD
BRANCH  22  23
ATOM     23  C   UNL     1      -7.555  -9.696   6.088  0.00  0.00    +0.037 A 
ATOM     28  C   UNL     1      -8.145  -8.498   6.486  0.00  0.00    +0.014 A 
ATOM     29  C   UNL     1      -7.434  -9.997   4.730  0.00  0.00    +0.014 A 
ATOM     30  C   UNL     1      -8.616  -7.599   5.529  0.00  0.00    +0.019 A 
ATOM     31  C   UNL     1      -7.904  -9.099   3.773  0.00  0.00    +0.019 A 
ATOM     32  C   UNL     1      -8.495  -7.900   4.172  0.00  0.00    +0.052 A 
BRANCH  32  33
ATOM      6  N   UNL     1      -9.369  -6.232   2.394  0.00  0.00    -0.191 NA
ATOM     33  C   UNL     1      -8.977  -6.980   3.191  0.00  0.00    +0.099 C 
ENDBRANCH  32  33
ENDBRANCH  22  23
ENDBRANCH  14   4
BRANCH  10   1
ATOM      1  O   UNL     1      -6.445 -10.269  13.596  0.00  0.00    -0.391 OA
ATOM     35  H   UNL     1      -6.778 -11.166  13.770  0.00  0.00    +0.210 HD
ENDBRANCH  10   1
BRANCH  12  18
ATOM     18  C   UNL     1      -4.258 -10.581  15.534  0.00  0.00    +0.078 C 
ATOM     20  C   UNL     1      -2.790 -10.437  15.936  0.00  0.00    +0.017 C 
BRANCH  18  21
ATOM      2  O   UNL     1      -4.665 -12.552  16.832  0.00  0.00    -0.275 OA
ATOM      5  N   UNL     1      -6.155 -10.812  17.160  0.00  0.00    -0.302 N 
ATOM     21  C   UNL     1      -5.033 -11.402  16.567  0.00  0.00    +0.219 C 
BRANCH   5  24
ATOM     24  C   UNL     1      -6.636  -9.452  16.930  0.00  0.00    +0.104 C 
ATOM     26  C   UNL     1      -8.116  -9.434  16.603  0.00  0.00    +0.024 C 
ENDBRANCH   5  24
BRANCH   5  25
ATOM     25  C   UNL     1      -6.929 -11.576  18.133  0.00  0.00    +0.104 C 
ATOM     27  C   UNL     1      -6.538 -11.220  19.553  0.00  0.00    +0.024 C 
ENDBRANCH   5  25
ENDBRANCH  18  21
ENDBRANCH  12  18
TORSDOF 8
ENDMDL
MODEL 10
REMARK VINA RESULT:      -5.7      3.750     11.074
REMARK  Name = 45361435
REMARK  13 active torsions:
REMARK  status: ('A' for Active; 'I' for Inactive)
REMARK    1  A    between atoms: O_1  and  C_10
REMARK    2  A    between atoms: N_4  and  C_14
REMARK    3  A    between atoms: N_5  and  C_24
REMARK    4  A    between atoms: N_5  and  C_25
REMARK    5  A    between atoms: C_7  and  C_17
REMARK    6  A    between atoms: C_9  and  C_19
REMARK    7  A    between atoms: C_12  and  C_18
REMARK    8  A    between atoms: C_18  and  C_20
REMARK    9  A    between atoms: C_18  and  C_21
REMARK   10  A    between atoms: C_22  and  C_23
REMARK   11  A    between atoms: C_24  and  C_26
REMARK   12  A    between atoms: C_25  and  C_27
REMARK   13  A    between atoms: C_32  and  C_33
REMARK                            x       y       z     vdW  Elec       q    Type
REMARK                         _______ _______ _______ _____ _____    ______ ____
ROOT
ATOM      7  C   UNL     1      -3.973 -14.046  13.167  0.00  0.00    -0.027 C 
ATOM      8  C   UNL     1      -4.247 -12.619  12.587  0.00  0.00    +0.028 C 
ATOM      9  C   UNL     1      -3.677 -12.491  11.128  0.00  0.00    +0.012 C 
ATOM     10  C   UNL     1      -3.795 -11.510  13.579  0.00  0.00    +0.122 C 
ATOM     11  C   UNL     1      -4.642 -14.175  14.557  0.00  0.00    +0.007 C 
ATOM     12  C   UNL     1      -4.385 -11.704  14.996  0.00  0.00    +0.029 C 
ATOM     13  C   UNL     1      -4.613 -15.102  12.236  0.00  0.00    +0.009 C 
ATOM     14  C   UNL     1      -4.272 -13.604  10.219  0.00  0.00    +0.076 C 
ATOM     15  C   UNL     1      -4.173 -13.115  15.543  0.00  0.00    +0.007 C 
ATOM     16  C   UNL     1      -4.119 -15.009  10.799  0.00  0.00    +0.023 C 
ATOM     17  C   UNL     1      -2.459 -14.348  13.315  0.00  0.00    +0.011 C 
ATOM     19  C   UNL     1      -3.938 -11.119  10.484  0.00  0.00    +0.010 C 
ENDROOT
BRANCH  14   4
ATOM      3  O   UNL     1      -5.672 -13.432   7.718  0.00  0.00    -0.270 OA
ATOM      4  N   UNL     1      -3.682 -13.587   8.897  0.00  0.00    -0.308 N 
ATOM     22  C   UNL     1      -4.447 -13.502   7.745  0.00  0.00    +0.244 C 
ATOM     34  H   UNL     1      -2.683 -13.758   8.839  0.00  0.00    +0.149 HD
BRANCH  22  23
ATOM     23  C   UNL     1      -3.692 -13.524   6.466  0.00  0.00    +0.037 A 
ATOM     28  C   UNL     1      -2.932 -14.641   6.123  0.00  0.00    +0.014 A 
ATOM     29  C   UNL     1      -3.745 -12.426   5.606  0.00  0.00    +0.014 A 
ATOM     30  C   UNL     1      -2.225 -14.663   4.921  0.00  0.00    +0.019 A 
ATOM     31  C   UNL     1      -3.038 -12.447   4.405  0.00  0.00    +0.019 A 
ATOM     32  C   UNL     1      -2.278 -13.565   4.061  0.00  0.00    +0.052 A 
BRANCH  32  33
ATOM      6  N   UNL     1      -0.965 -13.603   1.830  0.00  0.00    -0.191 NA
ATOM     33  C   UNL     1      -1.554 -13.586   2.831  0.00  0.00    +0.099 C 
ENDBRANCH  32  33
ENDBRANCH  22  23
ENDBRANCH  14   4
BRANCH  10   1
ATOM      1  O   UNL     1      -4.253 -10.239  13.117  0.00  0.00    -0.391 OA
ATOM     35  H   UNL     1      -3.557  -9.584  13.292  0.00  0.00    +0.210 HD
ENDBRANCH  10   1
BRANCH  12  18
ATOM     18  C   UNL     1      -3.826 -10.679  15.990  0.00  0.00    +0.078 C 
ATOM     20  C   UNL     1      -2.303 -10.799  16.044  0.00  0.00    +0.017 C 
BRANCH  18  21
ATOM      2  O   UNL     1      -3.770 -11.439  18.261  0.00  0.00    -0.275 OA
ATOM      5  N   UNL     1      -5.775 -10.516  17.564  0.00  0.00    -0.302 N 
ATOM     21  C   UNL     1      -4.445 -10.907  17.372  0.00  0.00    +0.219 C 
BRANCH   5  24
ATOM     24  C   UNL     1      -6.628  -9.851  16.582  0.00  0.00    +0.104 C 
ATOM     26  C   UNL     1      -7.792  -9.145  17.246  0.00  0.00    +0.024 C 
ENDBRANCH   5  24
BRANCH   5  25
ATOM     25  C   UNL     1      -6.401 -10.739  18.863  0.00  0.00    +0.104 C 
ATOM     27  C   UNL     1      -6.927 -12.154  18.988  0.00  0.00    +0.024 C 
ENDBRANCH   5  25
ENDBRANCH  18  21
ENDBRANCH  12  18
TORSDOF 8
ENDMDL
