REMARK  Name = 7050208
REMARK  11 active torsions:
REMARK  status: ('A' for Active; 'I' for Inactive)
REMARK    1  A    between atoms: O_3  and  C_13
REMARK    2  A    between atoms: O_4  and  C_16
REMARK    3  A    between atoms: O_5  and  C_18
REMARK    4  A    between atoms: O_9  and  C_35
REMARK    5  A    between atoms: N_10  and  C_14
REMARK    6  A    between atoms: N_11  and  C_20
REMARK    7  A    between atoms: C_13  and  C_19
REMARK    8  A    between atoms: C_20  and  C_22
REMARK    9  A    between atoms: C_20  and  C_24
REMARK   10  A    between atoms: C_21  and  C_23
REMARK   11  A    between atoms: C_22  and  C_25
REMARK                            x       y       z     vdW  Elec       q    Type
REMARK                         _______ _______ _______ _____ _____    ______ ____
ROOT
ATOM     13  C   UNL     1      -2.070  -1.777   0.907  0.00  0.00    +0.146 C 
ATOM     14  C   UNL     1       0.334  -2.307   0.278  0.00  0.00    +0.107 C 
ATOM     15  C   UNL     1      -0.691  -1.206   0.572  0.00  0.00    +0.069 C 
ATOM     16  C   UNL     1      -0.162  -3.275  -0.805  0.00  0.00    +0.163 C 
ATOM     17  C   UNL     1      -2.561  -2.722  -0.188  0.00  0.00    +0.078 C 
ATOM     18  C   UNL     1      -1.551  -3.832  -0.485  0.00  0.00    +0.148 C 
ENDROOT
BRANCH  13  19
ATOM      6  O   UNL     1      -3.670  -0.539   2.178  0.00  0.00    -0.273 OA
ATOM     11  N   UNL     1      -3.205   0.127  -0.004  0.00  0.00    -0.301 N 
ATOM     19  C   UNL     1      -3.062  -0.671   1.119  0.00  0.00    +0.246 C 
ATOM     40  H   UNL     1      -2.724  -0.119  -0.862  0.00  0.00    +0.150 HD
BRANCH  11  20
ATOM     20  C   UNL     1      -4.116   1.247  -0.067  0.00  0.00    +0.163 C 
BRANCH  20  24
ATOM      8  O   UNL     1      -5.610  -0.231  -1.287  0.00  0.00    -0.274 OA
ATOM     12  N   UNL     1      -6.523   1.329   0.131  0.00  0.00    -0.328 N 
ATOM     24  C   UNL     1      -5.469   0.701  -0.498  0.00  0.00    +0.231 C 
ATOM     41  H   UNL     1      -7.481   1.050  -0.056  0.00  0.00    +0.145 HD
ATOM     42  H   UNL     1      -6.392   2.095   0.783  0.00  0.00    +0.145 HD
ENDBRANCH  20  24
BRANCH  20  22
ATOM     22  C   UNL     1      -3.640   2.327  -1.046  0.00  0.00    +0.067 C 
BRANCH  22  25
ATOM     25  C   UNL     1      -2.286   2.887  -0.683  0.00  0.00    -0.045 A 
ATOM     28  C   UNL     1      -2.192   3.993   0.161  0.00  0.00    +0.007 A 
ATOM     29  C   UNL     1      -1.128   2.298  -1.193  0.00  0.00    +0.007 A 
ATOM     33  C   UNL     1      -0.940   4.511   0.495  0.00  0.00    +0.045 A 
ATOM     34  C   UNL     1       0.123   2.815  -0.858  0.00  0.00    +0.045 A 
ATOM     35  C   UNL     1       0.217   3.922  -0.014  0.00  0.00    +0.117 A 
BRANCH  35   9
ATOM      9  O   UNL     1       1.438   4.427   0.313  0.00  0.00    -0.507 OA
ATOM     43  H   UNL     1       2.126   3.897  -0.125  0.00  0.00    +0.292 HD
ENDBRANCH  35   9
ENDBRANCH  22  25
ENDBRANCH  20  22
ENDBRANCH  11  20
ENDBRANCH  13  19
BRANCH  14  10
ATOM      7  O   UNL     1       2.456  -1.492   2.031  0.00  0.00    -0.270 OA
ATOM     10  N   UNL     1       1.594  -1.711  -0.110  0.00  0.00    -0.306 N 
ATOM     21  C   UNL     1       2.559  -1.351   0.816  0.00  0.00    +0.244 C 
ATOM     36  H   UNL     1       1.701  -1.460  -1.087  0.00  0.00    +0.149 HD
BRANCH  21  23
ATOM      1 CL   UNL     1       6.612   1.826   1.482  0.00  0.00    -0.081 Cl
ATOM      2  F   UNL     1       7.200   0.996  -1.304  0.00  0.00    -0.204 F 
ATOM     23  C   UNL     1       3.787  -0.726   0.259  0.00  0.00    +0.038 A 
ATOM     26  C   UNL     1       4.537   0.155   1.038  0.00  0.00    +0.036 A 
ATOM     27  C   UNL     1       4.190  -1.023  -1.043  0.00  0.00    +0.016 A 
ATOM     30  C   UNL     1       5.690   0.739   0.515  0.00  0.00    +0.077 A 
ATOM     31  C   UNL     1       5.344  -0.438  -1.566  0.00  0.00    +0.040 A 
ATOM     32  C   UNL     1       6.094   0.443  -0.787  0.00  0.00    +0.142 A 
ENDBRANCH  21  23
ENDBRANCH  14  10
BRANCH  13   3
ATOM      3  O   UNL     1      -2.031  -2.478   2.144  0.00  0.00    -0.379 OA
ATOM     37  H   UNL     1      -2.892  -2.911   2.280  0.00  0.00    +0.211 HD
ENDBRANCH  13   3
BRANCH  16   4
ATOM      4  O   UNL     1       0.739  -4.382  -0.890  0.00  0.00    -0.387 OA
ATOM     38  H   UNL     1       0.771  -4.813  -0.018  0.00  0.00    +0.210 HD
ENDBRANCH  16   4
BRANCH  18   5
ATOM      5  O   UNL     1      -2.008  -4.581  -1.611  0.00  0.00    -0.389 OA
ATOM     39  H   UNL     1      -2.885  -4.939  -1.388  0.00  0.00    +0.210 HD
ENDBRANCH  18   5
TORSDOF 11
