MODEL 1
REMARK VINA RESULT:      -7.1      0.000      0.000
REMARK  Name = 11865858
REMARK  12 active torsions:
REMARK  status: ('A' for Active; 'I' for Inactive)
REMARK    1  A    between atoms: N_6  and  C_11
REMARK    2  A    between atoms: N_7  and  C_17
REMARK    3  A    between atoms: N_8  and  C_23
REMARK    4  A    between atoms: C_12  and  C_15
REMARK    5  A    between atoms: C_16  and  C_20
REMARK    6  A    between atoms: C_17  and  C_19
REMARK    7  A    between atoms: C_17  and  C_22
REMARK    8  A    between atoms: C_19  and  C_21
REMARK    9  A    between atoms: C_23  and  C_28
REMARK   10  A    between atoms: C_23  and  C_29
REMARK   11  A    between atoms: C_24  and  C_30
REMARK   12  A    between atoms: C_24  and  C_31
REMARK                            x       y       z     vdW  Elec       q    Type
REMARK                         _______ _______ _______ _____ _____    ______ ____
ROOT
ATOM      1  O   UNL     1      -4.876 -12.059  13.179  0.00  0.00    -0.274 OA
ATOM      7  N   UNL     1      -4.283 -10.556  14.855  0.00  0.00    -0.302 N 
ATOM     15  C   UNL     1      -5.051 -11.012  13.798  0.00  0.00    +0.236 C 
ATOM     37  H   UNL     1      -4.461  -9.626  15.222  0.00  0.00    +0.150 HD
ENDROOT
BRANCH  15  12
ATOM      2  O   UNL     1      -6.604 -10.222   9.815  0.00  0.00    -0.271 OA
ATOM      5  N   UNL     1      -6.642 -10.405  12.122  0.00  0.00    -0.285 N 
ATOM     11  C   UNL     1      -7.387 -10.371  14.379  0.00  0.00    +0.105 C 
ATOM     12  C   UNL     1      -6.184 -10.082  13.475  0.00  0.00    +0.182 C 
ATOM     13  C   UNL     1      -8.146 -11.460  13.619  0.00  0.00    +0.043 C 
ATOM     14  C   UNL     1      -7.926 -11.096  12.158  0.00  0.00    +0.111 C 
ATOM     16  C   UNL     1      -6.086 -10.022  10.914  0.00  0.00    +0.240 C 
BRANCH  11   6
ATOM      3  O   UNL     1      -9.139  -9.787  16.594  0.00  0.00    -0.253 OA
ATOM      6  N   UNL     1      -8.204  -9.195  14.553  0.00  0.00    -0.294 N 
ATOM      8  N   UNL     1      -9.702  -7.780  15.575  0.00  0.00    -0.297 N 
ATOM     18  C   UNL     1      -9.026  -8.994  15.660  0.00  0.00    +0.300 C 
ATOM     36  H   UNL     1      -8.233  -8.509  13.804  0.00  0.00    +0.151 HD
ATOM     38  H   UNL     1      -9.598  -7.227  14.728  0.00  0.00    +0.150 HD
BRANCH   8  23
ATOM     23  C   UNL     1     -10.620  -7.321  16.590  0.00  0.00    +0.068 C 
ATOM     28  C   UNL     1     -11.131  -5.925  16.259  0.00  0.00    +0.027 C 
ATOM     29  C   UNL     1     -11.770  -8.308  16.748  0.00  0.00    +0.027 C 
ENDBRANCH   8  23
ENDBRANCH  11   6
BRANCH  16  20
ATOM     20  C   UNL     1      -4.784  -9.329  10.961  0.00  0.00    +0.066 C 
ATOM     24  C   UNL     1      -3.609  -9.878  10.609  0.00  0.00    -0.071 C 
ATOM     30  C   UNL     1      -2.265  -9.206  10.644  0.00  0.00    +0.039 C 
ATOM     31  C   UNL     1      -3.567 -11.304  10.124  0.00  0.00    +0.039 C 
ENDBRANCH  16  20
ENDBRANCH  15  12
BRANCH   7  17
ATOM     17  C   UNL     1      -3.145 -11.278  15.375  0.00  0.00    +0.163 C 
BRANCH  17  22
ATOM      4  O   UNL     1      -1.733  -9.897  13.960  0.00  0.00    -0.274 OA
ATOM     10  N   UNL     1      -1.013 -10.390  16.085  0.00  0.00    -0.328 N 
ATOM     22  C   UNL     1      -1.905 -10.465  15.036  0.00  0.00    +0.231 C 
ATOM     40  H   UNL     1      -1.178 -10.845  16.976  0.00  0.00    +0.145 HD
ATOM     41  H   UNL     1      -0.149  -9.865  15.996  0.00  0.00    +0.145 HD
ENDBRANCH  17  22
BRANCH  17  19
ATOM     19  C   UNL     1      -3.242 -11.502  16.889  0.00  0.00    +0.069 C 
BRANCH  19  21
ATOM      9  N   UNL     1      -5.962 -13.896  17.507  0.00  0.00    -0.360 N 
ATOM     21  C   UNL     1      -4.469 -12.267  17.294  0.00  0.00    -0.020 A 
ATOM     25  C   UNL     1      -5.537 -11.789  18.105  0.00  0.00    +0.003 A 
ATOM     26  C   UNL     1      -4.759 -13.566  16.943  0.00  0.00    +0.087 A 
ATOM     27  C   UNL     1      -6.460 -12.831  18.222  0.00  0.00    +0.047 A 
ATOM     32  C   UNL     1      -5.808 -10.566  18.751  0.00  0.00    +0.010 A 
ATOM     33  C   UNL     1      -7.646 -12.710  18.957  0.00  0.00    +0.026 A 
ATOM     34  C   UNL     1      -6.989 -10.432  19.490  0.00  0.00    +0.001 A 
ATOM     35  C   UNL     1      -7.892 -11.488  19.590  0.00  0.00    +0.002 A 
ATOM     39  H   UNL     1      -6.420 -14.792  17.413  0.00  0.00    +0.165 HD
ENDBRANCH  19  21
ENDBRANCH  17  19
ENDBRANCH   7  17
TORSDOF 8
ENDMDL
MODEL 2
REMARK VINA RESULT:      -6.8     23.759     28.522
REMARK  Name = 11865858
REMARK  12 active torsions:
REMARK  status: ('A' for Active; 'I' for Inactive)
REMARK    1  A    between atoms: N_6  and  C_11
REMARK    2  A    between atoms: N_7  and  C_17
REMARK    3  A    between atoms: N_8  and  C_23
REMARK    4  A    between atoms: C_12  and  C_15
REMARK    5  A    between atoms: C_16  and  C_20
REMARK    6  A    between atoms: C_17  and  C_19
REMARK    7  A    between atoms: C_17  and  C_22
REMARK    8  A    between atoms: C_19  and  C_21
REMARK    9  A    between atoms: C_23  and  C_28
REMARK   10  A    between atoms: C_23  and  C_29
REMARK   11  A    between atoms: C_24  and  C_30
REMARK   12  A    between atoms: C_24  and  C_31
REMARK                            x       y       z     vdW  Elec       q    Type
REMARK                         _______ _______ _______ _____ _____    ______ ____
ROOT
ATOM      1  O   UNL     1      13.196   7.178   1.179  0.00  0.00    -0.274 OA
ATOM      7  N   UNL     1      13.785   5.132   2.118  0.00  0.00    -0.302 N 
ATOM     15  C   UNL     1      13.391   6.458   2.154  0.00  0.00    +0.236 C 
ATOM     37  H   UNL     1      14.014   4.666   2.991  0.00  0.00    +0.150 HD
ENDROOT
BRANCH  15  12
ATOM      2  O   UNL     1      13.915  10.565   3.476  0.00  0.00    -0.271 OA
ATOM      5  N   UNL     1      13.070   8.411   3.492  0.00  0.00    -0.285 N 
ATOM     11  C   UNL     1      11.840   6.472   4.103  0.00  0.00    +0.105 C 
ATOM     12  C   UNL     1      13.188   6.952   3.557  0.00  0.00    +0.182 C 
ATOM     13  C   UNL     1      10.865   7.558   3.645  0.00  0.00    +0.043 C 
ATOM     14  C   UNL     1      11.692   8.833   3.715  0.00  0.00    +0.111 C 
ATOM     16  C   UNL     1      14.083   9.349   3.391  0.00  0.00    +0.240 C 
BRANCH  11   6
ATOM      3  O   UNL     1       9.723   5.516   5.815  0.00  0.00    -0.253 OA
ATOM      6  N   UNL     1      11.865   6.372   5.542  0.00  0.00    -0.294 N 
ATOM      8  N   UNL     1      11.083   5.906   7.654  0.00  0.00    -0.297 N 
ATOM     18  C   UNL     1      10.792   5.896   6.293  0.00  0.00    +0.300 C 
ATOM     36  H   UNL     1      12.678   6.724   6.039  0.00  0.00    +0.151 HD
ATOM     38  H   UNL     1      11.966   6.307   7.957  0.00  0.00    +0.150 HD
BRANCH   8  23
ATOM     23  C   UNL     1      10.145   5.463   8.659  0.00  0.00    +0.068 C 
ATOM     28  C   UNL     1       8.958   6.415   8.739  0.00  0.00    +0.027 C 
ATOM     29  C   UNL     1       9.692   4.038   8.369  0.00  0.00    +0.027 C 
ENDBRANCH   8  23
ENDBRANCH  11   6
BRANCH  16  20
ATOM     20  C   UNL     1      15.451   8.842   3.164  0.00  0.00    +0.066 C 
ATOM     24  C   UNL     1      16.359   8.626   4.130  0.00  0.00    -0.071 C 
ATOM     30  C   UNL     1      17.759   8.112   3.938  0.00  0.00    +0.039 C 
ATOM     31  C   UNL     1      16.003   8.906   5.567  0.00  0.00    +0.039 C 
ENDBRANCH  16  20
ENDBRANCH  15  12
BRANCH   7  17
ATOM     17  C   UNL     1      14.026   4.412   0.889  0.00  0.00    +0.163 C 
BRANCH  17  22
ATOM      4  O   UNL     1      16.224   3.752   0.090  0.00  0.00    -0.274 OA
ATOM     10  N   UNL     1      15.655   3.271   2.263  0.00  0.00    -0.328 N 
ATOM     22  C   UNL     1      15.403   3.775   1.004  0.00  0.00    +0.231 C 
ATOM     40  H   UNL     1      14.976   3.317   3.015  0.00  0.00    +0.145 HD
ATOM     41  H   UNL     1      16.544   2.831   2.479  0.00  0.00    +0.145 HD
ENDBRANCH  17  22
BRANCH  17  19
ATOM     19  C   UNL     1      12.961   3.341   0.625  0.00  0.00    +0.069 C 
BRANCH  19  21
ATOM      9  N   UNL     1      10.003   4.763  -1.031  0.00  0.00    -0.360 N 
ATOM     21  C   UNL     1      11.866   3.811  -0.290  0.00  0.00    -0.020 A 
ATOM     25  C   UNL     1      11.786   3.599  -1.696  0.00  0.00    +0.003 A 
ATOM     26  C   UNL     1      10.756   4.531   0.088  0.00  0.00    +0.087 A 
ATOM     27  C   UNL     1      10.607   4.206  -2.134  0.00  0.00    +0.047 A 
ATOM     32  C   UNL     1      12.605   2.945  -2.638  0.00  0.00    +0.010 A 
ATOM     33  C   UNL     1      10.205   4.192  -3.475  0.00  0.00    +0.026 A 
ATOM     34  C   UNL     1      12.215   2.924  -3.982  0.00  0.00    +0.001 A 
ATOM     35  C   UNL     1      11.034   3.538  -4.392  0.00  0.00    +0.002 A 
ATOM     39  H   UNL     1       9.129   5.271  -1.046  0.00  0.00    +0.165 HD
ENDBRANCH  19  21
ENDBRANCH  17  19
ENDBRANCH   7  17
TORSDOF 8
ENDMDL
MODEL 3
REMARK VINA RESULT:      -6.7      2.404      5.799
REMARK  Name = 11865858
REMARK  12 active torsions:
REMARK  status: ('A' for Active; 'I' for Inactive)
REMARK    1  A    between atoms: N_6  and  C_11
REMARK    2  A    between atoms: N_7  and  C_17
REMARK    3  A    between atoms: N_8  and  C_23
REMARK    4  A    between atoms: C_12  and  C_15
REMARK    5  A    between atoms: C_16  and  C_20
REMARK    6  A    between atoms: C_17  and  C_19
REMARK    7  A    between atoms: C_17  and  C_22
REMARK    8  A    between atoms: C_19  and  C_21
REMARK    9  A    between atoms: C_23  and  C_28
REMARK   10  A    between atoms: C_23  and  C_29
REMARK   11  A    between atoms: C_24  and  C_30
REMARK   12  A    between atoms: C_24  and  C_31
REMARK                            x       y       z     vdW  Elec       q    Type
REMARK                         _______ _______ _______ _____ _____    ______ ____
ROOT
ATOM      1  O   UNL     1      -5.284 -10.292  14.096  0.00  0.00    -0.274 OA
ATOM      7  N   UNL     1      -3.561 -11.375  15.225  0.00  0.00    -0.302 N 
ATOM     15  C   UNL     1      -4.878 -11.015  15.002  0.00  0.00    +0.236 C 
ATOM     37  H   UNL     1      -3.332 -11.896  16.066  0.00  0.00    +0.150 HD
ENDROOT
BRANCH  15  12
ATOM      2  O   UNL     1      -4.632 -15.098  16.474  0.00  0.00    -0.271 OA
ATOM      5  N   UNL     1      -5.162 -12.845  16.512  0.00  0.00    -0.285 N 
ATOM     11  C   UNL     1      -5.978 -10.728  17.218  0.00  0.00    +0.105 C 
ATOM     12  C   UNL     1      -5.814 -11.638  15.997  0.00  0.00    +0.182 C 
ATOM     13  C   UNL     1      -4.825 -11.149  18.132  0.00  0.00    +0.043 C 
ATOM     14  C   UNL     1      -4.697 -12.644  17.879  0.00  0.00    +0.111 C 
ATOM     16  C   UNL     1      -5.082 -14.095  15.921  0.00  0.00    +0.240 C 
BRANCH  11   6
ATOM      3  O   UNL     1      -8.236  -8.933  17.239  0.00  0.00    -0.253 OA
ATOM      6  N   UNL     1      -7.252 -10.942  17.861  0.00  0.00    -0.294 N 
ATOM      8  N   UNL     1      -9.405 -10.474  18.521  0.00  0.00    -0.297 N 
ATOM     18  C   UNL     1      -8.292 -10.016  17.821  0.00  0.00    +0.300 C 
ATOM     36  H   UNL     1      -7.377 -11.778  18.425  0.00  0.00    +0.151 HD
ATOM     38  H   UNL     1      -9.329 -11.350  19.029  0.00  0.00    +0.150 HD
BRANCH   8  23
ATOM     23  C   UNL     1     -10.625  -9.711  18.639  0.00  0.00    +0.068 C 
ATOM     28  C   UNL     1     -11.499  -9.905  17.405  0.00  0.00    +0.027 C 
ATOM     29  C   UNL     1     -11.371 -10.097  19.909  0.00  0.00    +0.027 C 
ENDBRANCH   8  23
ENDBRANCH  11   6
BRANCH  16  20
ATOM     20  C   UNL     1      -5.572 -14.217  14.534  0.00  0.00    +0.066 C 
ATOM     24  C   UNL     1      -6.807 -14.615  14.188  0.00  0.00    -0.071 C 
ATOM     30  C   UNL     1      -7.341 -14.752  12.790  0.00  0.00    +0.039 C 
ATOM     31  C   UNL     1      -7.804 -14.974  15.261  0.00  0.00    +0.039 C 
ENDBRANCH  16  20
ENDBRANCH  15  12
BRANCH   7  17
ATOM     17  C   UNL     1      -2.467 -10.927  14.394  0.00  0.00    +0.163 C 
BRANCH  17  22
ATOM      4  O   UNL     1      -0.755  -9.323  15.023  0.00  0.00    -0.274 OA
ATOM     10  N   UNL     1      -1.356 -10.939  16.540  0.00  0.00    -0.328 N 
ATOM     22  C   UNL     1      -1.427 -10.308  15.316  0.00  0.00    +0.231 C 
ATOM     40  H   UNL     1      -1.934 -11.738  16.777  0.00  0.00    +0.145 HD
ATOM     41  H   UNL     1      -0.711 -10.616  17.255  0.00  0.00    +0.145 HD
ENDBRANCH  17  22
BRANCH  17  19
ATOM     19  C   UNL     1      -1.849 -12.071  13.581  0.00  0.00    +0.069 C 
BRANCH  19  21
ATOM      9  N   UNL     1      -3.622 -13.438  10.665  0.00  0.00    -0.360 N 
ATOM     21  C   UNL     1      -2.591 -12.356  12.306  0.00  0.00    -0.020 A 
ATOM     25  C   UNL     1      -3.026 -11.399  11.347  0.00  0.00    +0.003 A 
ATOM     26  C   UNL     1      -2.973 -13.600  11.859  0.00  0.00    +0.087 A 
ATOM     27  C   UNL     1      -3.669 -12.105  10.327  0.00  0.00    +0.047 A 
ATOM     32  C   UNL     1      -2.933  -9.996  11.247  0.00  0.00    +0.010 A 
ATOM     33  C   UNL     1      -4.227 -11.475   9.208  0.00  0.00    +0.026 A 
ATOM     34  C   UNL     1      -3.486  -9.353  10.134  0.00  0.00    +0.001 A 
ATOM     35  C   UNL     1      -4.123 -10.082   9.132  0.00  0.00    +0.002 A 
ATOM     39  H   UNL     1      -4.011 -14.188  10.110  0.00  0.00    +0.165 HD
ENDBRANCH  19  21
ENDBRANCH  17  19
ENDBRANCH   7  17
TORSDOF 8
ENDMDL
MODEL 4
REMARK VINA RESULT:      -6.6     24.123     28.010
REMARK  Name = 11865858
REMARK  12 active torsions:
REMARK  status: ('A' for Active; 'I' for Inactive)
REMARK    1  A    between atoms: N_6  and  C_11
REMARK    2  A    between atoms: N_7  and  C_17
REMARK    3  A    between atoms: N_8  and  C_23
REMARK    4  A    between atoms: C_12  and  C_15
REMARK    5  A    between atoms: C_16  and  C_20
REMARK    6  A    between atoms: C_17  and  C_19
REMARK    7  A    between atoms: C_17  and  C_22
REMARK    8  A    between atoms: C_19  and  C_21
REMARK    9  A    between atoms: C_23  and  C_28
REMARK   10  A    between atoms: C_23  and  C_29
REMARK   11  A    between atoms: C_24  and  C_30
REMARK   12  A    between atoms: C_24  and  C_31
REMARK                            x       y       z     vdW  Elec       q    Type
REMARK                         _______ _______ _______ _____ _____    ______ ____
ROOT
ATOM      1  O   UNL     1      13.258   6.260   2.902  0.00  0.00    -0.274 OA
ATOM      7  N   UNL     1      11.323   6.858   1.755  0.00  0.00    -0.302 N 
ATOM     15  C   UNL     1      12.552   6.237   1.898  0.00  0.00    +0.236 C 
ATOM     37  H   UNL     1      10.877   6.854   0.842  0.00  0.00    +0.150 HD
ENDROOT
BRANCH  15  12
ATOM      2  O   UNL     1      16.559   6.084   0.221  0.00  0.00    -0.271 OA
ATOM      5  N   UNL     1      14.411   5.358   0.681  0.00  0.00    -0.285 N 
ATOM     11  C   UNL     1      12.437   4.035   0.740  0.00  0.00    +0.105 C 
ATOM     12  C   UNL     1      12.950   5.476   0.667  0.00  0.00    +0.182 C 
ATOM     13  C   UNL     1      13.555   3.299   1.481  0.00  0.00    +0.043 C 
ATOM     14  C   UNL     1      14.820   3.996   1.005  0.00  0.00    +0.111 C 
ATOM     16  C   UNL     1      15.351   6.303   0.307  0.00  0.00    +0.240 C 
BRANCH  11   6
ATOM      3  O   UNL     1      10.116   4.346  -0.944  0.00  0.00    -0.253 OA
ATOM      6  N   UNL     1      12.240   3.483  -0.579  0.00  0.00    -0.294 N 
ATOM      8  N   UNL     1      11.155   3.042  -2.558  0.00  0.00    -0.297 N 
ATOM     18  C   UNL     1      11.082   3.684  -1.325  0.00  0.00    +0.300 C 
ATOM     36  H   UNL     1      12.953   2.865  -0.958  0.00  0.00    +0.151 HD
ATOM     38  H   UNL     1      11.965   2.459  -2.752  0.00  0.00    +0.150 HD
BRANCH   8  23
ATOM     23  C   UNL     1      10.089   3.088  -3.530  0.00  0.00    +0.068 C 
ATOM     28  C   UNL     1      10.627   3.490  -4.898  0.00  0.00    +0.027 C 
ATOM     29  C   UNL     1       9.372   1.745  -3.592  0.00  0.00    +0.027 C 
ENDBRANCH   8  23
ENDBRANCH  11   6
BRANCH  16  20
ATOM     20  C   UNL     1      14.858   7.659  -0.003  0.00  0.00    +0.066 C 
ATOM     24  C   UNL     1      15.019   8.734   0.786  0.00  0.00    -0.071 C 
ATOM     30  C   UNL     1      14.532  10.128   0.506  0.00  0.00    +0.039 C 
ATOM     31  C   UNL     1      15.752   8.595   2.096  0.00  0.00    +0.039 C 
ENDBRANCH  16  20
ENDBRANCH  15  12
BRANCH   7  17
ATOM     17  C   UNL     1      10.704   7.636   2.803  0.00  0.00    +0.163 C 
BRANCH  17  22
ATOM      4  O   UNL     1      11.254   9.721   1.685  0.00  0.00    -0.274 OA
ATOM     10  N   UNL     1       9.079   9.361   2.328  0.00  0.00    -0.328 N 
ATOM     22  C   UNL     1      10.409   9.012   2.226  0.00  0.00    +0.231 C 
ATOM     40  H   UNL     1       8.387   8.756   2.757  0.00  0.00    +0.145 HD
ATOM     41  H   UNL     1       8.745  10.249   1.968  0.00  0.00    +0.145 HD
ENDBRANCH  17  22
BRANCH  17  19
ATOM     19  C   UNL     1       9.416   6.986   3.324  0.00  0.00    +0.069 C 
BRANCH  19  21
ATOM      9  N   UNL     1      10.212   4.217   5.606  0.00  0.00    -0.360 N 
ATOM     21  C   UNL     1       9.654   6.035   4.462  0.00  0.00    -0.020 A 
ATOM     25  C   UNL     1       9.423   6.290   5.843  0.00  0.00    +0.003 A 
ATOM     26  C   UNL     1      10.140   4.752   4.348  0.00  0.00    +0.087 A 
ATOM     27  C   UNL     1       9.781   5.133   6.538  0.00  0.00    +0.047 A 
ATOM     32  C   UNL     1       8.941   7.397   6.569  0.00  0.00    +0.010 A 
ATOM     33  C   UNL     1       9.680   5.027   7.931  0.00  0.00    +0.026 A 
ATOM     34  C   UNL     1       8.836   7.306   7.962  0.00  0.00    +0.001 A 
ATOM     35  C   UNL     1       9.200   6.139   8.630  0.00  0.00    +0.002 A 
ATOM     39  H   UNL     1      10.535   3.283   5.821  0.00  0.00    +0.165 HD
ENDBRANCH  19  21
ENDBRANCH  17  19
ENDBRANCH   7  17
TORSDOF 8
ENDMDL
MODEL 5
REMARK VINA RESULT:      -6.5      1.570      1.976
REMARK  Name = 11865858
REMARK  12 active torsions:
REMARK  status: ('A' for Active; 'I' for Inactive)
REMARK    1  A    between atoms: N_6  and  C_11
REMARK    2  A    between atoms: N_7  and  C_17
REMARK    3  A    between atoms: N_8  and  C_23
REMARK    4  A    between atoms: C_12  and  C_15
REMARK    5  A    between atoms: C_16  and  C_20
REMARK    6  A    between atoms: C_17  and  C_19
REMARK    7  A    between atoms: C_17  and  C_22
REMARK    8  A    between atoms: C_19  and  C_21
REMARK    9  A    between atoms: C_23  and  C_28
REMARK   10  A    between atoms: C_23  and  C_29
REMARK   11  A    between atoms: C_24  and  C_30
REMARK   12  A    between atoms: C_24  and  C_31
REMARK                            x       y       z     vdW  Elec       q    Type
REMARK                         _______ _______ _______ _____ _____    ______ ____
ROOT
ATOM      1  O   UNL     1      -6.017 -12.054  11.763  0.00  0.00    -0.274 OA
ATOM      7  N   UNL     1      -4.712 -11.170  13.476  0.00  0.00    -0.302 N 
ATOM     15  C   UNL     1      -5.754 -11.161  12.566  0.00  0.00    +0.236 C 
ATOM     37  H   UNL     1      -4.531 -10.332  14.019  0.00  0.00    +0.150 HD
ENDROOT
BRANCH  15  12
ATOM      2  O   UNL     1      -6.671  -8.469   9.278  0.00  0.00    -0.271 OA
ATOM      5  N   UNL     1      -6.977  -9.540  11.307  0.00  0.00    -0.285 N 
ATOM     11  C   UNL     1      -7.906 -10.215  13.388  0.00  0.00    +0.105 C 
ATOM     12  C   UNL     1      -6.587  -9.917  12.668  0.00  0.00    +0.182 C 
ATOM     13  C   UNL     1      -8.832 -10.667  12.257  0.00  0.00    +0.043 C 
ATOM     14  C   UNL     1      -8.388  -9.823  11.072  0.00  0.00    +0.111 C 
ATOM     16  C   UNL     1      -6.229  -8.868  10.356  0.00  0.00    +0.240 C 
BRANCH  11   6
ATOM      3  O   UNL     1     -10.183 -10.064  15.153  0.00  0.00    -0.253 OA
ATOM      6  N   UNL     1      -8.423  -9.036  14.040  0.00  0.00    -0.294 N 
ATOM      8  N   UNL     1      -9.816  -7.783  15.374  0.00  0.00    -0.297 N 
ATOM     18  C   UNL     1      -9.534  -9.054  14.880  0.00  0.00    +0.300 C 
ATOM     36  H   UNL     1      -7.998  -8.138  13.827  0.00  0.00    +0.151 HD
ATOM     38  H   UNL     1      -9.266  -7.000  15.033  0.00  0.00    +0.150 HD
BRANCH   8  23
ATOM     23  C   UNL     1     -10.917  -7.517  16.269  0.00  0.00    +0.068 C 
ATOM     28  C   UNL     1     -10.568  -7.949  17.689  0.00  0.00    +0.027 C 
ATOM     29  C   UNL     1     -11.296  -6.043  16.218  0.00  0.00    +0.027 C 
ENDBRANCH   8  23
ENDBRANCH  11   6
BRANCH  16  20
ATOM     20  C   UNL     1      -4.807  -8.622  10.667  0.00  0.00    +0.066 C 
ATOM     24  C   UNL     1      -3.783  -9.363  10.214  0.00  0.00    -0.071 C 
ATOM     30  C   UNL     1      -2.325  -9.145  10.509  0.00  0.00    +0.039 C 
ATOM     31  C   UNL     1      -4.055 -10.545   9.319  0.00  0.00    +0.039 C 
ENDBRANCH  16  20
ENDBRANCH  15  12
BRANCH   7  17
ATOM     17  C   UNL     1      -3.776 -12.264  13.597  0.00  0.00    +0.163 C 
BRANCH  17  22
ATOM      4  O   UNL     1      -2.050 -10.556  13.688  0.00  0.00    -0.274 OA
ATOM     10  N   UNL     1      -1.522 -12.606  12.794  0.00  0.00    -0.328 N 
ATOM     22  C   UNL     1      -2.385 -11.693  13.363  0.00  0.00    +0.231 C 
ATOM     40  H   UNL     1      -1.806 -13.549  12.552  0.00  0.00    +0.145 HD
ATOM     41  H   UNL     1      -0.558 -12.357  12.598  0.00  0.00    +0.145 HD
ENDBRANCH  17  22
BRANCH  17  19
ATOM     19  C   UNL     1      -3.852 -12.946  14.968  0.00  0.00    +0.069 C 
BRANCH  19  21
ATOM      9  N   UNL     1      -4.572 -10.538  17.650  0.00  0.00    -0.360 N 
ATOM     21  C   UNL     1      -4.416 -12.055  16.038  0.00  0.00    -0.020 A 
ATOM     25  C   UNL     1      -5.774 -11.994  16.462  0.00  0.00    +0.003 A 
ATOM     26  C   UNL     1      -3.702 -11.148  16.787  0.00  0.00    +0.087 A 
ATOM     27  C   UNL     1      -5.843 -11.034  17.474  0.00  0.00    +0.047 A 
ATOM     32  C   UNL     1      -6.952 -12.666  16.081  0.00  0.00    +0.010 A 
ATOM     33  C   UNL     1      -7.039 -10.711  18.127  0.00  0.00    +0.026 A 
ATOM     34  C   UNL     1      -8.155 -12.352  16.725  0.00  0.00    +0.001 A 
ATOM     35  C   UNL     1      -8.195 -11.389  17.731  0.00  0.00    +0.002 A 
ATOM     39  H   UNL     1      -4.319  -9.825  18.321  0.00  0.00    +0.165 HD
ENDBRANCH  19  21
ENDBRANCH  17  19
ENDBRANCH   7  17
TORSDOF 8
ENDMDL
MODEL 6
REMARK VINA RESULT:      -6.3      2.066      5.991
REMARK  Name = 11865858
REMARK  12 active torsions:
REMARK  status: ('A' for Active; 'I' for Inactive)
REMARK    1  A    between atoms: N_6  and  C_11
REMARK    2  A    between atoms: N_7  and  C_17
REMARK    3  A    between atoms: N_8  and  C_23
REMARK    4  A    between atoms: C_12  and  C_15
REMARK    5  A    between atoms: C_16  and  C_20
REMARK    6  A    between atoms: C_17  and  C_19
REMARK    7  A    between atoms: C_17  and  C_22
REMARK    8  A    between atoms: C_19  and  C_21
REMARK    9  A    between atoms: C_23  and  C_28
REMARK   10  A    between atoms: C_23  and  C_29
REMARK   11  A    between atoms: C_24  and  C_30
REMARK   12  A    between atoms: C_24  and  C_31
REMARK                            x       y       z     vdW  Elec       q    Type
REMARK                         _______ _______ _______ _____ _____    ______ ____
ROOT
ATOM      1  O   UNL     1      -7.066 -13.616  14.523  0.00  0.00    -0.274 OA
ATOM      7  N   UNL     1      -6.027 -12.711  12.647  0.00  0.00    -0.302 N 
ATOM     15  C   UNL     1      -6.611 -12.660  13.900  0.00  0.00    +0.236 C 
ATOM     37  H   UNL     1      -5.779 -11.840  12.187  0.00  0.00    +0.150 HD
ENDROOT
BRANCH  15  12
ATOM      2  O   UNL     1      -3.079 -10.375  14.996  0.00  0.00    -0.271 OA
ATOM      5  N   UNL     1      -5.262 -10.732  14.316  0.00  0.00    -0.285 N 
ATOM     11  C   UNL     1      -7.503 -10.351  13.623  0.00  0.00    +0.105 C 
ATOM     12  C   UNL     1      -6.616 -11.270  14.468  0.00  0.00    +0.182 C 
ATOM     13  C   UNL     1      -6.551  -9.838  12.540  0.00  0.00    +0.043 C 
ATOM     14  C   UNL     1      -5.216  -9.725  13.262  0.00  0.00    +0.111 C 
ATOM     16  C   UNL     1      -4.151 -10.968  15.108  0.00  0.00    +0.240 C 
BRANCH  11   6
ATOM      3  O   UNL     1     -10.223 -10.003  14.518  0.00  0.00    -0.253 OA
ATOM      6  N   UNL     1      -8.026  -9.260  14.410  0.00  0.00    -0.294 N 
ATOM      8  N   UNL     1      -9.593  -8.023  15.550  0.00  0.00    -0.297 N 
ATOM     18  C   UNL     1      -9.360  -9.172  14.800  0.00  0.00    +0.300 C 
ATOM     36  H   UNL     1      -7.408  -8.487  14.639  0.00  0.00    +0.151 HD
ATOM     38  H   UNL     1      -8.832  -7.360  15.668  0.00  0.00    +0.150 HD
BRANCH   8  23
ATOM     23  C   UNL     1     -10.893  -7.685  16.082  0.00  0.00    +0.068 C 
ATOM     28  C   UNL     1     -11.081  -8.297  17.464  0.00  0.00    +0.027 C 
ATOM     29  C   UNL     1     -11.072  -6.172  16.118  0.00  0.00    +0.027 C 
ENDBRANCH   8  23
ENDBRANCH  11   6
BRANCH  16  20
ATOM     20  C   UNL     1      -4.276 -12.004  16.152  0.00  0.00    +0.066 C 
ATOM     24  C   UNL     1      -4.693 -11.781  17.409  0.00  0.00    -0.071 C 
ATOM     30  C   UNL     1      -4.833 -12.808  18.498  0.00  0.00    +0.039 C 
ATOM     31  C   UNL     1      -5.073 -10.385  17.833  0.00  0.00    +0.039 C 
ENDBRANCH  16  20
ENDBRANCH  15  12
BRANCH   7  17
ATOM     17  C   UNL     1      -5.878 -13.935  11.894  0.00  0.00    +0.163 C 
BRANCH  17  22
ATOM      4  O   UNL     1      -7.738 -15.149  10.910  0.00  0.00    -0.274 OA
ATOM     10  N   UNL     1      -7.533 -12.904  10.466  0.00  0.00    -0.328 N 
ATOM     22  C   UNL     1      -7.127 -14.091  11.040  0.00  0.00    +0.231 C 
ATOM     40  H   UNL     1      -7.031 -12.033  10.600  0.00  0.00    +0.145 HD
ATOM     41  H   UNL     1      -8.363 -12.866   9.883  0.00  0.00    +0.145 HD
ENDBRANCH  17  22
BRANCH  17  19
ATOM     19  C   UNL     1      -4.623 -13.926  11.012  0.00  0.00    +0.069 C 
BRANCH  19  21
ATOM      9  N   UNL     1      -1.829 -12.231  12.695  0.00  0.00    -0.360 N 
ATOM     21  C   UNL     1      -3.547 -13.014  11.527  0.00  0.00    -0.020 A 
ATOM     25  C   UNL     1      -3.281 -11.685  11.091  0.00  0.00    +0.003 A 
ATOM     26  C   UNL     1      -2.638 -13.321  12.514  0.00  0.00    +0.087 A 
ATOM     27  C   UNL     1      -2.199 -11.217  11.841  0.00  0.00    +0.047 A 
ATOM     32  C   UNL     1      -3.860 -10.833  10.129  0.00  0.00    +0.010 A 
ATOM     33  C   UNL     1      -1.664  -9.934  11.675  0.00  0.00    +0.026 A 
ATOM     34  C   UNL     1      -3.335  -9.548   9.953  0.00  0.00    +0.001 A 
ATOM     35  C   UNL     1      -2.254  -9.107  10.714  0.00  0.00    +0.002 A 
ATOM     39  H   UNL     1      -1.070 -12.177  13.360  0.00  0.00    +0.165 HD
ENDBRANCH  19  21
ENDBRANCH  17  19
ENDBRANCH   7  17
TORSDOF 8
ENDMDL
MODEL 7
REMARK VINA RESULT:      -6.2     20.345     24.187
REMARK  Name = 11865858
REMARK  12 active torsions:
REMARK  status: ('A' for Active; 'I' for Inactive)
REMARK    1  A    between atoms: N_6  and  C_11
REMARK    2  A    between atoms: N_7  and  C_17
REMARK    3  A    between atoms: N_8  and  C_23
REMARK    4  A    between atoms: C_12  and  C_15
REMARK    5  A    between atoms: C_16  and  C_20
REMARK    6  A    between atoms: C_17  and  C_19
REMARK    7  A    between atoms: C_17  and  C_22
REMARK    8  A    between atoms: C_19  and  C_21
REMARK    9  A    between atoms: C_23  and  C_28
REMARK   10  A    between atoms: C_23  and  C_29
REMARK   11  A    between atoms: C_24  and  C_30
REMARK   12  A    between atoms: C_24  and  C_31
REMARK                            x       y       z     vdW  Elec       q    Type
REMARK                         _______ _______ _______ _____ _____    ______ ____
ROOT
ATOM      1  O   UNL     1     -13.486  12.630  19.853  0.00  0.00    -0.274 OA
ATOM      7  N   UNL     1     -12.011  11.342  21.112  0.00  0.00    -0.302 N 
ATOM     15  C   UNL     1     -12.473  11.942  19.954  0.00  0.00    +0.236 C 
ATOM     37  H   UNL     1     -11.217  10.712  21.053  0.00  0.00    +0.150 HD
ENDROOT
BRANCH  15  12
ATOM      2  O   UNL     1     -13.523   9.626  16.428  0.00  0.00    -0.271 OA
ATOM      5  N   UNL     1     -12.414  11.230  17.673  0.00  0.00    -0.285 N 
ATOM     11  C   UNL     1     -10.946  12.995  18.291  0.00  0.00    +0.105 C 
ATOM     12  C   UNL     1     -11.570  11.685  18.782  0.00  0.00    +0.182 C 
ATOM     13  C   UNL     1     -11.980  13.529  17.298  0.00  0.00    +0.043 C 
ATOM     14  C   UNL     1     -12.547  12.270  16.659  0.00  0.00    +0.111 C 
ATOM     16  C   UNL     1     -12.932   9.966  17.453  0.00  0.00    +0.240 C 
BRANCH  11   6
ATOM      3  O   UNL     1      -8.981  14.971  17.546  0.00  0.00    -0.253 OA
ATOM      6  N   UNL     1      -9.679  12.758  17.642  0.00  0.00    -0.294 N 
ATOM      8  N   UNL     1      -7.645  13.273  16.700  0.00  0.00    -0.297 N 
ATOM     18  C   UNL     1      -8.787  13.777  17.317  0.00  0.00    +0.300 C 
ATOM     36  H   UNL     1      -9.453  11.812  17.350  0.00  0.00    +0.151 HD
ATOM     38  H   UNL     1      -7.609  12.279  16.489  0.00  0.00    +0.150 HD
BRANCH   8  23
ATOM     23  C   UNL     1      -6.556  14.113  16.259  0.00  0.00    +0.068 C 
ATOM     28  C   UNL     1      -5.697  14.540  17.443  0.00  0.00    +0.027 C 
ATOM     29  C   UNL     1      -5.725  13.392  15.206  0.00  0.00    +0.027 C 
ENDBRANCH   8  23
ENDBRANCH  11   6
BRANCH  16  20
ATOM     20  C   UNL     1     -12.758   8.969  18.528  0.00  0.00    +0.066 C 
ATOM     24  C   UNL     1     -11.743   8.093  18.605  0.00  0.00    -0.071 C 
ATOM     30  C   UNL     1     -11.532   7.065  19.682  0.00  0.00    +0.039 C 
ATOM     31  C   UNL     1     -10.677   8.088  17.539  0.00  0.00    +0.039 C 
ENDBRANCH  16  20
ENDBRANCH  15  12
BRANCH   7  17
ATOM     17  C   UNL     1     -12.686  11.455  22.384  0.00  0.00    +0.163 C 
BRANCH  17  22
ATOM      4  O   UNL     1     -13.920   9.363  22.312  0.00  0.00    -0.274 OA
ATOM     10  N   UNL     1     -15.098  11.335  22.282  0.00  0.00    -0.328 N 
ATOM     22  C   UNL     1     -13.936  10.591  22.306  0.00  0.00    +0.231 C 
ATOM     40  H   UNL     1     -15.098  12.349  22.300  0.00  0.00    +0.145 HD
ATOM     41  H   UNL     1     -16.005  10.880  22.245  0.00  0.00    +0.145 HD
ENDBRANCH  17  22
BRANCH  17  19
ATOM     19  C   UNL     1     -11.800  11.011  23.554  0.00  0.00    +0.069 C 
BRANCH  19  21
ATOM      9  N   UNL     1     -12.764  13.326  26.242  0.00  0.00    -0.360 N 
ATOM     21  C   UNL     1     -12.087  11.756  24.827  0.00  0.00    -0.020 A 
ATOM     25  C   UNL     1     -11.796  11.318  26.149  0.00  0.00    +0.003 A 
ATOM     26  C   UNL     1     -12.682  12.994  24.916  0.00  0.00    +0.087 A 
ATOM     27  C   UNL     1     -12.232  12.322  27.018  0.00  0.00    +0.047 A 
ATOM     32  C   UNL     1     -11.202  10.161  26.692  0.00  0.00    +0.010 A 
ATOM     33  C   UNL     1     -12.102  12.225  28.408  0.00  0.00    +0.026 A 
ATOM     34  C   UNL     1     -11.067  10.051  28.081  0.00  0.00    +0.001 A 
ATOM     35  C   UNL     1     -11.511  11.068  28.924  0.00  0.00    +0.002 A 
ATOM     39  H   UNL     1     -13.159  14.184  26.601  0.00  0.00    +0.165 HD
ENDBRANCH  19  21
ENDBRANCH  17  19
ENDBRANCH   7  17
TORSDOF 8
ENDMDL
MODEL 8
REMARK VINA RESULT:      -6.2      2.717      4.403
REMARK  Name = 11865858
REMARK  12 active torsions:
REMARK  status: ('A' for Active; 'I' for Inactive)
REMARK    1  A    between atoms: N_6  and  C_11
REMARK    2  A    between atoms: N_7  and  C_17
REMARK    3  A    between atoms: N_8  and  C_23
REMARK    4  A    between atoms: C_12  and  C_15
REMARK    5  A    between atoms: C_16  and  C_20
REMARK    6  A    between atoms: C_17  and  C_19
REMARK    7  A    between atoms: C_17  and  C_22
REMARK    8  A    between atoms: C_19  and  C_21
REMARK    9  A    between atoms: C_23  and  C_28
REMARK   10  A    between atoms: C_23  and  C_29
REMARK   11  A    between atoms: C_24  and  C_30
REMARK   12  A    between atoms: C_24  and  C_31
REMARK                            x       y       z     vdW  Elec       q    Type
REMARK                         _______ _______ _______ _____ _____    ______ ____
ROOT
ATOM      1  O   UNL     1      -6.246 -12.323  13.342  0.00  0.00    -0.274 OA
ATOM      7  N   UNL     1      -5.620 -10.231  14.149  0.00  0.00    -0.302 N 
ATOM     15  C   UNL     1      -5.949 -11.144  13.162  0.00  0.00    +0.236 C 
ATOM     37  H   UNL     1      -5.293  -9.310  13.872  0.00  0.00    +0.150 HD
ENDROOT
BRANCH  15  12
ATOM      2  O   UNL     1      -3.903 -12.782   9.695  0.00  0.00    -0.271 OA
ATOM      5  N   UNL     1      -5.495 -11.568  10.855  0.00  0.00    -0.285 N 
ATOM     11  C   UNL     1      -7.357 -10.176  11.350  0.00  0.00    +0.105 C 
ATOM     12  C   UNL     1      -5.934 -10.531  11.792  0.00  0.00    +0.182 C 
ATOM     13  C   UNL     1      -7.857 -11.467  10.699  0.00  0.00    +0.043 C 
ATOM     14  C   UNL     1      -6.611 -12.045  10.045  0.00  0.00    +0.111 C 
ATOM     16  C   UNL     1      -4.205 -11.997  10.593  0.00  0.00    +0.240 C 
BRANCH  11   6
ATOM      3  O   UNL     1      -9.630  -9.084   9.950  0.00  0.00    -0.253 OA
ATOM      6  N   UNL     1      -7.353  -9.087  10.403  0.00  0.00    -0.294 N 
ATOM      8  N   UNL     1      -8.217  -7.566   8.910  0.00  0.00    -0.297 N 
ATOM     18  C   UNL     1      -8.504  -8.622   9.771  0.00  0.00    +0.300 C 
ATOM     36  H   UNL     1      -6.462  -8.680  10.136  0.00  0.00    +0.151 HD
ATOM     38  H   UNL     1      -7.245  -7.304   8.775  0.00  0.00    +0.150 HD
BRANCH   8  23
ATOM     23  C   UNL     1      -9.228  -6.896   8.127  0.00  0.00    +0.068 C 
ATOM     28  C   UNL     1      -9.428  -5.468   8.620  0.00  0.00    +0.027 C 
ATOM     29  C   UNL     1      -8.859  -6.924   6.650  0.00  0.00    +0.027 C 
ENDBRANCH   8  23
ENDBRANCH  11   6
BRANCH  16  20
ATOM     20  C   UNL     1      -3.131 -11.471  11.458  0.00  0.00    +0.066 C 
ATOM     24  C   UNL     1      -2.529 -10.282  11.296  0.00  0.00    -0.071 C 
ATOM     30  C   UNL     1      -1.433  -9.713  12.155  0.00  0.00    +0.039 C 
ATOM     31  C   UNL     1      -2.945  -9.382  10.161  0.00  0.00    +0.039 C 
ENDBRANCH  16  20
ENDBRANCH  15  12
BRANCH   7  17
ATOM     17  C   UNL     1      -5.584 -10.564  15.554  0.00  0.00    +0.163 C 
BRANCH  17  22
ATOM      4  O   UNL     1      -3.761 -11.422  16.913  0.00  0.00    -0.274 OA
ATOM     10  N   UNL     1      -3.251 -10.258  14.999  0.00  0.00    -0.328 N 
ATOM     22  C   UNL     1      -4.125 -10.791  15.923  0.00  0.00    +0.231 C 
ATOM     40  H   UNL     1      -3.566  -9.758  14.175  0.00  0.00    +0.145 HD
ATOM     41  H   UNL     1      -2.248 -10.352  15.119  0.00  0.00    +0.145 HD
ENDBRANCH  17  22
BRANCH  17  19
ATOM     19  C   UNL     1      -6.192  -9.461  16.428  0.00  0.00    +0.069 C 
BRANCH  19  21
ATOM      9  N   UNL     1      -8.562 -11.115  18.699  0.00  0.00    -0.360 N 
ATOM     21  C   UNL     1      -7.346  -9.939  17.263  0.00  0.00    -0.020 A 
ATOM     25  C   UNL     1      -8.656  -9.384  17.295  0.00  0.00    +0.003 A 
ATOM     26  C   UNL     1      -7.320 -11.002  18.137  0.00  0.00    +0.087 A 
ATOM     27  C   UNL     1      -9.399 -10.141  18.204  0.00  0.00    +0.047 A 
ATOM     32  C   UNL     1      -9.283  -8.308  16.635  0.00  0.00    +0.010 A 
ATOM     33  C   UNL     1     -10.744  -9.874  18.488  0.00  0.00    +0.026 A 
ATOM     34  C   UNL     1     -10.627  -8.030  16.910  0.00  0.00    +0.001 A 
ATOM     35  C   UNL     1     -11.344  -8.801  17.823  0.00  0.00    +0.002 A 
ATOM     39  H   UNL     1      -8.829 -11.813  19.380  0.00  0.00    +0.165 HD
ENDBRANCH  19  21
ENDBRANCH  17  19
ENDBRANCH   7  17
TORSDOF 8
ENDMDL
MODEL 9
REMARK VINA RESULT:      -6.2      2.466      5.218
REMARK  Name = 11865858
REMARK  12 active torsions:
REMARK  status: ('A' for Active; 'I' for Inactive)
REMARK    1  A    between atoms: N_6  and  C_11
REMARK    2  A    between atoms: N_7  and  C_17
REMARK    3  A    between atoms: N_8  and  C_23
REMARK    4  A    between atoms: C_12  and  C_15
REMARK    5  A    between atoms: C_16  and  C_20
REMARK    6  A    between atoms: C_17  and  C_19
REMARK    7  A    between atoms: C_17  and  C_22
REMARK    8  A    between atoms: C_19  and  C_21
REMARK    9  A    between atoms: C_23  and  C_28
REMARK   10  A    between atoms: C_23  and  C_29
REMARK   11  A    between atoms: C_24  and  C_30
REMARK   12  A    between atoms: C_24  and  C_31
REMARK                            x       y       z     vdW  Elec       q    Type
REMARK                         _______ _______ _______ _____ _____    ______ ____
ROOT
ATOM      1  O   UNL     1      -5.861  -9.523  15.488  0.00  0.00    -0.274 OA
ATOM      7  N   UNL     1      -5.965 -11.128  17.170  0.00  0.00    -0.302 N 
ATOM     15  C   UNL     1      -6.490 -10.326  16.173  0.00  0.00    +0.236 C 
ATOM     37  H   UNL     1      -6.601 -11.680  17.739  0.00  0.00    +0.150 HD
ENDROOT
BRANCH  15  12
ATOM      2  O   UNL     1      -8.486 -14.184  16.336  0.00  0.00    -0.271 OA
ATOM      5  N   UNL     1      -8.270 -11.886  16.500  0.00  0.00    -0.285 N 
ATOM     11  C   UNL     1      -8.771  -9.589  16.849  0.00  0.00    +0.105 C 
ATOM     12  C   UNL     1      -7.961 -10.552  15.977  0.00  0.00    +0.182 C 
ATOM     13  C   UNL     1      -8.897 -10.335  18.179  0.00  0.00    +0.043 C 
ATOM     14  C   UNL     1      -8.997 -11.795  17.761  0.00  0.00    +0.111 C 
ATOM     16  C   UNL     1      -8.078 -13.112  15.888  0.00  0.00    +0.240 C 
BRANCH  11   6
ATOM      3  O   UNL     1      -9.842  -7.032  16.051  0.00  0.00    -0.253 OA
ATOM      6  N   UNL     1     -10.070  -9.331  16.276  0.00  0.00    -0.294 N 
ATOM      8  N   UNL     1     -11.795  -8.095  15.390  0.00  0.00    -0.297 N 
ATOM     18  C   UNL     1     -10.508  -8.058  15.918  0.00  0.00    +0.300 C 
ATOM     36  H   UNL     1     -10.723 -10.105  16.186  0.00  0.00    +0.151 HD
ATOM     38  H   UNL     1     -12.292  -8.982  15.388  0.00  0.00    +0.150 HD
BRANCH   8  23
ATOM     23  C   UNL     1     -12.491  -6.913  14.938  0.00  0.00    +0.068 C 
ATOM     28  C   UNL     1     -12.782  -7.002  13.445  0.00  0.00    +0.027 C 
ATOM     29  C   UNL     1     -13.771  -6.714  15.739  0.00  0.00    +0.027 C 
ENDBRANCH   8  23
ENDBRANCH  11   6
BRANCH  16  20
ATOM     20  C   UNL     1      -7.331 -13.121  14.615  0.00  0.00    +0.066 C 
ATOM     24  C   UNL     1      -7.893 -13.089  13.395  0.00  0.00    -0.071 C 
ATOM     30  C   UNL     1      -7.168 -13.097  12.079  0.00  0.00    +0.039 C 
ATOM     31  C   UNL     1      -9.394 -13.040  13.265  0.00  0.00    +0.039 C 
ENDBRANCH  16  20
ENDBRANCH  15  12
BRANCH   7  17
ATOM     17  C   UNL     1      -4.568 -11.118  17.540  0.00  0.00    +0.163 C 
BRANCH  17  22
ATOM      4  O   UNL     1      -5.433 -11.575  19.765  0.00  0.00    -0.274 OA
ATOM     10  N   UNL     1      -3.238 -12.082  19.313  0.00  0.00    -0.328 N 
ATOM     22  C   UNL     1      -4.484 -11.589  18.985  0.00  0.00    +0.231 C 
ATOM     40  H   UNL     1      -2.470 -12.108  18.652  0.00  0.00    +0.145 HD
ATOM     41  H   UNL     1      -3.051 -12.442  20.243  0.00  0.00    +0.145 HD
ENDBRANCH  17  22
BRANCH  17  19
ATOM     19  C   UNL     1      -3.721 -12.018  16.633  0.00  0.00    +0.069 C 
BRANCH  19  21
ATOM      9  N   UNL     1      -1.388  -9.868  14.777  0.00  0.00    -0.360 N 
ATOM     21  C   UNL     1      -2.896 -11.247  15.642  0.00  0.00    -0.020 A 
ATOM     25  C   UNL     1      -3.009 -11.297  14.224  0.00  0.00    +0.003 A 
ATOM     26  C   UNL     1      -1.891 -10.360  15.951  0.00  0.00    +0.087 A 
ATOM     27  C   UNL     1      -2.051 -10.422  13.706  0.00  0.00    +0.047 A 
ATOM     32  C   UNL     1      -3.838 -12.004  13.329  0.00  0.00    +0.010 A 
ATOM     33  C   UNL     1      -1.880 -10.219  12.332  0.00  0.00    +0.026 A 
ATOM     34  C   UNL     1      -3.676 -11.810  11.953  0.00  0.00    +0.001 A 
ATOM     35  C   UNL     1      -2.712 -10.932  11.463  0.00  0.00    +0.002 A 
ATOM     39  H   UNL     1      -0.637  -9.195  14.704  0.00  0.00    +0.165 HD
ENDBRANCH  19  21
ENDBRANCH  17  19
ENDBRANCH   7  17
TORSDOF 8
ENDMDL
MODEL 10
REMARK VINA RESULT:      -6.1     19.611     21.755
REMARK  Name = 11865858
REMARK  12 active torsions:
REMARK  status: ('A' for Active; 'I' for Inactive)
REMARK    1  A    between atoms: N_6  and  C_11
REMARK    2  A    between atoms: N_7  and  C_17
REMARK    3  A    between atoms: N_8  and  C_23
REMARK    4  A    between atoms: C_12  and  C_15
REMARK    5  A    between atoms: C_16  and  C_20
REMARK    6  A    between atoms: C_17  and  C_19
REMARK    7  A    between atoms: C_17  and  C_22
REMARK    8  A    between atoms: C_19  and  C_21
REMARK    9  A    between atoms: C_23  and  C_28
REMARK   10  A    between atoms: C_23  and  C_29
REMARK   11  A    between atoms: C_24  and  C_30
REMARK   12  A    between atoms: C_24  and  C_31
REMARK                            x       y       z     vdW  Elec       q    Type
REMARK                         _______ _______ _______ _____ _____    ______ ____
ROOT
ATOM      1  O   UNL     1     -14.621   4.720  21.640  0.00  0.00    -0.274 OA
ATOM      7  N   UNL     1     -16.352   6.217  21.213  0.00  0.00    -0.302 N 
ATOM     15  C   UNL     1     -15.503   5.484  22.024  0.00  0.00    +0.236 C 
ATOM     37  H   UNL     1     -17.110   6.738  21.644  0.00  0.00    +0.150 HD
ENDROOT
BRANCH  15  12
ATOM      2  O   UNL     1     -17.620   8.910  23.659  0.00  0.00    -0.271 OA
ATOM      5  N   UNL     1     -16.813   6.743  23.576  0.00  0.00    -0.285 N 
ATOM     11  C   UNL     1     -16.334   4.487  24.150  0.00  0.00    +0.105 C 
ATOM     12  C   UNL     1     -15.752   5.737  23.482  0.00  0.00    +0.182 C 
ATOM     13  C   UNL     1     -17.841   4.638  23.930  0.00  0.00    +0.043 C 
ATOM     14  C   UNL     1     -18.066   6.141  24.015  0.00  0.00    +0.111 C 
ATOM     16  C   UNL     1     -16.707   8.116  23.435  0.00  0.00    +0.240 C 
BRANCH  11   6
ATOM      3  O   UNL     1     -16.524   2.213  25.914  0.00  0.00    -0.253 OA
ATOM      6  N   UNL     1     -16.018   4.451  25.557  0.00  0.00    -0.294 N 
ATOM      8  N   UNL     1     -15.768   3.546  27.657  0.00  0.00    -0.297 N 
ATOM     18  C   UNL     1     -16.139   3.303  26.337  0.00  0.00    +0.300 C 
ATOM     36  H   UNL     1     -15.754   5.317  26.018  0.00  0.00    +0.151 HD
ATOM     38  H   UNL     1     -15.534   4.498  27.925  0.00  0.00    +0.150 HD
BRANCH   8  23
ATOM     23  C   UNL     1     -15.799   2.527  28.679  0.00  0.00    +0.068 C 
ATOM     28  C   UNL     1     -14.663   2.732  29.673  0.00  0.00    +0.027 C 
ATOM     29  C   UNL     1     -17.151   2.522  29.380  0.00  0.00    +0.027 C 
ENDBRANCH   8  23
ENDBRANCH  11   6
BRANCH  16  20
ATOM     20  C   UNL     1     -15.406   8.649  22.984  0.00  0.00    +0.066 C 
ATOM     24  C   UNL     1     -14.656   9.527  23.671  0.00  0.00    -0.071 C 
ATOM     30  C   UNL     1     -13.330  10.092  23.245  0.00  0.00    +0.039 C 
ATOM     31  C   UNL     1     -15.136  10.035  25.007  0.00  0.00    +0.039 C 
ENDBRANCH  16  20
ENDBRANCH  15  12
BRANCH   7  17
ATOM     17  C   UNL     1     -16.303   6.171  19.770  0.00  0.00    +0.163 C 
BRANCH  17  22
ATOM      4  O   UNL     1     -18.556   6.130  18.861  0.00  0.00    -0.274 OA
ATOM     10  N   UNL     1     -17.539   4.133  19.366  0.00  0.00    -0.328 N 
ATOM     22  C   UNL     1     -17.590   5.510  19.299  0.00  0.00    +0.231 C 
ATOM     40  H   UNL     1     -16.726   3.633  19.709  0.00  0.00    +0.145 HD
ATOM     41  H   UNL     1     -18.328   3.569  19.067  0.00  0.00    +0.145 HD
ENDBRANCH  17  22
BRANCH  17  19
ATOM     19  C   UNL     1     -16.157   7.565  19.148  0.00  0.00    +0.069 C 
BRANCH  19  21
ATOM      9  N   UNL     1     -13.303   8.114  16.898  0.00  0.00    -0.360 N 
ATOM     21  C   UNL     1     -14.834   7.771  18.468  0.00  0.00    -0.020 A 
ATOM     25  C   UNL     1     -13.555   7.797  19.092  0.00  0.00    +0.003 A 
ATOM     26  C   UNL     1     -14.646   7.970  17.119  0.00  0.00    +0.087 A 
ATOM     27  C   UNL     1     -12.612   8.013  18.084  0.00  0.00    +0.047 A 
ATOM     32  C   UNL     1     -13.108   7.654  20.421  0.00  0.00    +0.010 A 
ATOM     33  C   UNL     1     -11.238   8.096  18.341  0.00  0.00    +0.026 A 
ATOM     34  C   UNL     1     -11.737   7.735  20.692  0.00  0.00    +0.001 A 
ATOM     35  C   UNL     1     -10.818   7.953  19.667  0.00  0.00    +0.002 A 
ATOM     39  H   UNL     1     -12.878   8.273  15.995  0.00  0.00    +0.165 HD
ENDBRANCH  19  21
ENDBRANCH  17  19
ENDBRANCH   7  17
TORSDOF 8
ENDMDL
