MODEL 1
REMARK VINA RESULT:      -7.7      0.000      0.000
REMARK  Name = 45361394
REMARK  12 active torsions:
REMARK  status: ('A' for Active; 'I' for Inactive)
REMARK    1  A    between atoms: O_2  and  C_11
REMARK    2  A    between atoms: O_5  and  C_31
REMARK    3  A    between atoms: O_5  and  C_35
REMARK    4  A    between atoms: N_6  and  C_15
REMARK    5  A    between atoms: N_7  and  C_25
REMARK    6  A    between atoms: C_8  and  C_18
REMARK    7  A    between atoms: C_10  and  C_20
REMARK    8  A    between atoms: C_14  and  C_19
REMARK    9  A    between atoms: C_19  and  C_21
REMARK   10  A    between atoms: C_19  and  C_22
REMARK   11  A    between atoms: C_23  and  C_24
REMARK   12  A    between atoms: C_25  and  C_28
REMARK                            x       y       z     vdW  Elec       q    Type
REMARK                         _______ _______ _______ _____ _____    ______ ____
ROOT
ATOM      8  C   UNL     1     -16.984   5.861  22.340  0.00  0.00    -0.027 C 
ATOM      9  C   UNL     1     -15.491   5.681  22.774  0.00  0.00    +0.028 C 
ATOM     10  C   UNL     1     -14.529   5.827  21.540  0.00  0.00    +0.012 C 
ATOM     11  C   UNL     1     -15.302   4.390  23.620  0.00  0.00    +0.122 C 
ATOM     12  C   UNL     1     -17.893   5.826  23.592  0.00  0.00    +0.007 C 
ATOM     13  C   UNL     1     -17.152   7.247  21.676  0.00  0.00    +0.009 C 
ATOM     14  C   UNL     1     -16.285   4.310  24.812  0.00  0.00    +0.029 C 
ATOM     15  C   UNL     1     -14.761   7.193  20.836  0.00  0.00    +0.076 C 
ATOM     16  C   UNL     1     -17.739   4.545  24.401  0.00  0.00    +0.007 C 
ATOM     17  C   UNL     1     -16.225   7.456  20.488  0.00  0.00    +0.023 C 
ATOM     18  C   UNL     1     -17.452   4.762  21.353  0.00  0.00    +0.011 C 
ATOM     20  C   UNL     1     -13.040   5.688  21.901  0.00  0.00    +0.010 C 
ENDROOT
BRANCH  15   6
ATOM      4  O   UNL     1     -13.217   9.469  20.013  0.00  0.00    -0.270 OA
ATOM      6  N   UNL     1     -13.973   7.312  19.627  0.00  0.00    -0.308 N 
ATOM     23  C   UNL     1     -13.260   8.458  19.317  0.00  0.00    +0.244 C 
ATOM     36  H   UNL     1     -14.054   6.560  18.950  0.00  0.00    +0.149 HD
BRANCH  23  24
ATOM     24  C   UNL     1     -12.523   8.431  18.027  0.00  0.00    +0.037 A 
ATOM     26  C   UNL     1     -11.139   8.259  18.019  0.00  0.00    +0.016 A 
ATOM     27  C   UNL     1     -13.215   8.581  16.825  0.00  0.00    +0.016 A 
ATOM     29  C   UNL     1     -10.447   8.237  16.808  0.00  0.00    +0.046 A 
ATOM     30  C   UNL     1     -12.523   8.558  15.615  0.00  0.00    +0.046 A 
ATOM     31  C   UNL     1     -11.138   8.387  15.606  0.00  0.00    +0.120 A 
BRANCH  31   5
ATOM      5  O   UNL     1     -10.463   8.365  14.425  0.00  0.00    -0.495 OA
ATOM     35  C   UNL     1     -10.709   7.261  13.556  0.00  0.00    +0.277 C 
ENDBRANCH  31   5
ENDBRANCH  23  24
ENDBRANCH  15   6
BRANCH  11   2
ATOM      2  O   UNL     1     -13.986   4.372  24.176  0.00  0.00    -0.391 OA
ATOM     37  H   UNL     1     -13.798   3.467  24.478  0.00  0.00    +0.210 HD
ENDBRANCH  11   2
BRANCH  14  19
ATOM     19  C   UNL     1     -16.172   2.974  25.555  0.00  0.00    +0.077 C 
ATOM     21  C   UNL     1     -17.117   1.948  24.937  0.00  0.00    +0.017 C 
BRANCH  19  22
ATOM      3  O   UNL     1     -17.606   3.239  27.488  0.00  0.00    -0.276 OA
ATOM      7  N   UNL     1     -15.308   3.280  27.798  0.00  0.00    -0.310 N 
ATOM     22  C   UNL     1     -16.464   3.176  27.038  0.00  0.00    +0.216 C 
ATOM     38  H   UNL     1     -14.402   3.243  27.338  0.00  0.00    +0.149 HD
BRANCH   7  25
ATOM     25  C   UNL     1     -15.329   3.478  29.229  0.00  0.00    +0.146 C 
BRANCH  25  28
ATOM      1  S   UNL     1     -14.824   2.209  31.648  0.00  0.00    -0.100 S 
ATOM     28  C   UNL     1     -15.201   2.183  29.977  0.00  0.00    +0.007 A 
ATOM     32  C   UNL     1     -15.347   0.899  29.500  0.00  0.00    +0.013 A 
ATOM     33  C   UNL     1     -15.149  -0.076  30.520  0.00  0.00    +0.008 A 
ATOM     34  C   UNL     1     -14.858   0.498  31.736  0.00  0.00    +0.045 A 
ENDBRANCH  25  28
ENDBRANCH   7  25
ENDBRANCH  19  22
ENDBRANCH  14  19
TORSDOF 8
ENDMDL
MODEL 2
REMARK VINA RESULT:      -7.2      3.875     11.535
REMARK  Name = 45361394
REMARK  12 active torsions:
REMARK  status: ('A' for Active; 'I' for Inactive)
REMARK    1  A    between atoms: O_2  and  C_11
REMARK    2  A    between atoms: O_5  and  C_31
REMARK    3  A    between atoms: O_5  and  C_35
REMARK    4  A    between atoms: N_6  and  C_15
REMARK    5  A    between atoms: N_7  and  C_25
REMARK    6  A    between atoms: C_8  and  C_18
REMARK    7  A    between atoms: C_10  and  C_20
REMARK    8  A    between atoms: C_14  and  C_19
REMARK    9  A    between atoms: C_19  and  C_21
REMARK   10  A    between atoms: C_19  and  C_22
REMARK   11  A    between atoms: C_23  and  C_24
REMARK   12  A    between atoms: C_25  and  C_28
REMARK                            x       y       z     vdW  Elec       q    Type
REMARK                         _______ _______ _______ _____ _____    ______ ____
ROOT
ATOM      8  C   UNL     1     -15.150   7.590  20.729  0.00  0.00    -0.027 C 
ATOM      9  C   UNL     1     -13.935   6.637  20.987  0.00  0.00    +0.028 C 
ATOM     10  C   UNL     1     -14.101   5.877  22.352  0.00  0.00    +0.012 C 
ATOM     11  C   UNL     1     -12.584   7.384  20.797  0.00  0.00    +0.122 C 
ATOM     12  C   UNL     1     -15.012   8.234  19.329  0.00  0.00    +0.007 C 
ATOM     13  C   UNL     1     -16.453   6.757  20.738  0.00  0.00    +0.009 C 
ATOM     14  C   UNL     1     -12.493   8.114  19.436  0.00  0.00    +0.029 C 
ATOM     15  C   UNL     1     -15.450   5.106  22.378  0.00  0.00    +0.076 C 
ATOM     16  C   UNL     1     -13.707   9.000  19.154  0.00  0.00    +0.007 C 
ATOM     17  C   UNL     1     -16.655   5.977  22.028  0.00  0.00    +0.023 C 
ATOM     18  C   UNL     1     -15.257   8.716  21.788  0.00  0.00    +0.011 C 
ATOM     20  C   UNL     1     -12.952   4.901  22.656  0.00  0.00    +0.010 C 
ENDROOT
BRANCH  15   6
ATOM      4  O   UNL     1     -16.463   2.461  22.850  0.00  0.00    -0.270 OA
ATOM      6  N   UNL     1     -15.688   4.488  23.666  0.00  0.00    -0.308 N 
ATOM     23  C   UNL     1     -16.182   3.200  23.790  0.00  0.00    +0.244 C 
ATOM     36  H   UNL     1     -15.588   5.080  24.484  0.00  0.00    +0.149 HD
BRANCH  23  24
ATOM     24  C   UNL     1     -16.396   2.722  25.179  0.00  0.00    +0.037 A 
ATOM     26  C   UNL     1     -16.861   1.426  25.406  0.00  0.00    +0.016 A 
ATOM     27  C   UNL     1     -16.136   3.568  26.257  0.00  0.00    +0.016 A 
ATOM     29  C   UNL     1     -17.065   0.978  26.711  0.00  0.00    +0.046 A 
ATOM     30  C   UNL     1     -16.339   3.119  27.561  0.00  0.00    +0.046 A 
ATOM     31  C   UNL     1     -16.805   1.824  27.789  0.00  0.00    +0.120 A 
BRANCH  31   5
ATOM      5  O   UNL     1     -17.003   1.385  29.062  0.00  0.00    -0.495 OA
ATOM     35  C   UNL     1     -15.861   0.910  29.772  0.00  0.00    +0.277 C 
ENDBRANCH  31   5
ENDBRANCH  23  24
ENDBRANCH  15   6
BRANCH  11   2
ATOM      2  O   UNL     1     -11.510   6.442  20.826  0.00  0.00    -0.391 OA
ATOM     37  H   UNL     1     -11.342   6.148  19.915  0.00  0.00    +0.210 HD
ENDBRANCH  11   2
BRANCH  14  19
ATOM     19  C   UNL     1     -11.213   8.949  19.322  0.00  0.00    +0.077 C 
ATOM     21  C   UNL     1     -11.334  10.215  20.165  0.00  0.00    +0.017 C 
BRANCH  19  22
ATOM      3  O   UNL     1     -10.722  10.425  17.465  0.00  0.00    -0.276 OA
ATOM      7  N   UNL     1     -10.956   8.155  17.047  0.00  0.00    -0.310 N 
ATOM     22  C   UNL     1     -10.935   9.280  17.859  0.00  0.00    +0.216 C 
ATOM     38  H   UNL     1     -11.168   7.248  17.454  0.00  0.00    +0.149 HD
BRANCH   7  25
ATOM     25  C   UNL     1     -10.724   8.216  15.622  0.00  0.00    +0.146 C 
BRANCH  25  28
ATOM      1  S   UNL     1     -11.906   9.137  13.284  0.00  0.00    -0.100 S 
ATOM     28  C   UNL     1     -11.991   8.464  14.856  0.00  0.00    +0.007 A 
ATOM     32  C   UNL     1     -13.289   8.222  15.245  0.00  0.00    +0.013 A 
ATOM     33  C   UNL     1     -14.227   8.592  14.239  0.00  0.00    +0.008 A 
ATOM     34  C   UNL     1     -13.610   9.104  13.119  0.00  0.00    +0.045 A 
ENDBRANCH  25  28
ENDBRANCH   7  25
ENDBRANCH  19  22
ENDBRANCH  14  19
TORSDOF 8
ENDMDL
MODEL 3
REMARK VINA RESULT:      -7.1      4.371     11.948
REMARK  Name = 45361394
REMARK  12 active torsions:
REMARK  status: ('A' for Active; 'I' for Inactive)
REMARK    1  A    between atoms: O_2  and  C_11
REMARK    2  A    between atoms: O_5  and  C_31
REMARK    3  A    between atoms: O_5  and  C_35
REMARK    4  A    between atoms: N_6  and  C_15
REMARK    5  A    between atoms: N_7  and  C_25
REMARK    6  A    between atoms: C_8  and  C_18
REMARK    7  A    between atoms: C_10  and  C_20
REMARK    8  A    between atoms: C_14  and  C_19
REMARK    9  A    between atoms: C_19  and  C_21
REMARK   10  A    between atoms: C_19  and  C_22
REMARK   11  A    between atoms: C_23  and  C_24
REMARK   12  A    between atoms: C_25  and  C_28
REMARK                            x       y       z     vdW  Elec       q    Type
REMARK                         _______ _______ _______ _____ _____    ______ ____
ROOT
ATOM      8  C   UNL     1     -15.083   7.569  20.749  0.00  0.00    -0.027 C 
ATOM      9  C   UNL     1     -13.878   6.607  21.023  0.00  0.00    +0.028 C 
ATOM     10  C   UNL     1     -14.065   5.853  22.389  0.00  0.00    +0.012 C 
ATOM     11  C   UNL     1     -12.520   7.342  20.845  0.00  0.00    +0.122 C 
ATOM     12  C   UNL     1     -14.925   8.207  19.348  0.00  0.00    +0.007 C 
ATOM     13  C   UNL     1     -16.393   6.747  20.747  0.00  0.00    +0.009 C 
ATOM     14  C   UNL     1     -12.408   8.066  19.482  0.00  0.00    +0.029 C 
ATOM     15  C   UNL     1     -15.420   5.093  22.403  0.00  0.00    +0.076 C 
ATOM     16  C   UNL     1     -13.612   8.961  19.184  0.00  0.00    +0.007 C 
ATOM     17  C   UNL     1     -16.614   5.973  22.038  0.00  0.00    +0.023 C 
ATOM     18  C   UNL     1     -15.191   8.700  21.803  0.00  0.00    +0.011 C 
ATOM     20  C   UNL     1     -12.927   4.868  22.708  0.00  0.00    +0.010 C 
ENDROOT
BRANCH  15   6
ATOM      4  O   UNL     1     -16.446   2.453  22.874  0.00  0.00    -0.270 OA
ATOM      6  N   UNL     1     -15.678   4.482  23.691  0.00  0.00    -0.308 N 
ATOM     23  C   UNL     1     -16.176   3.196  23.814  0.00  0.00    +0.244 C 
ATOM     36  H   UNL     1     -15.587   5.077  24.508  0.00  0.00    +0.149 HD
BRANCH  23  24
ATOM     24  C   UNL     1     -16.410   2.725  25.203  0.00  0.00    +0.037 A 
ATOM     26  C   UNL     1     -16.214   3.594  26.276  0.00  0.00    +0.016 A 
ATOM     27  C   UNL     1     -16.823   1.412  25.435  0.00  0.00    +0.016 A 
ATOM     29  C   UNL     1     -16.431   3.151  27.581  0.00  0.00    +0.046 A 
ATOM     30  C   UNL     1     -17.041   0.970  26.739  0.00  0.00    +0.046 A 
ATOM     31  C   UNL     1     -16.844   1.839  27.813  0.00  0.00    +0.120 A 
BRANCH  31   5
ATOM      5  O   UNL     1     -17.056   1.407  29.086  0.00  0.00    -0.495 OA
ATOM     35  C   UNL     1     -15.942   0.841  29.775  0.00  0.00    +0.277 C 
ENDBRANCH  31   5
ENDBRANCH  23  24
ENDBRANCH  15   6
BRANCH  11   2
ATOM      2  O   UNL     1     -11.454   6.392  20.888  0.00  0.00    -0.391 OA
ATOM     37  H   UNL     1     -10.613   6.880  20.890  0.00  0.00    +0.210 HD
ENDBRANCH  11   2
BRANCH  14  19
ATOM     19  C   UNL     1     -11.120   8.891  19.379  0.00  0.00    +0.077 C 
ATOM     21  C   UNL     1     -11.312  10.252  20.040  0.00  0.00    +0.017 C 
BRANCH  19  22
ATOM      3  O   UNL     1     -10.447   8.070  17.202  0.00  0.00    -0.276 OA
ATOM      7  N   UNL     1     -10.668  10.359  17.505  0.00  0.00    -0.310 N 
ATOM     22  C   UNL     1     -10.710   9.035  17.917  0.00  0.00    +0.216 C 
ATOM     38  H   UNL     1     -10.876  11.097  18.172  0.00  0.00    +0.149 HD
BRANCH   7  25
ATOM     25  C   UNL     1     -10.303  10.748  16.162  0.00  0.00    +0.146 C 
BRANCH  25  28
ATOM      1  S   UNL     1     -10.309  13.187  14.832  0.00  0.00    -0.100 S 
ATOM     28  C   UNL     1      -9.797  12.161  16.104  0.00  0.00    +0.007 A 
ATOM     32  C   UNL     1      -8.931  12.797  16.966  0.00  0.00    +0.013 A 
ATOM     33  C   UNL     1      -8.686  14.145  16.577  0.00  0.00    +0.008 A 
ATOM     34  C   UNL     1      -9.372  14.489  15.434  0.00  0.00    +0.045 A 
ENDBRANCH  25  28
ENDBRANCH   7  25
ENDBRANCH  19  22
ENDBRANCH  14  19
TORSDOF 8
ENDMDL
MODEL 4
REMARK VINA RESULT:      -7.1     18.200     21.773
REMARK  Name = 45361394
REMARK  12 active torsions:
REMARK  status: ('A' for Active; 'I' for Inactive)
REMARK    1  A    between atoms: O_2  and  C_11
REMARK    2  A    between atoms: O_5  and  C_31
REMARK    3  A    between atoms: O_5  and  C_35
REMARK    4  A    between atoms: N_6  and  C_15
REMARK    5  A    between atoms: N_7  and  C_25
REMARK    6  A    between atoms: C_8  and  C_18
REMARK    7  A    between atoms: C_10  and  C_20
REMARK    8  A    between atoms: C_14  and  C_19
REMARK    9  A    between atoms: C_19  and  C_21
REMARK   10  A    between atoms: C_19  and  C_22
REMARK   11  A    between atoms: C_23  and  C_24
REMARK   12  A    between atoms: C_25  and  C_28
REMARK                            x       y       z     vdW  Elec       q    Type
REMARK                         _______ _______ _______ _____ _____    ______ ____
ROOT
ATOM      8  C   UNL     1      -4.621 -11.100  16.915  0.00  0.00    -0.027 C 
ATOM      9  C   UNL     1      -5.437 -10.483  15.732  0.00  0.00    +0.028 C 
ATOM     10  C   UNL     1      -6.981 -10.582  16.007  0.00  0.00    +0.012 C 
ATOM     11  C   UNL     1      -4.964 -11.053  14.364  0.00  0.00    +0.122 C 
ATOM     12  C   UNL     1      -3.108 -10.885  16.667  0.00  0.00    +0.007 C 
ATOM     13  C   UNL     1      -4.992 -10.362  18.222  0.00  0.00    +0.009 C 
ATOM     14  C   UNL     1      -3.435 -10.929  14.164  0.00  0.00    +0.029 C 
ATOM     15  C   UNL     1      -7.331  -9.902  17.360  0.00  0.00    +0.076 C 
ATOM     16  C   UNL     1      -2.634 -11.477  15.346  0.00  0.00    +0.007 C 
ATOM     17  C   UNL     1      -6.482 -10.401  18.528  0.00  0.00    +0.023 C 
ATOM     18  C   UNL     1      -4.885 -12.617  17.094  0.00  0.00    +0.011 C 
ATOM     20  C   UNL     1      -7.846  -9.967  14.892  0.00  0.00    +0.010 C 
ENDROOT
BRANCH  15   6
ATOM      4  O   UNL     1      -9.363  -7.874  17.351  0.00  0.00    -0.270 OA
ATOM      6  N   UNL     1      -8.728 -10.075  17.701  0.00  0.00    -0.308 N 
ATOM     23  C   UNL     1      -9.634  -9.029  17.666  0.00  0.00    +0.244 C 
ATOM     36  H   UNL     1      -8.999 -10.977  18.081  0.00  0.00    +0.149 HD
BRANCH  23  24
ATOM     24  C   UNL     1     -11.024  -9.365  18.070  0.00  0.00    +0.037 A 
ATOM     26  C   UNL     1     -12.088  -9.063  17.220  0.00  0.00    +0.016 A 
ATOM     27  C   UNL     1     -11.265  -9.979  19.299  0.00  0.00    +0.016 A 
ATOM     29  C   UNL     1     -13.393  -9.376  17.600  0.00  0.00    +0.046 A 
ATOM     30  C   UNL     1     -12.569 -10.292  19.678  0.00  0.00    +0.046 A 
ATOM     31  C   UNL     1     -13.634  -9.990  18.829  0.00  0.00    +0.120 A 
BRANCH  31   5
ATOM      5  O   UNL     1     -14.908 -10.295  19.199  0.00  0.00    -0.495 OA
ATOM     35  C   UNL     1     -15.283 -10.001  20.543  0.00  0.00    +0.277 C 
ENDBRANCH  31   5
ENDBRANCH  23  24
ENDBRANCH  15   6
BRANCH  11   2
ATOM      2  O   UNL     1      -5.574 -10.316  13.303  0.00  0.00    -0.391 OA
ATOM     37  H   UNL     1      -6.481 -10.647  13.189  0.00  0.00    +0.210 HD
ENDBRANCH  11   2
BRANCH  14  19
ATOM     19  C   UNL     1      -2.973 -11.612  12.872  0.00  0.00    +0.077 C 
ATOM     21  C   UNL     1      -1.799 -12.542  13.160  0.00  0.00    +0.017 C 
BRANCH  19  22
ATOM      3  O   UNL     1      -1.489 -10.052  11.763  0.00  0.00    -0.276 OA
ATOM      7  N   UNL     1      -3.667 -10.254  10.989  0.00  0.00    -0.310 N 
ATOM     22  C   UNL     1      -2.606 -10.561  11.829  0.00  0.00    +0.216 C 
ATOM     38  H   UNL     1      -4.566 -10.705  11.133  0.00  0.00    +0.149 HD
BRANCH   7  25
ATOM     25  C   UNL     1      -3.563  -9.284   9.923  0.00  0.00    +0.146 C 
BRANCH  25  28
ATOM      1  S   UNL     1      -5.260  -9.982   7.838  0.00  0.00    -0.100 S 
ATOM     28  C   UNL     1      -4.878  -9.064   9.233  0.00  0.00    +0.007 A 
ATOM     32  C   UNL     1      -5.885  -8.186   9.566  0.00  0.00    +0.013 A 
ATOM     33  C   UNL     1      -6.986  -8.268   8.665  0.00  0.00    +0.008 A 
ATOM     34  C   UNL     1      -6.779  -9.205   7.678  0.00  0.00    +0.045 A 
ENDBRANCH  25  28
ENDBRANCH   7  25
ENDBRANCH  19  22
ENDBRANCH  14  19
TORSDOF 8
ENDMDL
MODEL 5
REMARK VINA RESULT:      -6.9     27.043     32.544
REMARK  Name = 45361394
REMARK  12 active torsions:
REMARK  status: ('A' for Active; 'I' for Inactive)
REMARK    1  A    between atoms: O_2  and  C_11
REMARK    2  A    between atoms: O_5  and  C_31
REMARK    3  A    between atoms: O_5  and  C_35
REMARK    4  A    between atoms: N_6  and  C_15
REMARK    5  A    between atoms: N_7  and  C_25
REMARK    6  A    between atoms: C_8  and  C_18
REMARK    7  A    between atoms: C_10  and  C_20
REMARK    8  A    between atoms: C_14  and  C_19
REMARK    9  A    between atoms: C_19  and  C_21
REMARK   10  A    between atoms: C_19  and  C_22
REMARK   11  A    between atoms: C_23  and  C_24
REMARK   12  A    between atoms: C_25  and  C_28
REMARK                            x       y       z     vdW  Elec       q    Type
REMARK                         _______ _______ _______ _____ _____    ______ ____
ROOT
ATOM      8  C   UNL     1       9.497   6.017   6.118  0.00  0.00    -0.027 C 
ATOM      9  C   UNL     1      10.445   7.175   5.661  0.00  0.00    +0.028 C 
ATOM     10  C   UNL     1       9.918   8.564   6.174  0.00  0.00    +0.012 C 
ATOM     11  C   UNL     1      10.740   7.093   4.136  0.00  0.00    +0.122 C 
ATOM     12  C   UNL     1      10.104   4.657   5.696  0.00  0.00    +0.007 C 
ATOM     13  C   UNL     1       9.395   6.028   7.661  0.00  0.00    +0.009 C 
ATOM     14  C   UNL     1      11.248   5.698   3.702  0.00  0.00    +0.029 C 
ATOM     15  C   UNL     1       9.748   8.538   7.718  0.00  0.00    +0.076 C 
ATOM     16  C   UNL     1      10.356   4.559   4.197  0.00  0.00    +0.007 C 
ATOM     17  C   UNL     1       8.914   7.360   8.218  0.00  0.00    +0.023 C 
ATOM     18  C   UNL     1       8.076   6.139   5.512  0.00  0.00    +0.011 C 
ATOM     20  C   UNL     1      10.820   9.747   5.783  0.00  0.00    +0.010 C 
ENDROOT
BRANCH  15   6
ATOM      4  O   UNL     1      11.066  10.596   9.224  0.00  0.00    -0.270 OA
ATOM      6  N   UNL     1       9.154   9.763   8.212  0.00  0.00    -0.308 N 
ATOM     23  C   UNL     1       9.877  10.698   8.933  0.00  0.00    +0.244 C 
ATOM     36  H   UNL     1       8.149   9.860   8.109  0.00  0.00    +0.149 HD
BRANCH  23  24
ATOM     24  C   UNL     1       9.117  11.889   9.391  0.00  0.00    +0.037 A 
ATOM     26  C   UNL     1       8.679  11.969  10.713  0.00  0.00    +0.016 A 
ATOM     27  C   UNL     1       8.837  12.925   8.500  0.00  0.00    +0.016 A 
ATOM     29  C   UNL     1       7.962  13.086  11.143  0.00  0.00    +0.046 A 
ATOM     30  C   UNL     1       8.122  14.041   8.930  0.00  0.00    +0.046 A 
ATOM     31  C   UNL     1       7.682  14.122  10.252  0.00  0.00    +0.120 A 
BRANCH  31   5
ATOM      5  O   UNL     1       6.984  15.212  10.672  0.00  0.00    -0.495 OA
ATOM     35  C   UNL     1       5.561  15.131  10.619  0.00  0.00    +0.277 C 
ENDBRANCH  31   5
ENDBRANCH  23  24
ENDBRANCH  15   6
BRANCH  11   2
ATOM      2  O   UNL     1      11.769   8.025   3.798  0.00  0.00    -0.391 OA
ATOM     37  H   UNL     1      12.094   7.806   2.908  0.00  0.00    +0.210 HD
ENDBRANCH  11   2
BRANCH  14  19
ATOM     19  C   UNL     1      11.407   5.599   2.180  0.00  0.00    +0.077 C 
ATOM     21  C   UNL     1      10.527   4.481   1.632  0.00  0.00    +0.017 C 
BRANCH  19  22
ATOM      3  O   UNL     1      13.720   6.265   1.909  0.00  0.00    -0.276 OA
ATOM      7  N   UNL     1      13.127   4.081   1.399  0.00  0.00    -0.310 N 
ATOM     22  C   UNL     1      12.874   5.377   1.824  0.00  0.00    +0.216 C 
ATOM     38  H   UNL     1      12.361   3.417   1.334  0.00  0.00    +0.149 HD
BRANCH   7  25
ATOM     25  C   UNL     1      14.443   3.631   1.004  0.00  0.00    +0.146 C 
BRANCH  25  28
ATOM      1  S   UNL     1      16.383   4.510  -0.779  0.00  0.00    -0.100 S 
ATOM     28  C   UNL     1      14.779   4.043  -0.400  0.00  0.00    +0.007 A 
ATOM     32  C   UNL     1      13.948   4.109  -1.496  0.00  0.00    +0.013 A 
ATOM     33  C   UNL     1      14.638   4.548  -2.664  0.00  0.00    +0.008 A 
ATOM     34  C   UNL     1      15.968   4.801  -2.415  0.00  0.00    +0.045 A 
ENDBRANCH  25  28
ENDBRANCH   7  25
ENDBRANCH  19  22
ENDBRANCH  14  19
TORSDOF 8
ENDMDL
MODEL 6
REMARK VINA RESULT:      -6.8      5.229     12.576
REMARK  Name = 45361394
REMARK  12 active torsions:
REMARK  status: ('A' for Active; 'I' for Inactive)
REMARK    1  A    between atoms: O_2  and  C_11
REMARK    2  A    between atoms: O_5  and  C_31
REMARK    3  A    between atoms: O_5  and  C_35
REMARK    4  A    between atoms: N_6  and  C_15
REMARK    5  A    between atoms: N_7  and  C_25
REMARK    6  A    between atoms: C_8  and  C_18
REMARK    7  A    between atoms: C_10  and  C_20
REMARK    8  A    between atoms: C_14  and  C_19
REMARK    9  A    between atoms: C_19  and  C_21
REMARK   10  A    between atoms: C_19  and  C_22
REMARK   11  A    between atoms: C_23  and  C_24
REMARK   12  A    between atoms: C_25  and  C_28
REMARK                            x       y       z     vdW  Elec       q    Type
REMARK                         _______ _______ _______ _____ _____    ______ ____
ROOT
ATOM      8  C   UNL     1     -11.190   8.530  18.891  0.00  0.00    -0.027 C 
ATOM      9  C   UNL     1     -12.639   9.119  18.842  0.00  0.00    +0.028 C 
ATOM     10  C   UNL     1     -13.692   8.052  19.312  0.00  0.00    +0.012 C 
ATOM     11  C   UNL     1     -12.929   9.785  17.467  0.00  0.00    +0.122 C 
ATOM     12  C   UNL     1     -10.170   9.638  18.534  0.00  0.00    +0.007 C 
ATOM     13  C   UNL     1     -10.887   8.059  20.333  0.00  0.00    +0.009 C 
ATOM     14  C   UNL     1     -11.850  10.818  17.065  0.00  0.00    +0.029 C 
ATOM     15  C   UNL     1     -13.333   7.530  20.731  0.00  0.00    +0.076 C 
ATOM     16  C   UNL     1     -10.428  10.265  17.170  0.00  0.00    +0.007 C 
ATOM     17  C   UNL     1     -11.891   7.042  20.853  0.00  0.00    +0.023 C 
ATOM     18  C   UNL     1     -10.997   7.342  17.915  0.00  0.00    +0.011 C 
ATOM     20  C   UNL     1     -15.139   8.575  19.313  0.00  0.00    +0.010 C 
ENDROOT
BRANCH  15   6
ATOM      4  O   UNL     1     -14.781   7.369  23.205  0.00  0.00    -0.270 OA
ATOM      6  N   UNL     1     -14.217   6.462  21.148  0.00  0.00    -0.308 N 
ATOM     23  C   UNL     1     -14.873   6.475  22.368  0.00  0.00    +0.244 C 
ATOM     36  H   UNL     1     -14.251   5.637  20.556  0.00  0.00    +0.149 HD
BRANCH  23  24
ATOM     24  C   UNL     1     -15.722   5.292  22.657  0.00  0.00    +0.037 A 
ATOM     26  C   UNL     1     -15.328   4.373  23.630  0.00  0.00    +0.016 A 
ATOM     27  C   UNL     1     -16.912   5.098  21.955  0.00  0.00    +0.016 A 
ATOM     29  C   UNL     1     -16.125   3.260  23.900  0.00  0.00    +0.046 A 
ATOM     30  C   UNL     1     -17.708   3.987  22.226  0.00  0.00    +0.046 A 
ATOM     31  C   UNL     1     -17.315   3.066  23.198  0.00  0.00    +0.120 A 
BRANCH  31   5
ATOM      5  O   UNL     1     -18.092   1.981  23.463  0.00  0.00    -0.495 OA
ATOM     35  C   UNL     1     -18.234   1.014  22.424  0.00  0.00    +0.277 C 
ENDBRANCH  31   5
ENDBRANCH  23  24
ENDBRANCH  15   6
BRANCH  11   2
ATOM      2  O   UNL     1     -14.167  10.494  17.532  0.00  0.00    -0.391 OA
ATOM     37  H   UNL     1     -13.971  11.446  17.510  0.00  0.00    +0.210 HD
ENDBRANCH  11   2
BRANCH  14  19
ATOM     19  C   UNL     1     -12.083  11.366  15.653  0.00  0.00    +0.077 C 
ATOM     21  C   UNL     1     -11.594  10.363  14.613  0.00  0.00    +0.017 C 
BRANCH  19  22
ATOM      3  O   UNL     1     -11.674  13.694  16.179  0.00  0.00    -0.276 OA
ATOM      7  N   UNL     1     -10.414  12.697  14.506  0.00  0.00    -0.310 N 
ATOM     22  C   UNL     1     -11.386  12.714  15.495  0.00  0.00    +0.216 C 
ATOM     38  H   UNL     1     -10.261  11.848  13.970  0.00  0.00    +0.149 HD
BRANCH   7  25
ATOM     25  C   UNL     1      -9.621  13.858  14.171  0.00  0.00    +0.146 C 
BRANCH  25  28
ATOM      1  S   UNL     1      -6.891  14.204  13.791  0.00  0.00    -0.100 S 
ATOM     28  C   UNL     1      -8.241  13.783  14.758  0.00  0.00    +0.007 A 
ATOM     32  C   UNL     1      -7.869  13.405  16.029  0.00  0.00    +0.013 A 
ATOM     33  C   UNL     1      -6.457  13.463  16.212  0.00  0.00    +0.008 A 
ATOM     34  C   UNL     1      -5.804  13.882  15.075  0.00  0.00    +0.045 A 
ENDBRANCH  25  28
ENDBRANCH   7  25
ENDBRANCH  19  22
ENDBRANCH  14  19
TORSDOF 8
ENDMDL
MODEL 7
REMARK VINA RESULT:      -6.6     21.267     25.315
REMARK  Name = 45361394
REMARK  12 active torsions:
REMARK  status: ('A' for Active; 'I' for Inactive)
REMARK    1  A    between atoms: O_2  and  C_11
REMARK    2  A    between atoms: O_5  and  C_31
REMARK    3  A    between atoms: O_5  and  C_35
REMARK    4  A    between atoms: N_6  and  C_15
REMARK    5  A    between atoms: N_7  and  C_25
REMARK    6  A    between atoms: C_8  and  C_18
REMARK    7  A    between atoms: C_10  and  C_20
REMARK    8  A    between atoms: C_14  and  C_19
REMARK    9  A    between atoms: C_19  and  C_21
REMARK   10  A    between atoms: C_19  and  C_22
REMARK   11  A    between atoms: C_23  and  C_24
REMARK   12  A    between atoms: C_25  and  C_28
REMARK                            x       y       z     vdW  Elec       q    Type
REMARK                         _______ _______ _______ _____ _____    ______ ____
ROOT
ATOM      8  C   UNL     1      -5.816 -11.186   6.789  0.00  0.00    -0.027 C 
ATOM      9  C   UNL     1      -5.929  -9.736   7.369  0.00  0.00    +0.028 C 
ATOM     10  C   UNL     1      -5.783  -9.747   8.933  0.00  0.00    +0.012 C 
ATOM     11  C   UNL     1      -7.188  -9.007   6.820  0.00  0.00    +0.122 C 
ATOM     12  C   UNL     1      -5.848 -11.127   5.243  0.00  0.00    +0.007 C 
ATOM     13  C   UNL     1      -4.456 -11.791   7.209  0.00  0.00    +0.009 C 
ATOM     14  C   UNL     1      -7.270  -9.042   5.275  0.00  0.00    +0.029 C 
ATOM     15  C   UNL     1      -4.447 -10.426   9.345  0.00  0.00    +0.076 C 
ATOM     16  C   UNL     1      -7.100 -10.449   4.701  0.00  0.00    +0.007 C 
ATOM     17  C   UNL     1      -4.247 -11.803   8.715  0.00  0.00    +0.023 C 
ATOM     18  C   UNL     1      -6.958 -12.112   7.277  0.00  0.00    +0.011 C 
ATOM     20  C   UNL     1      -5.858  -8.348   9.568  0.00  0.00    +0.010 C 
ENDROOT
BRANCH  15   6
ATOM      4  O   UNL     1      -2.147  -9.806  10.947  0.00  0.00    -0.270 OA
ATOM      6  N   UNL     1      -4.334 -10.557  10.782  0.00  0.00    -0.308 N 
ATOM     23  C   UNL     1      -3.175 -10.231  11.467  0.00  0.00    +0.244 C 
ATOM     36  H   UNL     1      -5.104 -11.010  11.264  0.00  0.00    +0.149 HD
BRANCH  23  24
ATOM     24  C   UNL     1      -3.211 -10.447  12.936  0.00  0.00    +0.037 A 
ATOM     26  C   UNL     1      -2.025 -10.430  13.671  0.00  0.00    +0.016 A 
ATOM     27  C   UNL     1      -4.428 -10.670  13.580  0.00  0.00    +0.016 A 
ATOM     29  C   UNL     1      -2.058 -10.635  15.051  0.00  0.00    +0.046 A 
ATOM     30  C   UNL     1      -4.460 -10.875  14.958  0.00  0.00    +0.046 A 
ATOM     31  C   UNL     1      -3.275 -10.859  15.695  0.00  0.00    +0.120 A 
BRANCH  31   5
ATOM      5  O   UNL     1      -3.307 -11.058  17.040  0.00  0.00    -0.495 OA
ATOM     35  C   UNL     1      -4.532 -11.528  17.599  0.00  0.00    +0.277 C 
ENDBRANCH  31   5
ENDBRANCH  23  24
ENDBRANCH  15   6
BRANCH  11   2
ATOM      2  O   UNL     1      -7.143  -7.630   7.194  0.00  0.00    -0.391 OA
ATOM     37  H   UNL     1      -7.747  -7.138   6.611  0.00  0.00    +0.210 HD
ENDBRANCH  11   2
BRANCH  14  19
ATOM     19  C   UNL     1      -8.580  -8.434   4.760  0.00  0.00    +0.077 C 
ATOM     21  C   UNL     1      -9.758  -9.325   5.143  0.00  0.00    +0.017 C 
BRANCH  19  22
ATOM      3  O   UNL     1      -7.521  -7.744   2.695  0.00  0.00    -0.276 OA
ATOM      7  N   UNL     1      -9.652  -8.658   2.598  0.00  0.00    -0.310 N 
ATOM     22  C   UNL     1      -8.503  -8.233   3.250  0.00  0.00    +0.216 C 
ATOM     38  H   UNL     1     -10.427  -9.027   3.141  0.00  0.00    +0.149 HD
BRANCH   7  25
ATOM     25  C   UNL     1      -9.815  -8.566   1.165  0.00  0.00    +0.146 C 
BRANCH  25  28
ATOM      1  S   UNL     1     -11.266  -7.189  -0.762  0.00  0.00    -0.100 S 
ATOM     28  C   UNL     1     -10.480  -7.283   0.756  0.00  0.00    +0.007 A 
ATOM     32  C   UNL     1     -10.559  -6.099   1.454  0.00  0.00    +0.013 A 
ATOM     33  C   UNL     1     -11.276  -5.101   0.733  0.00  0.00    +0.008 A 
ATOM     34  C   UNL     1     -11.717  -5.560  -0.488  0.00  0.00    +0.045 A 
ENDBRANCH  25  28
ENDBRANCH   7  25
ENDBRANCH  19  22
ENDBRANCH  14  19
TORSDOF 8
ENDMDL
MODEL 8
REMARK VINA RESULT:      -6.6     18.946     21.445
REMARK  Name = 45361394
REMARK  12 active torsions:
REMARK  status: ('A' for Active; 'I' for Inactive)
REMARK    1  A    between atoms: O_2  and  C_11
REMARK    2  A    between atoms: O_5  and  C_31
REMARK    3  A    between atoms: O_5  and  C_35
REMARK    4  A    between atoms: N_6  and  C_15
REMARK    5  A    between atoms: N_7  and  C_25
REMARK    6  A    between atoms: C_8  and  C_18
REMARK    7  A    between atoms: C_10  and  C_20
REMARK    8  A    between atoms: C_14  and  C_19
REMARK    9  A    between atoms: C_19  and  C_21
REMARK   10  A    between atoms: C_19  and  C_22
REMARK   11  A    between atoms: C_23  and  C_24
REMARK   12  A    between atoms: C_25  and  C_28
REMARK                            x       y       z     vdW  Elec       q    Type
REMARK                         _______ _______ _______ _____ _____    ______ ____
ROOT
ATOM      8  C   UNL     1      -3.333 -11.491  11.652  0.00  0.00    -0.027 C 
ATOM      9  C   UNL     1      -4.707 -10.994  12.213  0.00  0.00    +0.028 C 
ATOM     10  C   UNL     1      -5.465 -10.125  11.145  0.00  0.00    +0.012 C 
ATOM     11  C   UNL     1      -4.540 -10.337  13.612  0.00  0.00    +0.122 C 
ATOM     12  C   UNL     1      -2.667 -12.435  12.682  0.00  0.00    +0.007 C 
ATOM     13  C   UNL     1      -3.580 -12.304  10.360  0.00  0.00    +0.009 C 
ATOM     14  C   UNL     1      -3.781 -11.245  14.609  0.00  0.00    +0.029 C 
ATOM     15  C   UNL     1      -5.640 -10.926   9.825  0.00  0.00    +0.076 C 
ATOM     16  C   UNL     1      -2.466 -11.781  14.043  0.00  0.00    +0.007 C 
ATOM     17  C   UNL     1      -4.335 -11.520   9.297  0.00  0.00    +0.023 C 
ATOM     18  C   UNL     1      -2.361 -10.324  11.343  0.00  0.00    +0.011 C 
ATOM     20  C   UNL     1      -6.840  -9.625  11.621  0.00  0.00    +0.010 C 
ENDROOT
BRANCH  15   6
ATOM      4  O   UNL     1      -7.734 -11.711   8.024  0.00  0.00    -0.270 OA
ATOM      6  N   UNL     1      -6.231 -10.116   8.781  0.00  0.00    -0.308 N 
ATOM     23  C   UNL     1      -7.242 -10.587   7.960  0.00  0.00    +0.244 C 
ATOM     36  H   UNL     1      -5.796  -9.218   8.595  0.00  0.00    +0.149 HD
BRANCH  23  24
ATOM     24  C   UNL     1      -7.723  -9.642   6.920  0.00  0.00    +0.037 A 
ATOM     26  C   UNL     1      -9.006  -9.103   7.009  0.00  0.00    +0.016 A 
ATOM     27  C   UNL     1      -6.893  -9.294   5.854  0.00  0.00    +0.016 A 
ATOM     29  C   UNL     1      -9.460  -8.217   6.032  0.00  0.00    +0.046 A 
ATOM     30  C   UNL     1      -7.346  -8.408   4.878  0.00  0.00    +0.046 A 
ATOM     31  C   UNL     1      -8.630  -7.870   4.965  0.00  0.00    +0.120 A 
BRANCH  31   5
ATOM      5  O   UNL     1      -9.072  -7.005   4.012  0.00  0.00    -0.495 OA
ATOM     35  C   UNL     1      -8.609  -7.214   2.679  0.00  0.00    +0.277 C 
ENDBRANCH  31   5
ENDBRANCH  23  24
ENDBRANCH  15   6
BRANCH  11   2
ATOM      2  O   UNL     1      -5.827 -10.095  14.183  0.00  0.00    -0.391 OA
ATOM     37  H   UNL     1      -6.125  -9.215  13.893  0.00  0.00    +0.210 HD
ENDBRANCH  11   2
BRANCH  14  19
ATOM     19  C   UNL     1      -3.512 -10.531  15.939  0.00  0.00    +0.077 C 
ATOM     21  C   UNL     1      -2.035 -10.638  16.304  0.00  0.00    +0.017 C 
BRANCH  19  22
ATOM      3  O   UNL     1      -4.123 -12.155  17.628  0.00  0.00    -0.276 OA
ATOM      7  N   UNL     1      -5.532 -10.349  17.265  0.00  0.00    -0.310 N 
ATOM     22  C   UNL     1      -4.400 -11.116  17.033  0.00  0.00    +0.216 C 
ATOM     38  H   UNL     1      -5.695  -9.516  16.706  0.00  0.00    +0.149 HD
BRANCH   7  25
ATOM     25  C   UNL     1      -6.526 -10.702  18.254  0.00  0.00    +0.146 C 
BRANCH  25  28
ATOM      1  S   UNL     1      -9.269 -10.697  18.687  0.00  0.00    -0.100 S 
ATOM     28  C   UNL     1      -7.851 -10.053  17.975  0.00  0.00    +0.007 A 
ATOM     32  C   UNL     1      -8.119  -8.955  17.189  0.00  0.00    +0.013 A 
ATOM     33  C   UNL     1      -9.508  -8.637  17.171  0.00  0.00    +0.008 A 
ATOM     34  C   UNL     1     -10.248  -9.504  17.943  0.00  0.00    +0.045 A 
ENDBRANCH  25  28
ENDBRANCH   7  25
ENDBRANCH  19  22
ENDBRANCH  14  19
TORSDOF 8
ENDMDL
MODEL 9
REMARK VINA RESULT:      -6.6     15.512     18.028
REMARK  Name = 45361394
REMARK  12 active torsions:
REMARK  status: ('A' for Active; 'I' for Inactive)
REMARK    1  A    between atoms: O_2  and  C_11
REMARK    2  A    between atoms: O_5  and  C_31
REMARK    3  A    between atoms: O_5  and  C_35
REMARK    4  A    between atoms: N_6  and  C_15
REMARK    5  A    between atoms: N_7  and  C_25
REMARK    6  A    between atoms: C_8  and  C_18
REMARK    7  A    between atoms: C_10  and  C_20
REMARK    8  A    between atoms: C_14  and  C_19
REMARK    9  A    between atoms: C_19  and  C_21
REMARK   10  A    between atoms: C_19  and  C_22
REMARK   11  A    between atoms: C_23  and  C_24
REMARK   12  A    between atoms: C_25  and  C_28
REMARK                            x       y       z     vdW  Elec       q    Type
REMARK                         _______ _______ _______ _____ _____    ______ ____
ROOT
ATOM      8  C   UNL     1     -12.250  -4.203  10.511  0.00  0.00    -0.027 C 
ATOM      9  C   UNL     1     -11.761  -5.654  10.834  0.00  0.00    +0.028 C 
ATOM     10  C   UNL     1     -11.405  -6.430   9.515  0.00  0.00    +0.012 C 
ATOM     11  C   UNL     1     -12.748  -6.381  11.791  0.00  0.00    +0.122 C 
ATOM     12  C   UNL     1     -12.482  -3.431  11.832  0.00  0.00    +0.007 C 
ATOM     13  C   UNL     1     -11.145  -3.463   9.721  0.00  0.00    +0.009 C 
ATOM     14  C   UNL     1     -13.058  -5.557  13.064  0.00  0.00    +0.029 C 
ATOM     15  C   UNL     1     -10.350  -5.639   8.693  0.00  0.00    +0.076 C 
ATOM     16  C   UNL     1     -13.478  -4.120  12.755  0.00  0.00    +0.007 C 
ATOM     17  C   UNL     1     -10.739  -4.183   8.444  0.00  0.00    +0.023 C 
ATOM     18  C   UNL     1     -13.563  -4.187   9.687  0.00  0.00    +0.011 C 
ATOM     20  C   UNL     1     -10.890  -7.859   9.761  0.00  0.00    +0.010 C 
ENDROOT
BRANCH  15   6
ATOM      4  O   UNL     1      -7.835  -6.690   7.789  0.00  0.00    -0.270 OA
ATOM      6  N   UNL     1     -10.084  -6.268   7.416  0.00  0.00    -0.308 N 
ATOM     23  C   UNL     1      -8.830  -6.745   7.071  0.00  0.00    +0.244 C 
ATOM     36  H   UNL     1     -10.830  -6.244   6.728  0.00  0.00    +0.149 HD
BRANCH  23  24
ATOM     24  C   UNL     1      -8.716  -7.339   5.715  0.00  0.00    +0.037 A 
ATOM     26  C   UNL     1      -7.597  -8.102   5.381  0.00  0.00    +0.016 A 
ATOM     27  C   UNL     1      -9.725  -7.132   4.774  0.00  0.00    +0.016 A 
ATOM     29  C   UNL     1      -7.488  -8.658   4.106  0.00  0.00    +0.046 A 
ATOM     30  C   UNL     1      -9.616  -7.688   3.501  0.00  0.00    +0.046 A 
ATOM     31  C   UNL     1      -8.497  -8.451   3.165  0.00  0.00    +0.120 A 
BRANCH  31   5
ATOM      5  O   UNL     1      -8.391  -8.994   1.922  0.00  0.00    -0.495 OA
ATOM     35  C   UNL     1      -9.450  -9.848   1.493  0.00  0.00    +0.277 C 
ENDBRANCH  31   5
ENDBRANCH  23  24
ENDBRANCH  15   6
BRANCH  11   2
ATOM      2  O   UNL     1     -12.167  -7.609  12.233  0.00  0.00    -0.391 OA
ATOM     37  H   UNL     1     -11.998  -8.161  11.451  0.00  0.00    +0.210 HD
ENDBRANCH  11   2
BRANCH  14  19
ATOM     19  C   UNL     1     -14.129  -6.229  13.930  0.00  0.00    +0.077 C 
ATOM     21  C   UNL     1     -15.392  -5.374  13.961  0.00  0.00    +0.017 C 
BRANCH  19  22
ATOM      3  O   UNL     1     -14.310  -6.758  16.286  0.00  0.00    -0.276 OA
ATOM      7  N   UNL     1     -12.209  -6.327  15.404  0.00  0.00    -0.310 N 
ATOM     22  C   UNL     1     -13.587  -6.471  15.335  0.00  0.00    +0.216 C 
ATOM     38  H   UNL     1     -11.691  -6.061  14.571  0.00  0.00    +0.149 HD
BRANCH   7  25
ATOM     25  C   UNL     1     -11.466  -6.504  16.631  0.00  0.00    +0.146 C 
BRANCH  25  28
ATOM      1  S   UNL     1     -10.289  -8.455  15.042  0.00  0.00    -0.100 S 
ATOM     28  C   UNL     1     -10.418  -7.572  16.504  0.00  0.00    +0.007 A 
ATOM     32  C   UNL     1      -9.489  -7.978  17.436  0.00  0.00    +0.013 A 
ATOM     33  C   UNL     1      -8.660  -9.026  16.943  0.00  0.00    +0.008 A 
ATOM     34  C   UNL     1      -8.986  -9.382  15.654  0.00  0.00    +0.045 A 
ENDBRANCH  25  28
ENDBRANCH   7  25
ENDBRANCH  19  22
ENDBRANCH  14  19
TORSDOF 8
ENDMDL
MODEL 10
REMARK VINA RESULT:      -6.5     21.614     26.219
REMARK  Name = 45361394
REMARK  12 active torsions:
REMARK  status: ('A' for Active; 'I' for Inactive)
REMARK    1  A    between atoms: O_2  and  C_11
REMARK    2  A    between atoms: O_5  and  C_31
REMARK    3  A    between atoms: O_5  and  C_35
REMARK    4  A    between atoms: N_6  and  C_15
REMARK    5  A    between atoms: N_7  and  C_25
REMARK    6  A    between atoms: C_8  and  C_18
REMARK    7  A    between atoms: C_10  and  C_20
REMARK    8  A    between atoms: C_14  and  C_19
REMARK    9  A    between atoms: C_19  and  C_21
REMARK   10  A    between atoms: C_19  and  C_22
REMARK   11  A    between atoms: C_23  and  C_24
REMARK   12  A    between atoms: C_25  and  C_28
REMARK                            x       y       z     vdW  Elec       q    Type
REMARK                         _______ _______ _______ _____ _____    ______ ____
ROOT
ATOM      8  C   UNL     1      -5.748 -11.530   6.195  0.00  0.00    -0.027 C 
ATOM      9  C   UNL     1      -5.899 -10.074   6.750  0.00  0.00    +0.028 C 
ATOM     10  C   UNL     1      -5.769 -10.057   8.316  0.00  0.00    +0.012 C 
ATOM     11  C   UNL     1      -7.168  -9.382   6.177  0.00  0.00    +0.122 C 
ATOM     12  C   UNL     1      -5.766 -11.497   4.648  0.00  0.00    +0.007 C 
ATOM     13  C   UNL     1      -4.379 -12.098   6.638  0.00  0.00    +0.009 C 
ATOM     14  C   UNL     1      -7.233  -9.443   4.632  0.00  0.00    +0.029 C 
ATOM     15  C   UNL     1      -4.422 -10.699   8.752  0.00  0.00    +0.076 C 
ATOM     16  C   UNL     1      -7.026 -10.855   4.083  0.00  0.00    +0.007 C 
ATOM     17  C   UNL     1      -4.185 -12.082   8.147  0.00  0.00    +0.023 C 
ATOM     18  C   UNL     1      -6.875 -12.473   6.687  0.00  0.00    +0.011 C 
ATOM     20  C   UNL     1      -5.880  -8.649   8.927  0.00  0.00    +0.010 C 
ENDROOT
BRANCH  15   6
ATOM      4  O   UNL     1      -2.493  -9.399  10.434  0.00  0.00    -0.270 OA
ATOM      6  N   UNL     1      -4.321 -10.805  10.192  0.00  0.00    -0.308 N 
ATOM     23  C   UNL     1      -3.349 -10.135  10.917  0.00  0.00    +0.244 C 
ATOM     36  H   UNL     1      -4.922 -11.485  10.646  0.00  0.00    +0.149 HD
BRANCH  23  24
ATOM     24  C   UNL     1      -3.363 -10.369  12.384  0.00  0.00    +0.037 A 
ATOM     26  C   UNL     1      -2.161 -10.453  13.087  0.00  0.00    +0.016 A 
ATOM     27  C   UNL     1      -4.576 -10.507  13.058  0.00  0.00    +0.016 A 
ATOM     29  C   UNL     1      -2.173 -10.675  14.464  0.00  0.00    +0.046 A 
ATOM     30  C   UNL     1      -4.588 -10.729  14.434  0.00  0.00    +0.046 A 
ATOM     31  C   UNL     1      -3.386 -10.814  15.138  0.00  0.00    +0.120 A 
BRANCH  31   5
ATOM      5  O   UNL     1      -3.398 -11.030  16.482  0.00  0.00    -0.495 OA
ATOM     35  C   UNL     1      -4.637 -11.425  17.066  0.00  0.00    +0.277 C 
ENDBRANCH  31   5
ENDBRANCH  23  24
ENDBRANCH  15   6
BRANCH  11   2
ATOM      2  O   UNL     1      -7.157  -7.998   6.529  0.00  0.00    -0.391 OA
ATOM     37  H   UNL     1      -7.596  -7.501   5.818  0.00  0.00    +0.210 HD
ENDBRANCH  11   2
BRANCH  14  19
ATOM     19  C   UNL     1      -8.551  -8.873   4.095  0.00  0.00    +0.077 C 
ATOM     21  C   UNL     1      -9.685  -9.866   4.326  0.00  0.00    +0.017 C 
BRANCH  19  22
ATOM      3  O   UNL     1      -7.449  -7.896   2.172  0.00  0.00    -0.276 OA
ATOM      7  N   UNL     1      -9.461  -9.005   1.853  0.00  0.00    -0.310 N 
ATOM     22  C   UNL     1      -8.405  -8.529   2.616  0.00  0.00    +0.216 C 
ATOM     38  H   UNL     1     -10.225  -9.497   2.308  0.00  0.00    +0.149 HD
BRANCH   7  25
ATOM     25  C   UNL     1      -9.547  -8.801   0.425  0.00  0.00    +0.146 C 
BRANCH  25  28
ATOM      1  S   UNL     1      -7.912  -9.307  -1.762  0.00  0.00    -0.100 S 
ATOM     28  C   UNL     1      -8.722  -9.798  -0.336  0.00  0.00    +0.007 A 
ATOM     32  C   UNL     1      -8.503 -11.127  -0.048  0.00  0.00    +0.013 A 
ATOM     33  C   UNL     1      -7.658 -11.750  -1.011  0.00  0.00    +0.008 A 
ATOM     34  C   UNL     1      -7.263 -10.875  -1.998  0.00  0.00    +0.045 A 
ENDBRANCH  25  28
ENDBRANCH   7  25
ENDBRANCH  19  22
ENDBRANCH  14  19
TORSDOF 8
ENDMDL
