MODEL 1
REMARK VINA RESULT:      -8.0      0.000      0.000
REMARK  Name = 7143722
REMARK  4 active torsions:
REMARK  status: ('A' for Active; 'I' for Inactive)
REMARK    1  A    between atoms: O_3  and  C_26
REMARK    2  A    between atoms: O_3  and  C_35
REMARK    3  A    between atoms: N_6  and  C_20
REMARK    4  A    between atoms: C_17  and  C_19
REMARK                            x       y       z     vdW  Elec       q    Type
REMARK                         _______ _______ _______ _____ _____    ______ ____
ROOT
ATOM      1  O   UNL     1      12.200   7.813   2.479  0.00  0.00    -0.267 OA
ATOM      2  O   UNL     1      12.722   6.074  -2.074  0.00  0.00    -0.252 OA
ATOM      4  N   UNL     1      12.789   5.604   2.015  0.00  0.00    -0.311 N 
ATOM      5  N   UNL     1      13.353   4.287  -0.752  0.00  0.00    -0.284 N 
ATOM      6  N   UNL     1      11.123   4.498  -1.487  0.00  0.00    -0.266 N 
ATOM      7  C   UNL     1      15.027   4.975   0.940  0.00  0.00    +0.027 C 
ATOM      8  C   UNL     1      13.383   3.216   1.476  0.00  0.00    +0.054 C 
ATOM      9  C   UNL     1      14.839   3.645   1.666  0.00  0.00    +0.018 C 
ATOM     10  C   UNL     1      14.142   6.026   1.620  0.00  0.00    +0.130 C 
ATOM     11  C   UNL     1      14.702   4.825  -0.561  0.00  0.00    +0.114 C 
ATOM     12  C   UNL     1      13.106   3.029  -0.029  0.00  0.00    +0.119 C 
ATOM     13  C   UNL     1      12.432   4.253   2.044  0.00  0.00    +0.027 A 
ATOM     14  C   UNL     1      11.233   3.881   2.521  0.00  0.00    +0.022 A 
ATOM     15  C   UNL     1      11.912   6.616   2.455  0.00  0.00    +0.259 A 
ATOM     16  C   UNL     1      12.413   5.026  -1.503  0.00  0.00    +0.307 C 
ATOM     17  C   UNL     1      10.555   6.171   2.932  0.00  0.00    +0.047 A 
ATOM     18  C   UNL     1      10.281   4.859   2.965  0.00  0.00    +0.015 A 
ATOM     36  H   UNL     1      10.845   3.938  -0.688  0.00  0.00    +0.156 HD
ENDROOT
BRANCH  17  19
ATOM     19  C   UNL     1       9.534   7.149   3.342  0.00  0.00    -0.012 A 
ATOM     21  C   UNL     1       8.806   7.846   2.378  0.00  0.00    +0.017 A 
ATOM     22  C   UNL     1       9.294   7.379   4.694  0.00  0.00    +0.009 A 
ATOM     23  C   UNL     1       7.829   8.782   2.753  0.00  0.00    -0.017 A 
ATOM     24  C   UNL     1       8.327   8.305   5.086  0.00  0.00    +0.009 A 
ATOM     25  C   UNL     1       7.585   9.015   4.127  0.00  0.00    -0.018 A 
ATOM     28  C   UNL     1       7.088   9.492   1.794  0.00  0.00    +0.008 A 
ATOM     29  C   UNL     1       6.608   9.951   4.503  0.00  0.00    +0.008 A 
ATOM     33  C   UNL     1       6.120  10.418   2.184  0.00  0.00    +0.001 A 
ATOM     34  C   UNL     1       5.881  10.648   3.536  0.00  0.00    +0.001 A 
ENDBRANCH  17  19
BRANCH   6  20
ATOM     20  C   UNL     1      10.102   4.686  -2.452  0.00  0.00    +0.077 A 
ATOM     26  C   UNL     1      10.039   3.873  -3.581  0.00  0.00    +0.141 A 
ATOM     27  C   UNL     1       9.162   5.694  -2.259  0.00  0.00    +0.027 A 
ATOM     30  C   UNL     1       9.028   4.069  -4.522  0.00  0.00    +0.047 A 
ATOM     31  C   UNL     1       8.151   5.890  -3.200  0.00  0.00    +0.002 A 
ATOM     32  C   UNL     1       8.084   5.078  -4.331  0.00  0.00    +0.004 A 
BRANCH  26   3
ATOM      3  O   UNL     1      10.953   2.882  -3.787  0.00  0.00    -0.493 OA
ATOM     35  C   UNL     1      11.969   3.130  -4.756  0.00  0.00    +0.277 C 
ENDBRANCH  26   3
ENDBRANCH   6  20
TORSDOF 3
ENDMDL
MODEL 2
REMARK VINA RESULT:      -7.7      2.754      8.190
REMARK  Name = 7143722
REMARK  4 active torsions:
REMARK  status: ('A' for Active; 'I' for Inactive)
REMARK    1  A    between atoms: O_3  and  C_26
REMARK    2  A    between atoms: O_3  and  C_35
REMARK    3  A    between atoms: N_6  and  C_20
REMARK    4  A    between atoms: C_17  and  C_19
REMARK                            x       y       z     vdW  Elec       q    Type
REMARK                         _______ _______ _______ _____ _____    ______ ____
ROOT
ATOM      1  O   UNL     1       9.795   6.776   0.989  0.00  0.00    -0.267 OA
ATOM      2  O   UNL     1      11.952   9.438   4.494  0.00  0.00    -0.252 OA
ATOM      4  N   UNL     1       9.563   6.320   3.265  0.00  0.00    -0.311 N 
ATOM      5  N   UNL     1      10.670   7.934   5.690  0.00  0.00    -0.284 N 
ATOM      6  N   UNL     1      12.922   7.448   5.191  0.00  0.00    -0.266 N 
ATOM      7  C   UNL     1       8.334   7.898   4.866  0.00  0.00    +0.027 C 
ATOM      8  C   UNL     1       9.368   5.832   5.728  0.00  0.00    +0.054 C 
ATOM      9  C   UNL     1       8.066   6.633   5.679  0.00  0.00    +0.018 C 
ATOM     10  C   UNL     1       8.679   7.485   3.429  0.00  0.00    +0.130 C 
ATOM     11  C   UNL     1       9.456   8.734   5.515  0.00  0.00    +0.114 C 
ATOM     12  C   UNL     1      10.453   6.677   6.426  0.00  0.00    +0.119 C 
ATOM     13  C   UNL     1       9.832   5.459   4.333  0.00  0.00    +0.027 A 
ATOM     14  C   UNL     1      10.543   4.337   4.134  0.00  0.00    +0.022 A 
ATOM     15  C   UNL     1      10.038   6.063   1.963  0.00  0.00    +0.259 A 
ATOM     16  C   UNL     1      11.874   8.362   5.091  0.00  0.00    +0.307 C 
ATOM     17  C   UNL     1      10.878   4.826   1.784  0.00  0.00    +0.047 A 
ATOM     18  C   UNL     1      11.077   4.023   2.840  0.00  0.00    +0.015 A 
ATOM     36  H   UNL     1      12.692   6.464   5.278  0.00  0.00    +0.156 HD
ENDROOT
BRANCH  17  19
ATOM     19  C   UNL     1      11.488   4.503   0.484  0.00  0.00    -0.012 A 
ATOM     21  C   UNL     1      10.681   4.161  -0.601  0.00  0.00    +0.017 A 
ATOM     22  C   UNL     1      12.872   4.539   0.336  0.00  0.00    +0.009 A 
ATOM     23  C   UNL     1      11.248   3.851  -1.848  0.00  0.00    -0.017 A 
ATOM     24  C   UNL     1      13.453   4.235  -0.895  0.00  0.00    +0.009 A 
ATOM     25  C   UNL     1      12.654   3.888  -1.997  0.00  0.00    -0.018 A 
ATOM     28  C   UNL     1      10.449   3.505  -2.951  0.00  0.00    +0.008 A 
ATOM     29  C   UNL     1      13.222   3.578  -3.244  0.00  0.00    +0.008 A 
ATOM     33  C   UNL     1      11.029   3.200  -4.182  0.00  0.00    +0.001 A 
ATOM     34  C   UNL     1      12.413   3.236  -4.329  0.00  0.00    +0.001 A 
ENDBRANCH  17  19
BRANCH   6  20
ATOM     20  C   UNL     1      14.312   7.720   5.137  0.00  0.00    +0.077 A 
ATOM     26  C   UNL     1      15.045   7.430   3.989  0.00  0.00    +0.141 A 
ATOM     27  C   UNL     1      14.937   8.282   6.247  0.00  0.00    +0.027 A 
ATOM     30  C   UNL     1      16.412   7.703   3.951  0.00  0.00    +0.047 A 
ATOM     31  C   UNL     1      16.304   8.557   6.208  0.00  0.00    +0.002 A 
ATOM     32  C   UNL     1      17.042   8.267   5.061  0.00  0.00    +0.004 A 
BRANCH  26   3
ATOM      3  O   UNL     1      14.449   6.877   2.894  0.00  0.00    -0.493 OA
ATOM     35  C   UNL     1      14.144   7.754   1.812  0.00  0.00    +0.277 C 
ENDBRANCH  26   3
ENDBRANCH   6  20
TORSDOF 3
ENDMDL
MODEL 3
REMARK VINA RESULT:      -7.7     34.177     37.037
REMARK  Name = 7143722
REMARK  4 active torsions:
REMARK  status: ('A' for Active; 'I' for Inactive)
REMARK    1  A    between atoms: O_3  and  C_26
REMARK    2  A    between atoms: O_3  and  C_35
REMARK    3  A    between atoms: N_6  and  C_20
REMARK    4  A    between atoms: C_17  and  C_19
REMARK                            x       y       z     vdW  Elec       q    Type
REMARK                         _______ _______ _______ _____ _____    ______ ____
ROOT
ATOM      1  O   UNL     1       9.297 -11.525  31.944  0.00  0.00    -0.267 OA
ATOM      2  O   UNL     1       7.087 -10.459  36.187  0.00  0.00    -0.252 OA
ATOM      4  N   UNL     1       8.732  -9.352  32.579  0.00  0.00    -0.311 N 
ATOM      5  N   UNL     1       7.491  -8.378  35.266  0.00  0.00    -0.284 N 
ATOM      6  N   UNL     1       5.432  -9.466  34.895  0.00  0.00    -0.266 N 
ATOM      7  C   UNL     1       9.853  -8.161  34.551  0.00  0.00    +0.027 C 
ATOM      8  C   UNL     1       8.071  -7.025  33.280  0.00  0.00    +0.054 C 
ATOM      9  C   UNL     1       9.506  -6.883  33.792  0.00  0.00    +0.018 C 
ATOM     10  C   UNL     1       9.827  -9.333  33.562  0.00  0.00    +0.130 C 
ATOM     11  C   UNL     1       8.880  -8.375  35.730  0.00  0.00    +0.114 C 
ATOM     12  C   UNL     1       7.122  -7.187  34.484  0.00  0.00    +0.119 C 
ATOM     13  C   UNL     1       7.937  -8.224  32.360  0.00  0.00    +0.027 A 
ATOM     14  C   UNL     1       7.022  -8.223  31.377  0.00  0.00    +0.022 A 
ATOM     15  C   UNL     1       8.594 -10.523  31.806  0.00  0.00    +0.259 A 
ATOM     16  C   UNL     1       6.681  -9.507  35.515  0.00  0.00    +0.307 C 
ATOM     17  C   UNL     1       7.523 -10.509  30.748  0.00  0.00    +0.047 A 
ATOM     18  C   UNL     1       6.812  -9.387  30.565  0.00  0.00    +0.015 A 
ATOM     36  H   UNL     1       5.338  -8.920  34.046  0.00  0.00    +0.156 HD
ENDROOT
BRANCH  17  19
ATOM     19  C   UNL     1       7.242 -11.704  29.935  0.00  0.00    -0.012 A 
ATOM     21  C   UNL     1       6.125 -12.492  30.214  0.00  0.00    +0.017 A 
ATOM     22  C   UNL     1       8.090 -12.047  28.886  0.00  0.00    +0.009 A 
ATOM     23  C   UNL     1       5.843 -13.634  29.447  0.00  0.00    -0.017 A 
ATOM     24  C   UNL     1       7.825 -13.178  28.113  0.00  0.00    +0.009 A 
ATOM     25  C   UNL     1       6.705 -13.982  28.381  0.00  0.00    -0.018 A 
ATOM     28  C   UNL     1       4.722 -14.438  29.715  0.00  0.00    +0.008 A 
ATOM     29  C   UNL     1       6.424 -15.124  27.613  0.00  0.00    +0.008 A 
ATOM     33  C   UNL     1       4.457 -15.569  28.943  0.00  0.00    +0.001 A 
ATOM     34  C   UNL     1       5.306 -15.912  27.894  0.00  0.00    +0.001 A 
ENDBRANCH  17  19
BRANCH   6  20
ATOM     20  C   UNL     1       4.253 -10.149  35.286  0.00  0.00    +0.077 A 
ATOM     26  C   UNL     1       3.966 -11.412  34.774  0.00  0.00    +0.141 A 
ATOM     27  C   UNL     1       3.384  -9.541  36.188  0.00  0.00    +0.027 A 
ATOM     30  C   UNL     1       2.802 -12.072  35.168  0.00  0.00    +0.047 A 
ATOM     31  C   UNL     1       2.221 -10.202  36.583  0.00  0.00    +0.002 A 
ATOM     32  C   UNL     1       1.929 -11.467  36.072  0.00  0.00    +0.004 A 
BRANCH  26   3
ATOM      3  O   UNL     1       4.805 -12.020  33.888  0.00  0.00    -0.493 OA
ATOM     35  C   UNL     1       4.385 -13.274  33.356  0.00  0.00    +0.277 C 
ENDBRANCH  26   3
ENDBRANCH   6  20
TORSDOF 3
ENDMDL
MODEL 4
REMARK VINA RESULT:      -7.6     12.657     16.425
REMARK  Name = 7143722
REMARK  4 active torsions:
REMARK  status: ('A' for Active; 'I' for Inactive)
REMARK    1  A    between atoms: O_3  and  C_26
REMARK    2  A    between atoms: O_3  and  C_35
REMARK    3  A    between atoms: N_6  and  C_20
REMARK    4  A    between atoms: C_17  and  C_19
REMARK                            x       y       z     vdW  Elec       q    Type
REMARK                         _______ _______ _______ _____ _____    ______ ____
ROOT
ATOM      1  O   UNL     1      -6.276  10.245   5.494  0.00  0.00    -0.267 OA
ATOM      2  O   UNL     1      -2.678  12.119   2.743  0.00  0.00    -0.252 OA
ATOM      4  N   UNL     1      -4.032   9.668   5.760  0.00  0.00    -0.311 N 
ATOM      5  N   UNL     1      -1.543  10.822   4.281  0.00  0.00    -0.284 N 
ATOM      6  N   UNL     1      -2.167   9.922   2.193  0.00  0.00    -0.266 N 
ATOM      7  C   UNL     1      -2.273  11.334   6.593  0.00  0.00    +0.027 C 
ATOM      8  C   UNL     1      -1.604   9.038   5.992  0.00  0.00    +0.054 C 
ATOM      9  C   UNL     1      -1.543  10.092   7.099  0.00  0.00    +0.018 C 
ATOM     10  C   UNL     1      -3.748  10.973   6.377  0.00  0.00    +0.130 C 
ATOM     11  C   UNL     1      -1.611  11.867   5.305  0.00  0.00    +0.114 C 
ATOM     12  C   UNL     1      -0.892   9.583   4.738  0.00  0.00    +0.119 C 
ATOM     13  C   UNL     1      -3.040   8.688   5.651  0.00  0.00    +0.027 A 
ATOM     14  C   UNL     1      -3.348   7.463   5.195  0.00  0.00    +0.022 A 
ATOM     15  C   UNL     1      -5.367   9.422   5.381  0.00  0.00    +0.259 A 
ATOM     16  C   UNL     1      -2.158  11.038   3.029  0.00  0.00    +0.307 C 
ATOM     17  C   UNL     1      -5.668   8.057   4.823  0.00  0.00    +0.047 A 
ATOM     18  C   UNL     1      -4.682   7.149   4.771  0.00  0.00    +0.015 A 
ATOM     36  H   UNL     1      -2.142   9.004   2.622  0.00  0.00    +0.156 HD
ENDROOT
BRANCH  17  19
ATOM     19  C   UNL     1      -7.012   7.718   4.326  0.00  0.00    -0.012 A 
ATOM     21  C   UNL     1      -7.772   6.743   4.973  0.00  0.00    +0.017 A 
ATOM     22  C   UNL     1      -7.526   8.371   3.210  0.00  0.00    +0.009 A 
ATOM     23  C   UNL     1      -9.055   6.409   4.512  0.00  0.00    -0.017 A 
ATOM     24  C   UNL     1      -8.800   8.054   2.737  0.00  0.00    +0.009 A 
ATOM     25  C   UNL     1      -9.577   7.075   3.377  0.00  0.00    -0.018 A 
ATOM     28  C   UNL     1      -9.832   5.430   5.152  0.00  0.00    +0.008 A 
ATOM     29  C   UNL     1     -10.861   6.741   2.915  0.00  0.00    +0.008 A 
ATOM     33  C   UNL     1     -11.106   5.111   4.680  0.00  0.00    +0.001 A 
ATOM     34  C   UNL     1     -11.619   5.765   3.564  0.00  0.00    +0.001 A 
ENDBRANCH  17  19
BRANCH   6  20
ATOM     20  C   UNL     1      -2.257   9.905   0.779  0.00  0.00    +0.077 A 
ATOM     26  C   UNL     1      -1.104   9.907  -0.002  0.00  0.00    +0.141 A 
ATOM     27  C   UNL     1      -3.513   9.885   0.179  0.00  0.00    +0.027 A 
ATOM     30  C   UNL     1      -1.209   9.889  -1.393  0.00  0.00    +0.047 A 
ATOM     31  C   UNL     1      -3.617   9.866  -1.213  0.00  0.00    +0.002 A 
ATOM     32  C   UNL     1      -2.465   9.869  -1.998  0.00  0.00    +0.004 A 
BRANCH  26   3
ATOM      3  O   UNL     1       0.134   9.928   0.569  0.00  0.00    -0.493 OA
ATOM     35  C   UNL     1       1.132  10.714  -0.078  0.00  0.00    +0.277 C 
ENDBRANCH  26   3
ENDBRANCH   6  20
TORSDOF 3
ENDMDL
MODEL 5
REMARK VINA RESULT:      -7.5     24.683     26.578
REMARK  Name = 7143722
REMARK  4 active torsions:
REMARK  status: ('A' for Active; 'I' for Inactive)
REMARK    1  A    between atoms: O_3  and  C_26
REMARK    2  A    between atoms: O_3  and  C_35
REMARK    3  A    between atoms: N_6  and  C_20
REMARK    4  A    between atoms: C_17  and  C_19
REMARK                            x       y       z     vdW  Elec       q    Type
REMARK                         _______ _______ _______ _____ _____    ______ ____
ROOT
ATOM      1  O   UNL     1      -4.546 -13.092   9.841  0.00  0.00    -0.267 OA
ATOM      2  O   UNL     1      -5.880 -13.379  14.549  0.00  0.00    -0.252 OA
ATOM      4  N   UNL     1      -3.088 -12.662  11.610  0.00  0.00    -0.311 N 
ATOM      5  N   UNL     1      -3.616 -12.934  14.669  0.00  0.00    -0.284 N 
ATOM      6  N   UNL     1      -5.181 -11.172  14.719  0.00  0.00    -0.266 N 
ATOM      7  C   UNL     1      -2.322 -14.487  13.236  0.00  0.00    +0.027 C 
ATOM      8  C   UNL     1      -1.553 -12.164  13.544  0.00  0.00    +0.054 C 
ATOM      9  C   UNL     1      -1.082 -13.614  13.409  0.00  0.00    +0.018 C 
ATOM     10  C   UNL     1      -3.009 -14.098  11.921  0.00  0.00    +0.130 C 
ATOM     11  C   UNL     1      -3.265 -14.338  14.449  0.00  0.00    +0.114 C 
ATOM     12  C   UNL     1      -2.451 -12.042  14.791  0.00  0.00    +0.119 C 
ATOM     13  C   UNL     1      -2.325 -11.725  12.314  0.00  0.00    +0.027 A 
ATOM     14  C   UNL     1      -2.321 -10.437  11.938  0.00  0.00    +0.022 A 
ATOM     15  C   UNL     1      -3.888 -12.294  10.509  0.00  0.00    +0.259 A 
ATOM     16  C   UNL     1      -4.974 -12.549  14.656  0.00  0.00    +0.307 C 
ATOM     17  C   UNL     1      -3.904 -10.833  10.146  0.00  0.00    +0.047 A 
ATOM     18  C   UNL     1      -3.129  -9.988  10.840  0.00  0.00    +0.015 A 
ATOM     36  H   UNL     1      -4.452 -10.562  14.365  0.00  0.00    +0.156 HD
ENDROOT
BRANCH  17  19
ATOM     19  C   UNL     1      -4.763 -10.329   9.062  0.00  0.00    -0.012 A 
ATOM     21  C   UNL     1      -5.704  -9.332   9.322  0.00  0.00    +0.017 A 
ATOM     22  C   UNL     1      -4.637 -10.845   7.776  0.00  0.00    +0.009 A 
ATOM     23  C   UNL     1      -6.530  -8.839   8.299  0.00  0.00    -0.017 A 
ATOM     24  C   UNL     1      -5.448 -10.368   6.746  0.00  0.00    +0.009 A 
ATOM     25  C   UNL     1      -6.400  -9.365   6.992  0.00  0.00    -0.018 A 
ATOM     28  C   UNL     1      -7.482  -7.836   8.545  0.00  0.00    +0.008 A 
ATOM     29  C   UNL     1      -7.226  -8.873   5.968  0.00  0.00    +0.008 A 
ATOM     33  C   UNL     1      -8.295  -7.359   7.516  0.00  0.00    +0.001 A 
ATOM     34  C   UNL     1      -8.168  -7.876   6.231  0.00  0.00    +0.001 A 
ENDBRANCH  17  19
BRANCH   6  20
ATOM     20  C   UNL     1      -6.335 -10.494  15.184  0.00  0.00    +0.077 A 
ATOM     26  C   UNL     1      -6.377  -9.973  16.474  0.00  0.00    +0.141 A 
ATOM     27  C   UNL     1      -7.429 -10.353  14.333  0.00  0.00    +0.027 A 
ATOM     30  C   UNL     1      -7.520  -9.307  16.918  0.00  0.00    +0.047 A 
ATOM     31  C   UNL     1      -8.572  -9.687  14.777  0.00  0.00    +0.002 A 
ATOM     32  C   UNL     1      -8.617  -9.165  16.070  0.00  0.00    +0.004 A 
BRANCH  26   3
ATOM      3  O   UNL     1      -5.315 -10.103  17.321  0.00  0.00    -0.493 OA
ATOM     35  C   UNL     1      -5.559 -10.741  18.571  0.00  0.00    +0.277 C 
ENDBRANCH  26   3
ENDBRANCH   6  20
TORSDOF 3
ENDMDL
MODEL 6
REMARK VINA RESULT:      -7.5     27.050     29.114
REMARK  Name = 7143722
REMARK  4 active torsions:
REMARK  status: ('A' for Active; 'I' for Inactive)
REMARK    1  A    between atoms: O_3  and  C_26
REMARK    2  A    between atoms: O_3  and  C_35
REMARK    3  A    between atoms: N_6  and  C_20
REMARK    4  A    between atoms: C_17  and  C_19
REMARK                            x       y       z     vdW  Elec       q    Type
REMARK                         _______ _______ _______ _____ _____    ______ ____
ROOT
ATOM      1  O   UNL     1      -6.462 -12.828  14.711  0.00  0.00    -0.267 OA
ATOM      2  O   UNL     1     -10.768 -11.181  16.376  0.00  0.00    -0.252 OA
ATOM      4  N   UNL     1      -6.809 -12.171  16.922  0.00  0.00    -0.311 N 
ATOM      5  N   UNL     1      -9.461 -11.257  18.280  0.00  0.00    -0.284 N 
ATOM      6  N   UNL     1      -9.613  -9.273  17.016  0.00  0.00    -0.266 N 
ATOM      7  C   UNL     1      -8.349 -13.459  18.514  0.00  0.00    +0.027 C 
ATOM      8  C   UNL     1      -7.210 -11.414  19.291  0.00  0.00    +0.054 C 
ATOM      9  C   UNL     1      -7.453 -12.890  19.612  0.00  0.00    +0.018 C 
ATOM     10  C   UNL     1      -7.586 -13.393  17.185  0.00  0.00    +0.130 C 
ATOM     11  C   UNL     1      -9.688 -12.694  18.454  0.00  0.00    +0.114 C 
ATOM     12  C   UNL     1      -8.561 -10.671  19.287  0.00  0.00    +0.119 C 
ATOM     13  C   UNL     1      -6.536 -11.254  17.941  0.00  0.00    +0.027 A 
ATOM     14  C   UNL     1      -5.727 -10.208  17.709  0.00  0.00    +0.022 A 
ATOM     15  C   UNL     1      -6.275 -12.026  15.626  0.00  0.00    +0.259 A 
ATOM     16  C   UNL     1     -10.021 -10.597  17.165  0.00  0.00    +0.307 C 
ATOM     17  C   UNL     1      -5.416 -10.813  15.383  0.00  0.00    +0.047 A 
ATOM     18  C   UNL     1      -5.165  -9.985  16.408  0.00  0.00    +0.015 A 
ATOM     36  H   UNL     1      -8.711  -9.005  17.396  0.00  0.00    +0.156 HD
ENDROOT
BRANCH  17  19
ATOM     19  C   UNL     1      -4.869 -10.524  14.048  0.00  0.00    -0.012 A 
ATOM     21  C   UNL     1      -5.635  -9.823  13.115  0.00  0.00    +0.017 A 
ATOM     22  C   UNL     1      -3.586 -10.947  13.714  0.00  0.00    +0.009 A 
ATOM     23  C   UNL     1      -5.127  -9.538  11.837  0.00  0.00    -0.017 A 
ATOM     24  C   UNL     1      -3.064 -10.673  12.450  0.00  0.00    +0.009 A 
ATOM     25  C   UNL     1      -3.823  -9.969  11.499  0.00  0.00    -0.018 A 
ATOM     28  C   UNL     1      -5.886  -8.834  10.888  0.00  0.00    +0.008 A 
ATOM     29  C   UNL     1      -3.314  -9.684  10.222  0.00  0.00    +0.008 A 
ATOM     33  C   UNL     1      -5.366  -8.560   9.623  0.00  0.00    +0.001 A 
ATOM     34  C   UNL     1      -4.083  -8.984   9.290  0.00  0.00    +0.001 A 
ENDBRANCH  17  19
BRANCH   6  20
ATOM     20  C   UNL     1     -10.296  -8.230  16.342  0.00  0.00    +0.077 A 
ATOM     26  C   UNL     1     -10.358  -8.210  14.951  0.00  0.00    +0.141 A 
ATOM     27  C   UNL     1     -10.905  -7.224  17.088  0.00  0.00    +0.027 A 
ATOM     30  C   UNL     1     -11.035  -7.178  14.301  0.00  0.00    +0.047 A 
ATOM     31  C   UNL     1     -11.582  -6.192  16.437  0.00  0.00    +0.002 A 
ATOM     32  C   UNL     1     -11.646  -6.169  15.044  0.00  0.00    +0.004 A 
BRANCH  26   3
ATOM      3  O   UNL     1      -9.765  -9.186  14.206  0.00  0.00    -0.493 OA
ATOM     35  C   UNL     1     -10.469  -9.635  13.050  0.00  0.00    +0.277 C 
ENDBRANCH  26   3
ENDBRANCH   6  20
TORSDOF 3
ENDMDL
MODEL 7
REMARK VINA RESULT:      -7.2     27.486     29.525
REMARK  Name = 7143722
REMARK  4 active torsions:
REMARK  status: ('A' for Active; 'I' for Inactive)
REMARK    1  A    between atoms: O_3  and  C_26
REMARK    2  A    between atoms: O_3  and  C_35
REMARK    3  A    between atoms: N_6  and  C_20
REMARK    4  A    between atoms: C_17  and  C_19
REMARK                            x       y       z     vdW  Elec       q    Type
REMARK                         _______ _______ _______ _____ _____    ______ ____
ROOT
ATOM      1  O   UNL     1      -6.042 -12.877  14.934  0.00  0.00    -0.267 OA
ATOM      2  O   UNL     1     -10.759 -12.172  16.067  0.00  0.00    -0.252 OA
ATOM      4  N   UNL     1      -6.750 -12.046  16.996  0.00  0.00    -0.311 N 
ATOM      5  N   UNL     1      -9.663 -11.665  18.036  0.00  0.00    -0.284 N 
ATOM      6  N   UNL     1     -10.167  -9.966  16.481  0.00  0.00    -0.266 N 
ATOM      7  C   UNL     1      -8.079 -13.463  18.667  0.00  0.00    +0.027 C 
ATOM      8  C   UNL     1      -7.549 -11.112  19.194  0.00  0.00    +0.054 C 
ATOM      9  C   UNL     1      -7.458 -12.547  19.719  0.00  0.00    +0.018 C 
ATOM     10  C   UNL     1      -7.230 -13.380  17.392  0.00  0.00    +0.130 C 
ATOM     11  C   UNL     1      -9.551 -13.076  18.410  0.00  0.00    +0.114 C 
ATOM     12  C   UNL     1      -9.033 -10.743  18.996  0.00  0.00    +0.119 C 
ATOM     13  C   UNL     1      -6.807 -10.964  17.879  0.00  0.00    +0.027 A 
ATOM     14  C   UNL     1      -6.256  -9.787  17.543  0.00  0.00    +0.022 A 
ATOM     15  C   UNL     1      -6.144 -11.941  15.728  0.00  0.00    +0.259 A 
ATOM     16  C   UNL     1     -10.255 -11.320  16.802  0.00  0.00    +0.307 C 
ATOM     17  C   UNL     1      -5.584 -10.593  15.358  0.00  0.00    +0.047 A 
ATOM     18  C   UNL     1      -5.642  -9.602  16.259  0.00  0.00    +0.015 A 
ATOM     36  H   UNL     1      -9.398  -9.432  16.870  0.00  0.00    +0.156 HD
ENDROOT
BRANCH  17  19
ATOM     19  C   UNL     1      -4.998 -10.351  14.030  0.00  0.00    -0.012 A 
ATOM     21  C   UNL     1      -5.770  -9.780  13.018  0.00  0.00    +0.017 A 
ATOM     22  C   UNL     1      -3.671 -10.691  13.783  0.00  0.00    +0.009 A 
ATOM     23  C   UNL     1      -5.224  -9.542  11.745  0.00  0.00    -0.017 A 
ATOM     24  C   UNL     1      -3.111 -10.461  12.526  0.00  0.00    +0.009 A 
ATOM     25  C   UNL     1      -3.875  -9.888  11.496  0.00  0.00    -0.018 A 
ATOM     28  C   UNL     1      -5.989  -8.969  10.716  0.00  0.00    +0.008 A 
ATOM     29  C   UNL     1      -3.329  -9.651  10.224  0.00  0.00    +0.008 A 
ATOM     33  C   UNL     1      -5.431  -8.740   9.458  0.00  0.00    +0.001 A 
ATOM     34  C   UNL     1      -4.104  -9.080   9.212  0.00  0.00    +0.001 A 
ENDBRANCH  17  19
BRANCH   6  20
ATOM     20  C   UNL     1     -11.014  -9.228  15.617  0.00  0.00    +0.077 A 
ATOM     26  C   UNL     1     -12.149  -8.592  16.113  0.00  0.00    +0.141 A 
ATOM     27  C   UNL     1     -10.697  -9.146  14.263  0.00  0.00    +0.027 A 
ATOM     30  C   UNL     1     -12.972  -7.869  15.250  0.00  0.00    +0.047 A 
ATOM     31  C   UNL     1     -11.521  -8.422  13.401  0.00  0.00    +0.002 A 
ATOM     32  C   UNL     1     -12.658  -7.784  13.894  0.00  0.00    +0.004 A 
BRANCH  26   3
ATOM      3  O   UNL     1     -12.474  -8.663  17.435  0.00  0.00    -0.493 OA
ATOM     35  C   UNL     1     -13.531  -9.551  17.794  0.00  0.00    +0.277 C 
ENDBRANCH  26   3
ENDBRANCH   6  20
TORSDOF 3
ENDMDL
MODEL 8
REMARK VINA RESULT:      -7.0     34.390     37.309
REMARK  Name = 7143722
REMARK  4 active torsions:
REMARK  status: ('A' for Active; 'I' for Inactive)
REMARK    1  A    between atoms: O_3  and  C_26
REMARK    2  A    between atoms: O_3  and  C_35
REMARK    3  A    between atoms: N_6  and  C_20
REMARK    4  A    between atoms: C_17  and  C_19
REMARK                            x       y       z     vdW  Elec       q    Type
REMARK                         _______ _______ _______ _____ _____    ______ ____
ROOT
ATOM      1  O   UNL     1       8.982 -12.019  32.279  0.00  0.00    -0.267 OA
ATOM      2  O   UNL     1       7.429 -10.052  36.491  0.00  0.00    -0.252 OA
ATOM      4  N   UNL     1       8.895  -9.719  32.659  0.00  0.00    -0.311 N 
ATOM      5  N   UNL     1       8.122  -8.213  35.276  0.00  0.00    -0.284 N 
ATOM      6  N   UNL     1       5.871  -8.911  35.203  0.00  0.00    -0.266 N 
ATOM      7  C   UNL     1      10.403  -8.550  34.369  0.00  0.00    +0.027 C 
ATOM      8  C   UNL     1       8.749  -7.241  33.090  0.00  0.00    +0.054 C 
ATOM      9  C   UNL     1      10.228  -7.326  33.473  0.00  0.00    +0.018 C 
ATOM     10  C   UNL     1      10.064  -9.801  33.549  0.00  0.00    +0.130 C 
ATOM     11  C   UNL     1       9.526  -8.429  35.633  0.00  0.00    +0.114 C 
ATOM     12  C   UNL     1       7.907  -7.072  34.371  0.00  0.00    +0.119 C 
ATOM     13  C   UNL     1       8.306  -8.489  32.350  0.00  0.00    +0.027 A 
ATOM     14  C   UNL     1       7.317  -8.423  31.444  0.00  0.00    +0.022 A 
ATOM     15  C   UNL     1       8.467 -10.921  32.061  0.00  0.00    +0.259 A 
ATOM     16  C   UNL     1       7.144  -9.124  35.730  0.00  0.00    +0.307 C 
ATOM     17  C   UNL     1       7.320 -10.821  31.091  0.00  0.00    +0.047 A 
ATOM     18  C   UNL     1       6.816  -9.610  30.812  0.00  0.00    +0.015 A 
ATOM     36  H   UNL     1       5.798  -8.459  34.298  0.00  0.00    +0.156 HD
ENDROOT
BRANCH  17  19
ATOM     19  C   UNL     1       6.745 -12.023  30.466  0.00  0.00    -0.012 A 
ATOM     21  C   UNL     1       7.315 -12.550  29.307  0.00  0.00    +0.017 A 
ATOM     22  C   UNL     1       5.631 -12.636  31.033  0.00  0.00    +0.009 A 
ATOM     23  C   UNL     1       6.778 -13.697  28.700  0.00  0.00    -0.017 A 
ATOM     24  C   UNL     1       5.084 -13.776  30.445  0.00  0.00    +0.009 A 
ATOM     25  C   UNL     1       5.646 -14.319  29.277  0.00  0.00    -0.018 A 
ATOM     28  C   UNL     1       7.340 -14.240  27.533  0.00  0.00    +0.008 A 
ATOM     29  C   UNL     1       5.108 -15.466  28.671  0.00  0.00    +0.008 A 
ATOM     33  C   UNL     1       6.794 -15.380  26.944  0.00  0.00    +0.001 A 
ATOM     34  C   UNL     1       5.679 -15.992  27.511  0.00  0.00    +0.001 A 
ENDBRANCH  17  19
BRANCH   6  20
ATOM     20  C   UNL     1       4.630  -9.298  35.765  0.00  0.00    +0.077 A 
ATOM     26  C   UNL     1       4.199  -8.752  36.972  0.00  0.00    +0.141 A 
ATOM     27  C   UNL     1       3.843 -10.232  35.095  0.00  0.00    +0.027 A 
ATOM     30  C   UNL     1       2.974  -9.142  37.512  0.00  0.00    +0.047 A 
ATOM     31  C   UNL     1       2.617 -10.621  35.636  0.00  0.00    +0.002 A 
ATOM     32  C   UNL     1       2.183 -10.077  36.845  0.00  0.00    +0.004 A 
BRANCH  26   3
ATOM      3  O   UNL     1       4.958  -7.838  37.641  0.00  0.00    -0.493 OA
ATOM     35  C   UNL     1       4.269  -6.753  38.259  0.00  0.00    +0.277 C 
ENDBRANCH  26   3
ENDBRANCH   6  20
TORSDOF 3
ENDMDL
MODEL 9
REMARK VINA RESULT:      -6.8     28.012     30.571
REMARK  Name = 7143722
REMARK  4 active torsions:
REMARK  status: ('A' for Active; 'I' for Inactive)
REMARK    1  A    between atoms: O_3  and  C_26
REMARK    2  A    between atoms: O_3  and  C_35
REMARK    3  A    between atoms: N_6  and  C_20
REMARK    4  A    between atoms: C_17  and  C_19
REMARK                            x       y       z     vdW  Elec       q    Type
REMARK                         _______ _______ _______ _____ _____    ______ ____
ROOT
ATOM      1  O   UNL     1      18.686  -6.236  30.216  0.00  0.00    -0.267 OA
ATOM      2  O   UNL     1      19.196  -5.625  25.379  0.00  0.00    -0.252 OA
ATOM      4  N   UNL     1      17.377  -7.354  28.643  0.00  0.00    -0.311 N 
ATOM      5  N   UNL     1      17.599  -7.287  25.535  0.00  0.00    -0.284 N 
ATOM      6  N   UNL     1      16.953  -5.025  25.377  0.00  0.00    -0.266 N 
ATOM      7  C   UNL     1      18.345  -9.106  27.043  0.00  0.00    +0.027 C 
ATOM      8  C   UNL     1      15.954  -8.513  26.916  0.00  0.00    +0.054 C 
ATOM      9  C   UNL     1      16.931  -9.683  27.047  0.00  0.00    +0.018 C 
ATOM     10  C   UNL     1      18.510  -8.223  28.286  0.00  0.00    +0.130 C 
ATOM     11  C   UNL     1      18.610  -8.327  25.738  0.00  0.00    +0.114 C 
ATOM     12  C   UNL     1      16.214  -7.788  25.581  0.00  0.00    +0.119 C 
ATOM     13  C   UNL     1      16.116  -7.537  28.067  0.00  0.00    +0.027 A 
ATOM     14  C   UNL     1      15.068  -6.813  28.492  0.00  0.00    +0.022 A 
ATOM     15  C   UNL     1      17.601  -6.404  29.659  0.00  0.00    +0.259 A 
ATOM     16  C   UNL     1      18.004  -5.941  25.408  0.00  0.00    +0.307 C 
ATOM     17  C   UNL     1      16.418  -5.570  30.075  0.00  0.00    +0.047 A 
ATOM     18  C   UNL     1      15.227  -5.813  29.507  0.00  0.00    +0.015 A 
ATOM     36  H   UNL     1      16.084  -5.278  25.834  0.00  0.00    +0.156 HD
ENDROOT
BRANCH  17  19
ATOM     19  C   UNL     1      16.557  -4.498  31.073  0.00  0.00    -0.012 A 
ATOM     21  C   UNL     1      16.798  -3.186  30.661  0.00  0.00    +0.017 A 
ATOM     22  C   UNL     1      16.447  -4.790  32.429  0.00  0.00    +0.009 A 
ATOM     23  C   UNL     1      16.932  -2.151  31.601  0.00  0.00    -0.017 A 
ATOM     24  C   UNL     1      16.576  -3.775  33.377  0.00  0.00    +0.009 A 
ATOM     25  C   UNL     1      16.819  -2.450  32.979  0.00  0.00    -0.018 A 
ATOM     28  C   UNL     1      17.175  -0.827  31.202  0.00  0.00    +0.008 A 
ATOM     29  C   UNL     1      16.953  -1.416  33.920  0.00  0.00    +0.008 A 
ATOM     33  C   UNL     1      17.305   0.189  32.149  0.00  0.00    +0.001 A 
ATOM     34  C   UNL     1      17.195  -0.105  33.506  0.00  0.00    +0.001 A 
ENDBRANCH  17  19
BRANCH   6  20
ATOM     20  C   UNL     1      16.958  -3.726  24.811  0.00  0.00    +0.077 A 
ATOM     26  C   UNL     1      17.295  -2.619  25.585  0.00  0.00    +0.141 A 
ATOM     27  C   UNL     1      16.623  -3.569  23.468  0.00  0.00    +0.027 A 
ATOM     30  C   UNL     1      17.296  -1.347  25.014  0.00  0.00    +0.047 A 
ATOM     31  C   UNL     1      16.625  -2.297  22.897  0.00  0.00    +0.002 A 
ATOM     32  C   UNL     1      16.961  -1.186  23.670  0.00  0.00    +0.004 A 
BRANCH  26   3
ATOM      3  O   UNL     1      17.624  -2.755  26.902  0.00  0.00    -0.493 OA
ATOM     35  C   UNL     1      18.976  -2.480  27.262  0.00  0.00    +0.277 C 
ENDBRANCH  26   3
ENDBRANCH   6  20
TORSDOF 3
ENDMDL
MODEL 10
REMARK VINA RESULT:      -6.8      3.183      8.751
REMARK  Name = 7143722
REMARK  4 active torsions:
REMARK  status: ('A' for Active; 'I' for Inactive)
REMARK    1  A    between atoms: O_3  and  C_26
REMARK    2  A    between atoms: O_3  and  C_35
REMARK    3  A    between atoms: N_6  and  C_20
REMARK    4  A    between atoms: C_17  and  C_19
REMARK                            x       y       z     vdW  Elec       q    Type
REMARK                         _______ _______ _______ _____ _____    ______ ____
ROOT
ATOM      1  O   UNL     1       9.420   7.353   1.588  0.00  0.00    -0.267 OA
ATOM      2  O   UNL     1      11.914   9.999   4.875  0.00  0.00    -0.252 OA
ATOM      4  N   UNL     1       9.383   6.909   3.877  0.00  0.00    -0.311 N 
ATOM      5  N   UNL     1      10.722   8.517   6.187  0.00  0.00    -0.284 N 
ATOM      6  N   UNL     1      12.915   7.998   5.494  0.00  0.00    -0.266 N 
ATOM      7  C   UNL     1       8.322   8.510   5.573  0.00  0.00    +0.027 C 
ATOM      8  C   UNL     1       9.401   6.433   6.351  0.00  0.00    +0.054 C 
ATOM      9  C   UNL     1       8.110   7.253   6.413  0.00  0.00    +0.018 C 
ATOM     10  C   UNL     1       8.533   8.086   4.114  0.00  0.00    +0.130 C 
ATOM     11  C   UNL     1       9.508   9.334   6.116  0.00  0.00    +0.114 C 
ATOM     12  C   UNL     1      10.554   7.266   6.946  0.00  0.00    +0.119 C 
ATOM     13  C   UNL     1       9.734   6.048   4.922  0.00  0.00    +0.027 A 
ATOM     14  C   UNL     1      10.410   4.916   4.667  0.00  0.00    +0.022 A 
ATOM     15  C   UNL     1       9.738   6.640   2.540  0.00  0.00    +0.259 A 
ATOM     16  C   UNL     1      11.875   8.926   5.483  0.00  0.00    +0.307 C 
ATOM     17  C   UNL     1      10.543   5.392   2.294  0.00  0.00    +0.047 A 
ATOM     18  C   UNL     1      10.823   4.590   3.332  0.00  0.00    +0.015 A 
ATOM     36  H   UNL     1      12.680   7.018   5.606  0.00  0.00    +0.156 HD
ENDROOT
BRANCH  17  19
ATOM     19  C   UNL     1      11.031   5.055   0.947  0.00  0.00    -0.012 A 
ATOM     21  C   UNL     1      12.400   5.063   0.677  0.00  0.00    +0.017 A 
ATOM     22  C   UNL     1      10.127   4.726  -0.059  0.00  0.00    +0.009 A 
ATOM     23  C   UNL     1      12.882   4.743  -0.603  0.00  0.00    -0.017 A 
ATOM     24  C   UNL     1      10.587   4.405  -1.336  0.00  0.00    +0.009 A 
ATOM     25  C   UNL     1      11.962   4.409  -1.625  0.00  0.00    -0.018 A 
ATOM     28  C   UNL     1      14.257   4.748  -0.890  0.00  0.00    +0.008 A 
ATOM     29  C   UNL     1      12.443   4.089  -2.904  0.00  0.00    +0.008 A 
ATOM     33  C   UNL     1      14.718   4.427  -2.167  0.00  0.00    +0.001 A 
ATOM     34  C   UNL     1      13.813   4.099  -3.173  0.00  0.00    +0.001 A 
ENDBRANCH  17  19
BRANCH   6  20
ATOM     20  C   UNL     1      14.298   8.250   5.316  0.00  0.00    +0.077 A 
ATOM     26  C   UNL     1      14.947   9.205   6.095  0.00  0.00    +0.141 A 
ATOM     27  C   UNL     1      15.001   7.531   4.353  0.00  0.00    +0.027 A 
ATOM     30  C   UNL     1      16.309   9.442   5.909  0.00  0.00    +0.047 A 
ATOM     31  C   UNL     1      16.364   7.768   4.168  0.00  0.00    +0.002 A 
ATOM     32  C   UNL     1      17.017   8.724   4.946  0.00  0.00    +0.004 A 
BRANCH  26   3
ATOM      3  O   UNL     1      14.273   9.919   7.041  0.00  0.00    -0.493 OA
ATOM     35  C   UNL     1      14.410  11.338   7.000  0.00  0.00    +0.277 C 
ENDBRANCH  26   3
ENDBRANCH   6  20
TORSDOF 3
ENDMDL
