MODEL 1
REMARK VINA RESULT:      -6.7      0.000      0.000
REMARK  Name = 75536702
REMARK  8 active torsions:
REMARK  status: ('A' for Active; 'I' for Inactive)
REMARK    1  A    between atoms: S_1  and  N_9
REMARK    2  A    between atoms: S_1  and  C_21
REMARK    3  A    between atoms: O_5  and  C_12
REMARK    4  A    between atoms: N_8  and  C_10
REMARK    5  A    between atoms: N_8  and  C_11
REMARK    6  A    between atoms: N_9  and  C_20
REMARK    7  A    between atoms: C_13  and  C_20
REMARK    8  A    between atoms: C_26  and  C_27
REMARK                            x       y       z     vdW  Elec       q    Type
REMARK                         _______ _______ _______ _____ _____    ______ ____
ROOT
ATOM      4  O   UNL     1      10.689   8.860  20.126  0.00  0.00    -0.371 OA
ATOM     10  C   UNL     1      12.299   7.230  19.497  0.00  0.00    +0.111 C 
ATOM     12  C   UNL     1      12.136   7.209  21.006  0.00  0.00    +0.164 C 
ATOM     13  C   UNL     1      10.772   7.868  21.163  0.00  0.00    +0.164 C 
ATOM     16  C   UNL     1      11.711   8.589  19.150  0.00  0.00    +0.181 C 
ENDROOT
BRANCH  12   5
ATOM      5  O   UNL     1      12.151   5.899  21.539  0.00  0.00    -0.388 OA
ATOM     29  H   UNL     1      13.006   5.490  21.322  0.00  0.00    +0.210 HD
ENDBRANCH  12   5
BRANCH  10   8
ATOM      8  N   UNL     1      13.676   7.080  19.057  0.00  0.00    -0.306 NA
ATOM     28  H   UNL     1      13.844   7.647  18.226  0.00  0.00    +0.123 HD
BRANCH   8  11
ATOM      2  F   UNL     1      18.176   8.245  22.116  0.00  0.00    -0.206 F 
ATOM      3  F   UNL     1      18.129   7.562  20.051  0.00  0.00    -0.206 F 
ATOM     11  C   UNL     1      14.604   7.463  20.120  0.00  0.00    +0.054 C 
ATOM     14  C   UNL     1      15.510   6.276  20.472  0.00  0.00    +0.024 C 
ATOM     15  C   UNL     1      15.428   8.678  19.678  0.00  0.00    +0.024 C 
ATOM     17  C   UNL     1      16.542   6.661  21.529  0.00  0.00    +0.077 C 
ATOM     18  C   UNL     1      16.460   9.064  20.736  0.00  0.00    +0.077 C 
ATOM     19  C   UNL     1      17.340   7.883  21.110  0.00  0.00    +0.249 C 
ENDBRANCH   8  11
ENDBRANCH  10   8
BRANCH  13  20
ATOM     20  C   UNL     1      10.576   8.527  22.518  0.00  0.00    +0.140 C 
BRANCH  20   9
ATOM      9  N   UNL     1      11.776   9.311  22.866  0.00  0.00    -0.187 NA
ATOM     30  H   UNL     1      12.584   8.768  23.195  0.00  0.00    +0.148 HD
BRANCH   9   1
ATOM      1  S   UNL     1      11.618  10.924  23.386  0.00  0.00    +0.058 S 
ATOM      6  O   UNL     1      12.601  11.195  24.418  0.00  0.00    -0.153 OA
ATOM      7  O   UNL     1      10.215  11.208  23.620  0.00  0.00    -0.153 OA
BRANCH   1  21
ATOM     21  C   UNL     1      12.091  11.819  21.936  0.00  0.00    +0.105 A 
ATOM     22  C   UNL     1      11.437  13.006  21.606  0.00  0.00    +0.029 A 
ATOM     23  C   UNL     1      13.115  11.337  21.122  0.00  0.00    +0.029 A 
ATOM     24  C   UNL     1      11.808  13.711  20.461  0.00  0.00    +0.005 A 
ATOM     25  C   UNL     1      13.485  12.043  19.977  0.00  0.00    +0.005 A 
ATOM     26  C   UNL     1      12.832  13.229  19.647  0.00  0.00    -0.050 A 
ATOM     27  C   UNL     1      13.228  13.984  18.422  0.00  0.00    +0.044 C 
ENDBRANCH   1  21
ENDBRANCH   9   1
ENDBRANCH  20   9
ENDBRANCH  13  20
TORSDOF 7
ENDMDL
MODEL 2
REMARK VINA RESULT:      -6.5      2.765      3.983
REMARK  Name = 75536702
REMARK  8 active torsions:
REMARK  status: ('A' for Active; 'I' for Inactive)
REMARK    1  A    between atoms: S_1  and  N_9
REMARK    2  A    between atoms: S_1  and  C_21
REMARK    3  A    between atoms: O_5  and  C_12
REMARK    4  A    between atoms: N_8  and  C_10
REMARK    5  A    between atoms: N_8  and  C_11
REMARK    6  A    between atoms: N_9  and  C_20
REMARK    7  A    between atoms: C_13  and  C_20
REMARK    8  A    between atoms: C_26  and  C_27
REMARK                            x       y       z     vdW  Elec       q    Type
REMARK                         _______ _______ _______ _____ _____    ______ ____
ROOT
ATOM      4  O   UNL     1      10.543   8.388  19.717  0.00  0.00    -0.371 OA
ATOM     10  C   UNL     1      12.478   7.447  18.710  0.00  0.00    +0.111 C 
ATOM     12  C   UNL     1      12.666   7.474  20.215  0.00  0.00    +0.164 C 
ATOM     13  C   UNL     1      11.224   7.579  20.690  0.00  0.00    +0.164 C 
ATOM     16  C   UNL     1      11.353   8.454  18.530  0.00  0.00    +0.181 C 
ENDROOT
BRANCH  12   5
ATOM      5  O   UNL     1      13.300   6.309  20.707  0.00  0.00    -0.388 OA
ATOM     29  H   UNL     1      14.088   6.137  20.166  0.00  0.00    +0.210 HD
ENDBRANCH  12   5
BRANCH  10   8
ATOM      8  N   UNL     1      13.676   7.797  17.965  0.00  0.00    -0.306 NA
ATOM     28  H   UNL     1      13.797   7.164  17.175  0.00  0.00    +0.123 HD
BRANCH   8  11
ATOM      2  F   UNL     1      14.732  12.788  15.743  0.00  0.00    -0.206 F 
ATOM      3  F   UNL     1      16.074  11.079  15.837  0.00  0.00    -0.206 F 
ATOM     11  C   UNL     1      13.606   9.179  17.491  0.00  0.00    +0.054 C 
ATOM     14  C   UNL     1      14.668  10.027  18.204  0.00  0.00    +0.024 C 
ATOM     15  C   UNL     1      13.794   9.217  15.970  0.00  0.00    +0.024 C 
ATOM     17  C   UNL     1      14.673  11.462  17.682  0.00  0.00    +0.077 C 
ATOM     18  C   UNL     1      13.799  10.653  15.448  0.00  0.00    +0.077 C 
ATOM     19  C   UNL     1      14.828  11.504  16.171  0.00  0.00    +0.249 C 
ENDBRANCH   8  11
ENDBRANCH  10   8
BRANCH  13  20
ATOM     20  C   UNL     1      11.088   8.209  22.066  0.00  0.00    +0.140 C 
BRANCH  20   9
ATOM      9  N   UNL     1      12.369   8.829  22.455  0.00  0.00    -0.187 NA
ATOM     30  H   UNL     1      12.921   8.314  23.153  0.00  0.00    +0.148 HD
BRANCH   9   1
ATOM      1  S   UNL     1      12.564  10.516  22.352  0.00  0.00    +0.058 S 
ATOM      6  O   UNL     1      12.404  11.100  23.671  0.00  0.00    -0.153 OA
ATOM      7  O   UNL     1      11.785  11.014  21.234  0.00  0.00    -0.153 OA
BRANCH   1  21
ATOM     21  C   UNL     1      14.267  10.657  21.897  0.00  0.00    +0.105 A 
ATOM     22  C   UNL     1      14.776  11.885  21.475  0.00  0.00    +0.029 A 
ATOM     23  C   UNL     1      15.099   9.540  21.958  0.00  0.00    +0.029 A 
ATOM     24  C   UNL     1      16.119  11.995  21.113  0.00  0.00    +0.005 A 
ATOM     25  C   UNL     1      16.442   9.651  21.596  0.00  0.00    +0.005 A 
ATOM     26  C   UNL     1      16.951  10.878  21.174  0.00  0.00    -0.050 A 
ATOM     27  C   UNL     1      18.387  10.997  20.786  0.00  0.00    +0.044 C 
ENDBRANCH   1  21
ENDBRANCH   9   1
ENDBRANCH  20   9
ENDBRANCH  13  20
TORSDOF 7
ENDMDL
MODEL 3
REMARK VINA RESULT:      -6.4     26.619     28.288
REMARK  Name = 75536702
REMARK  8 active torsions:
REMARK  status: ('A' for Active; 'I' for Inactive)
REMARK    1  A    between atoms: S_1  and  N_9
REMARK    2  A    between atoms: S_1  and  C_21
REMARK    3  A    between atoms: O_5  and  C_12
REMARK    4  A    between atoms: N_8  and  C_10
REMARK    5  A    between atoms: N_8  and  C_11
REMARK    6  A    between atoms: N_9  and  C_20
REMARK    7  A    between atoms: C_13  and  C_20
REMARK    8  A    between atoms: C_26  and  C_27
REMARK                            x       y       z     vdW  Elec       q    Type
REMARK                         _______ _______ _______ _____ _____    ______ ____
ROOT
ATOM      4  O   UNL     1      -1.934 -10.885  16.475  0.00  0.00    -0.371 OA
ATOM     10  C   UNL     1      -2.562 -11.209  14.207  0.00  0.00    +0.111 C 
ATOM     12  C   UNL     1      -3.781 -11.400  15.091  0.00  0.00    +0.164 C 
ATOM     13  C   UNL     1      -3.349 -10.663  16.351  0.00  0.00    +0.164 C 
ATOM     16  C   UNL     1      -1.434 -11.363  15.214  0.00  0.00    +0.181 C 
ENDROOT
BRANCH  12   5
ATOM      5  O   UNL     1      -4.955 -10.844  14.531  0.00  0.00    -0.388 OA
ATOM     29  H   UNL     1      -5.073 -11.211  13.640  0.00  0.00    +0.210 HD
ENDBRANCH  12   5
BRANCH  10   8
ATOM      8  N   UNL     1      -2.479 -12.162  13.113  0.00  0.00    -0.306 NA
ATOM     28  H   UNL     1      -3.237 -12.841  13.179  0.00  0.00    +0.123 HD
BRANCH   8  11
ATOM      2  F   UNL     1      -3.618  -8.731   8.883  0.00  0.00    -0.206 F 
ATOM      3  F   UNL     1      -4.449  -8.664  10.892  0.00  0.00    -0.206 F 
ATOM     11  C   UNL     1      -2.534 -11.476  11.824  0.00  0.00    +0.054 C 
ATOM     14  C   UNL     1      -3.958 -11.547  11.257  0.00  0.00    +0.024 C 
ATOM     15  C   UNL     1      -2.075 -10.022  11.987  0.00  0.00    +0.024 C 
ATOM     17  C   UNL     1      -4.072 -10.778   9.943  0.00  0.00    +0.077 C 
ATOM     18  C   UNL     1      -2.187  -9.253  10.672  0.00  0.00    +0.077 C 
ATOM     19  C   UNL     1      -3.588  -9.346  10.092  0.00  0.00    +0.249 C 
ENDBRANCH   8  11
ENDBRANCH  10   8
BRANCH  13  20
ATOM     20  C   UNL     1      -4.056 -11.150  17.604  0.00  0.00    +0.140 C 
BRANCH  20   9
ATOM      9  N   UNL     1      -5.419 -10.586  17.655  0.00  0.00    -0.187 NA
ATOM     30  H   UNL     1      -5.512  -9.614  17.334  0.00  0.00    +0.148 HD
BRANCH   9   1
ATOM      1  S   UNL     1      -6.544 -11.178  18.786  0.00  0.00    +0.058 S 
ATOM      6  O   UNL     1      -6.176 -10.721  20.113  0.00  0.00    -0.153 OA
ATOM      7  O   UNL     1      -6.767 -12.589  18.536  0.00  0.00    -0.153 OA
BRANCH   1  21
ATOM     21  C   UNL     1      -8.019 -10.329  18.308  0.00  0.00    +0.105 A 
ATOM     22  C   UNL     1      -9.248 -10.710  18.845  0.00  0.00    +0.029 A 
ATOM     23  C   UNL     1      -7.954  -9.280  17.392  0.00  0.00    +0.029 A 
ATOM     24  C   UNL     1     -10.412 -10.042  18.466  0.00  0.00    +0.005 A 
ATOM     25  C   UNL     1      -9.118  -8.612  17.013  0.00  0.00    +0.005 A 
ATOM     26  C   UNL     1     -10.347  -8.993  17.550  0.00  0.00    -0.050 A 
ATOM     27  C   UNL     1     -11.593  -8.280  17.144  0.00  0.00    +0.044 C 
ENDBRANCH   1  21
ENDBRANCH   9   1
ENDBRANCH  20   9
ENDBRANCH  13  20
TORSDOF 7
ENDMDL
MODEL 4
REMARK VINA RESULT:      -6.4      2.609      3.478
REMARK  Name = 75536702
REMARK  8 active torsions:
REMARK  status: ('A' for Active; 'I' for Inactive)
REMARK    1  A    between atoms: S_1  and  N_9
REMARK    2  A    between atoms: S_1  and  C_21
REMARK    3  A    between atoms: O_5  and  C_12
REMARK    4  A    between atoms: N_8  and  C_10
REMARK    5  A    between atoms: N_8  and  C_11
REMARK    6  A    between atoms: N_9  and  C_20
REMARK    7  A    between atoms: C_13  and  C_20
REMARK    8  A    between atoms: C_26  and  C_27
REMARK                            x       y       z     vdW  Elec       q    Type
REMARK                         _______ _______ _______ _____ _____    ______ ____
ROOT
ATOM      4  O   UNL     1      10.875   7.877  21.087  0.00  0.00    -0.371 OA
ATOM     10  C   UNL     1      13.201   7.678  20.651  0.00  0.00    +0.111 C 
ATOM     12  C   UNL     1      12.974   8.824  21.620  0.00  0.00    +0.164 C 
ATOM     13  C   UNL     1      11.601   8.473  22.174  0.00  0.00    +0.164 C 
ATOM     16  C   UNL     1      11.812   7.504  20.060  0.00  0.00    +0.181 C 
ENDROOT
BRANCH  12   5
ATOM      5  O   UNL     1      13.955   8.881  22.638  0.00  0.00    -0.388 OA
ATOM     29  H   UNL     1      14.202   7.972  22.876  0.00  0.00    +0.210 HD
ENDBRANCH  12   5
BRANCH  10   8
ATOM      8  N   UNL     1      14.214   7.954  19.646  0.00  0.00    -0.306 NA
ATOM     28  H   UNL     1      14.586   7.082  19.272  0.00  0.00    +0.123 HD
BRANCH   8  11
ATOM      2  F   UNL     1      13.470  11.182  15.176  0.00  0.00    -0.206 F 
ATOM      3  F   UNL     1      15.358  10.457  15.976  0.00  0.00    -0.206 F 
ATOM     11  C   UNL     1      13.661   8.766  18.564  0.00  0.00    +0.054 C 
ATOM     14  C   UNL     1      14.190  10.203  18.670  0.00  0.00    +0.024 C 
ATOM     15  C   UNL     1      14.018   8.142  17.210  0.00  0.00    +0.024 C 
ATOM     17  C   UNL     1      13.690  11.064  17.512  0.00  0.00    +0.077 C 
ATOM     18  C   UNL     1      13.517   9.003  16.052  0.00  0.00    +0.077 C 
ATOM     19  C   UNL     1      14.014  10.434  16.168  0.00  0.00    +0.249 C 
ENDBRANCH   8  11
ENDBRANCH  10   8
BRANCH  13  20
ATOM     20  C   UNL     1      10.839   9.678  22.699  0.00  0.00    +0.140 C 
BRANCH  20   9
ATOM      9  N   UNL     1      11.355  10.048  24.032  0.00  0.00    -0.187 NA
ATOM     30  H   UNL     1      11.202   9.356  24.776  0.00  0.00    +0.148 HD
BRANCH   9   1
ATOM      1  S   UNL     1      11.498  11.687  24.465  0.00  0.00    +0.058 S 
ATOM      6  O   UNL     1      12.631  11.851  25.356  0.00  0.00    -0.153 OA
ATOM      7  O   UNL     1      10.191  12.190  24.845  0.00  0.00    -0.153 OA
BRANCH   1  21
ATOM     21  C   UNL     1      11.909  12.436  22.917  0.00  0.00    +0.105 A 
ATOM     22  C   UNL     1      13.212  12.354  22.427  0.00  0.00    +0.029 A 
ATOM     23  C   UNL     1      10.930  13.110  22.187  0.00  0.00    +0.029 A 
ATOM     24  C   UNL     1      13.537  12.947  21.207  0.00  0.00    +0.005 A 
ATOM     25  C   UNL     1      11.256  13.703  20.967  0.00  0.00    +0.005 A 
ATOM     26  C   UNL     1      12.558  13.621  20.477  0.00  0.00    -0.050 A 
ATOM     27  C   UNL     1      12.907  14.255  19.173  0.00  0.00    +0.044 C 
ENDBRANCH   1  21
ENDBRANCH   9   1
ENDBRANCH  20   9
ENDBRANCH  13  20
TORSDOF 7
ENDMDL
MODEL 5
REMARK VINA RESULT:      -6.3     26.430     28.632
REMARK  Name = 75536702
REMARK  8 active torsions:
REMARK  status: ('A' for Active; 'I' for Inactive)
REMARK    1  A    between atoms: S_1  and  N_9
REMARK    2  A    between atoms: S_1  and  C_21
REMARK    3  A    between atoms: O_5  and  C_12
REMARK    4  A    between atoms: N_8  and  C_10
REMARK    5  A    between atoms: N_8  and  C_11
REMARK    6  A    between atoms: N_9  and  C_20
REMARK    7  A    between atoms: C_13  and  C_20
REMARK    8  A    between atoms: C_26  and  C_27
REMARK                            x       y       z     vdW  Elec       q    Type
REMARK                         _______ _______ _______ _____ _____    ______ ____
ROOT
ATOM      4  O   UNL     1      -5.237 -12.426  18.578  0.00  0.00    -0.371 OA
ATOM     10  C   UNL     1      -4.674 -11.641  16.408  0.00  0.00    +0.111 C 
ATOM     12  C   UNL     1      -5.411 -10.545  17.156  0.00  0.00    +0.164 C 
ATOM     13  C   UNL     1      -5.213 -10.989  18.598  0.00  0.00    +0.164 C 
ATOM     16  C   UNL     1      -5.055 -12.868  17.221  0.00  0.00    +0.181 C 
ENDROOT
BRANCH  12   5
ATOM      5  O   UNL     1      -4.865  -9.261  16.921  0.00  0.00    -0.388 OA
ATOM     29  H   UNL     1      -5.598  -8.633  16.807  0.00  0.00    +0.210 HD
ENDBRANCH  12   5
BRANCH  10   8
ATOM      8  N   UNL     1      -5.052 -11.749  15.009  0.00  0.00    -0.306 NA
ATOM     28  H   UNL     1      -6.033 -11.501  14.889  0.00  0.00    +0.123 HD
BRANCH   8  11
ATOM      2  F   UNL     1      -1.243  -9.686  11.516  0.00  0.00    -0.206 F 
ATOM      3  F   UNL     1      -1.529 -11.770  12.069  0.00  0.00    -0.206 F 
ATOM     11  C   UNL     1      -4.214 -10.885  14.178  0.00  0.00    +0.054 C 
ATOM     14  C   UNL     1      -2.752 -10.985  14.633  0.00  0.00    +0.024 C 
ATOM     15  C   UNL     1      -4.364 -11.277  12.703  0.00  0.00    +0.024 C 
ATOM     17  C   UNL     1      -1.835 -10.150  13.742  0.00  0.00    +0.077 C 
ATOM     18  C   UNL     1      -3.447 -10.441  11.811  0.00  0.00    +0.077 C 
ATOM     19  C   UNL     1      -2.003 -10.513  12.276  0.00  0.00    +0.249 C 
ENDBRANCH   8  11
ENDBRANCH  10   8
BRANCH  13  20
ATOM     20  C   UNL     1      -6.287 -10.472  19.539  0.00  0.00    +0.140 C 
BRANCH  20   9
ATOM      9  N   UNL     1      -7.404  -9.911  18.754  0.00  0.00    -0.187 NA
ATOM     30  H   UNL     1      -7.380  -8.895  18.606  0.00  0.00    +0.148 HD
BRANCH   9   1
ATOM      1  S   UNL     1      -8.914 -10.696  18.742  0.00  0.00    +0.058 S 
ATOM      6  O   UNL     1      -9.400 -10.825  20.103  0.00  0.00    -0.153 OA
ATOM      7  O   UNL     1      -8.834 -11.861  17.882  0.00  0.00    -0.153 OA
BRANCH   1  21
ATOM     21  C   UNL     1      -9.931  -9.512  17.912  0.00  0.00    +0.105 A 
ATOM     22  C   UNL     1      -9.350  -8.400  17.302  0.00  0.00    +0.029 A 
ATOM     23  C   UNL     1     -11.314  -9.688  17.868  0.00  0.00    +0.029 A 
ATOM     24  C   UNL     1     -10.152  -7.465  16.648  0.00  0.00    +0.005 A 
ATOM     25  C   UNL     1     -12.115  -8.752  17.215  0.00  0.00    +0.005 A 
ATOM     26  C   UNL     1     -11.534  -7.641  16.605  0.00  0.00    -0.050 A 
ATOM     27  C   UNL     1     -12.391  -6.639  15.906  0.00  0.00    +0.044 C 
ENDBRANCH   1  21
ENDBRANCH   9   1
ENDBRANCH  20   9
ENDBRANCH  13  20
TORSDOF 7
ENDMDL
MODEL 6
REMARK VINA RESULT:      -6.2      2.076      2.691
REMARK  Name = 75536702
REMARK  8 active torsions:
REMARK  status: ('A' for Active; 'I' for Inactive)
REMARK    1  A    between atoms: S_1  and  N_9
REMARK    2  A    between atoms: S_1  and  C_21
REMARK    3  A    between atoms: O_5  and  C_12
REMARK    4  A    between atoms: N_8  and  C_10
REMARK    5  A    between atoms: N_8  and  C_11
REMARK    6  A    between atoms: N_9  and  C_20
REMARK    7  A    between atoms: C_13  and  C_20
REMARK    8  A    between atoms: C_26  and  C_27
REMARK                            x       y       z     vdW  Elec       q    Type
REMARK                         _______ _______ _______ _____ _____    ______ ____
ROOT
ATOM      4  O   UNL     1      12.262   7.109  20.041  0.00  0.00    -0.371 OA
ATOM     10  C   UNL     1      14.606   6.834  20.316  0.00  0.00    +0.111 C 
ATOM     12  C   UNL     1      14.057   7.620  21.493  0.00  0.00    +0.164 C 
ATOM     13  C   UNL     1      12.583   7.245  21.436  0.00  0.00    +0.164 C 
ATOM     16  C   UNL     1      13.489   7.001  19.298  0.00  0.00    +0.181 C 
ENDROOT
BRANCH  12   5
ATOM      5  O   UNL     1      14.648   7.245  22.723  0.00  0.00    -0.388 OA
ATOM     29  H   UNL     1      14.016   6.692  23.211  0.00  0.00    +0.210 HD
ENDBRANCH  12   5
BRANCH  10   8
ATOM      8  N   UNL     1      15.888   7.321  19.835  0.00  0.00    -0.306 NA
ATOM     28  H   UNL     1      15.991   8.313  20.049  0.00  0.00    +0.123 HD
BRANCH   8  11
ATOM      2  F   UNL     1      20.858   5.364  21.393  0.00  0.00    -0.206 F 
ATOM      3  F   UNL     1      20.461   7.046  20.072  0.00  0.00    -0.206 F 
ATOM     11  C   UNL     1      16.986   6.565  20.434  0.00  0.00    +0.054 C 
ATOM     14  C   UNL     1      17.838   5.924  19.331  0.00  0.00    +0.024 C 
ATOM     15  C   UNL     1      17.830   7.487  21.322  0.00  0.00    +0.024 C 
ATOM     17  C   UNL     1      19.039   5.184  19.917  0.00  0.00    +0.077 C 
ATOM     18  C   UNL     1      19.031   6.748  21.909  0.00  0.00    +0.077 C 
ATOM     19  C   UNL     1      19.861   6.086  20.822  0.00  0.00    +0.249 C 
ENDBRANCH   8  11
ENDBRANCH  10   8
BRANCH  13  20
ATOM     20  C   UNL     1      11.674   8.282  22.072  0.00  0.00    +0.140 C 
BRANCH  20   9
ATOM      9  N   UNL     1      11.495   9.418  21.147  0.00  0.00    -0.187 NA
ATOM     30  H   UNL     1      11.411   9.174  20.152  0.00  0.00    +0.148 HD
BRANCH   9   1
ATOM      1  S   UNL     1      12.104  10.954  21.556  0.00  0.00    +0.058 S 
ATOM      6  O   UNL     1      13.162  10.805  22.537  0.00  0.00    -0.153 OA
ATOM      7  O   UNL     1      10.991  11.849  21.812  0.00  0.00    -0.153 OA
BRANCH   1  21
ATOM     21  C   UNL     1      12.840  11.469  20.034  0.00  0.00    +0.105 A 
ATOM     22  C   UNL     1      13.199  10.519  19.077  0.00  0.00    +0.029 A 
ATOM     23  C   UNL     1      13.064  12.823  19.791  0.00  0.00    +0.029 A 
ATOM     24  C   UNL     1      13.782  10.925  17.877  0.00  0.00    +0.005 A 
ATOM     25  C   UNL     1      13.648  13.229  18.590  0.00  0.00    +0.005 A 
ATOM     26  C   UNL     1      14.006  12.280  17.634  0.00  0.00    -0.050 A 
ATOM     27  C   UNL     1      14.631  12.713  16.350  0.00  0.00    +0.044 C 
ENDBRANCH   1  21
ENDBRANCH   9   1
ENDBRANCH  20   9
ENDBRANCH  13  20
TORSDOF 7
ENDMDL
MODEL 7
REMARK VINA RESULT:      -6.2      4.340      6.917
REMARK  Name = 75536702
REMARK  8 active torsions:
REMARK  status: ('A' for Active; 'I' for Inactive)
REMARK    1  A    between atoms: S_1  and  N_9
REMARK    2  A    between atoms: S_1  and  C_21
REMARK    3  A    between atoms: O_5  and  C_12
REMARK    4  A    between atoms: N_8  and  C_10
REMARK    5  A    between atoms: N_8  and  C_11
REMARK    6  A    between atoms: N_9  and  C_20
REMARK    7  A    between atoms: C_13  and  C_20
REMARK    8  A    between atoms: C_26  and  C_27
REMARK                            x       y       z     vdW  Elec       q    Type
REMARK                         _______ _______ _______ _____ _____    ______ ____
ROOT
ATOM      4  O   UNL     1      12.332   8.883  15.795  0.00  0.00    -0.371 OA
ATOM     10  C   UNL     1      13.783  10.711  16.238  0.00  0.00    +0.111 C 
ATOM     12  C   UNL     1      13.288  10.141  17.555  0.00  0.00    +0.164 C 
ATOM     13  C   UNL     1      12.856   8.745  17.126  0.00  0.00    +0.164 C 
ATOM     16  C   UNL     1      12.759  10.150  15.264  0.00  0.00    +0.181 C 
ENDROOT
BRANCH  12   5
ATOM      5  O   UNL     1      14.297  10.099  18.546  0.00  0.00    -0.388 OA
ATOM     29  H   UNL     1      13.874   9.947  19.407  0.00  0.00    +0.210 HD
ENDBRANCH  12   5
BRANCH  10   8
ATOM      8  N   UNL     1      13.848  12.163  16.218  0.00  0.00    -0.306 NA
ATOM     28  H   UNL     1      13.960  12.523  17.166  0.00  0.00    +0.123 HD
BRANCH   8  11
ATOM      2  F   UNL     1      17.625  12.838  12.189  0.00  0.00    -0.206 F 
ATOM      3  F   UNL     1      16.058  11.332  12.286  0.00  0.00    -0.206 F 
ATOM     11  C   UNL     1      14.951  12.621  15.376  0.00  0.00    +0.054 C 
ATOM     14  C   UNL     1      15.990  11.502  15.227  0.00  0.00    +0.024 C 
ATOM     15  C   UNL     1      14.413  13.064  14.010  0.00  0.00    +0.024 C 
ATOM     17  C   UNL     1      17.125  11.920  14.293  0.00  0.00    +0.077 C 
ATOM     18  C   UNL     1      15.547  13.482  13.076  0.00  0.00    +0.077 C 
ATOM     19  C   UNL     1      16.594  12.389  12.949  0.00  0.00    +0.249 C 
ENDBRANCH   8  11
ENDBRANCH  10   8
BRANCH  13  20
ATOM     20  C   UNL     1      11.798   8.139  18.033  0.00  0.00    +0.140 C 
BRANCH  20   9
ATOM      9  N   UNL     1      12.399   7.063  18.844  0.00  0.00    -0.187 NA
ATOM     30  H   UNL     1      12.122   6.106  18.591  0.00  0.00    +0.148 HD
BRANCH   9   1
ATOM      1  S   UNL     1      12.878   7.370  20.447  0.00  0.00    +0.058 S 
ATOM      6  O   UNL     1      12.257   6.400  21.329  0.00  0.00    -0.153 OA
ATOM      7  O   UNL     1      12.746   8.790  20.714  0.00  0.00    -0.153 OA
BRANCH   1  21
ATOM     21  C   UNL     1      14.609   7.017  20.382  0.00  0.00    +0.105 A 
ATOM     22  C   UNL     1      15.188   6.588  19.188  0.00  0.00    +0.029 A 
ATOM     23  C   UNL     1      15.395   7.165  21.524  0.00  0.00    +0.029 A 
ATOM     24  C   UNL     1      16.553   6.307  19.136  0.00  0.00    +0.005 A 
ATOM     25  C   UNL     1      16.760   6.884  21.472  0.00  0.00    +0.005 A 
ATOM     26  C   UNL     1      17.339   6.455  20.279  0.00  0.00    -0.050 A 
ATOM     27  C   UNL     1      18.799   6.153  20.224  0.00  0.00    +0.044 C 
ENDBRANCH   1  21
ENDBRANCH   9   1
ENDBRANCH  20   9
ENDBRANCH  13  20
TORSDOF 7
ENDMDL
MODEL 8
REMARK VINA RESULT:      -6.1      5.081      7.359
REMARK  Name = 75536702
REMARK  8 active torsions:
REMARK  status: ('A' for Active; 'I' for Inactive)
REMARK    1  A    between atoms: S_1  and  N_9
REMARK    2  A    between atoms: S_1  and  C_21
REMARK    3  A    between atoms: O_5  and  C_12
REMARK    4  A    between atoms: N_8  and  C_10
REMARK    5  A    between atoms: N_8  and  C_11
REMARK    6  A    between atoms: N_9  and  C_20
REMARK    7  A    between atoms: C_13  and  C_20
REMARK    8  A    between atoms: C_26  and  C_27
REMARK                            x       y       z     vdW  Elec       q    Type
REMARK                         _______ _______ _______ _____ _____    ______ ____
ROOT
ATOM      4  O   UNL     1      13.852  11.773  17.263  0.00  0.00    -0.371 OA
ATOM     10  C   UNL     1      14.378  10.684  15.218  0.00  0.00    +0.111 C 
ATOM     12  C   UNL     1      14.275   9.646  16.321  0.00  0.00    +0.164 C 
ATOM     13  C   UNL     1      13.448  10.396  17.355  0.00  0.00    +0.164 C 
ATOM     16  C   UNL     1      14.559  11.960  16.024  0.00  0.00    +0.181 C 
ENDROOT
BRANCH  12   5
ATOM      5  O   UNL     1      13.634   8.458  15.895  0.00  0.00    -0.388 OA
ATOM     29  H   UNL     1      12.715   8.672  15.665  0.00  0.00    +0.210 HD
ENDBRANCH  12   5
BRANCH  10   8
ATOM      8  N   UNL     1      15.469  10.441  14.289  0.00  0.00    -0.306 NA
ATOM     28  H   UNL     1      15.116   9.998  13.441  0.00  0.00    +0.123 HD
BRANCH   8  11
ATOM      2  F   UNL     1      18.877  14.335  12.244  0.00  0.00    -0.206 F 
ATOM      3  F   UNL     1      18.945  12.195  11.863  0.00  0.00    -0.206 F 
ATOM     11  C   UNL     1      16.149  11.690  13.952  0.00  0.00    +0.054 C 
ATOM     14  C   UNL     1      17.607  11.633  14.427  0.00  0.00    +0.024 C 
ATOM     15  C   UNL     1      16.068  11.937  12.441  0.00  0.00    +0.024 C 
ATOM     17  C   UNL     1      18.371  12.894  14.029  0.00  0.00    +0.077 C 
ATOM     18  C   UNL     1      16.831  13.199  12.043  0.00  0.00    +0.077 C 
ATOM     19  C   UNL     1      18.267  13.159  12.537  0.00  0.00    +0.249 C 
ENDBRANCH   8  11
ENDBRANCH  10   8
BRANCH  13  20
ATOM     20  C   UNL     1      13.660   9.894  18.773  0.00  0.00    +0.140 C 
BRANCH  20   9
ATOM      9  N   UNL     1      12.475   9.130  19.209  0.00  0.00    -0.187 NA
ATOM     30  H   UNL     1      11.866   9.600  19.890  0.00  0.00    +0.148 HD
BRANCH   9   1
ATOM      1  S   UNL     1      12.505   7.428  19.190  0.00  0.00    +0.058 S 
ATOM      6  O   UNL     1      12.343   6.960  17.826  0.00  0.00    -0.153 OA
ATOM      7  O   UNL     1      11.638   6.929  20.240  0.00  0.00    -0.153 OA
BRANCH   1  21
ATOM     21  C   UNL     1      14.167   7.090  19.689  0.00  0.00    +0.105 A 
ATOM     22  C   UNL     1      14.520   7.168  21.035  0.00  0.00    +0.029 A 
ATOM     23  C   UNL     1      15.125   6.746  18.735  0.00  0.00    +0.029 A 
ATOM     24  C   UNL     1      15.832   6.903  21.429  0.00  0.00    +0.005 A 
ATOM     25  C   UNL     1      16.437   6.482  19.129  0.00  0.00    +0.005 A 
ATOM     26  C   UNL     1      16.790   6.560  20.475  0.00  0.00    -0.050 A 
ATOM     27  C   UNL     1      18.193   6.278  20.897  0.00  0.00    +0.044 C 
ENDBRANCH   1  21
ENDBRANCH   9   1
ENDBRANCH  20   9
ENDBRANCH  13  20
TORSDOF 7
ENDMDL
MODEL 9
REMARK VINA RESULT:      -6.1     27.591     29.058
REMARK  Name = 75536702
REMARK  8 active torsions:
REMARK  status: ('A' for Active; 'I' for Inactive)
REMARK    1  A    between atoms: S_1  and  N_9
REMARK    2  A    between atoms: S_1  and  C_21
REMARK    3  A    between atoms: O_5  and  C_12
REMARK    4  A    between atoms: N_8  and  C_10
REMARK    5  A    between atoms: N_8  and  C_11
REMARK    6  A    between atoms: N_9  and  C_20
REMARK    7  A    between atoms: C_13  and  C_20
REMARK    8  A    between atoms: C_26  and  C_27
REMARK                            x       y       z     vdW  Elec       q    Type
REMARK                         _______ _______ _______ _____ _____    ______ ____
ROOT
ATOM      4  O   UNL     1      -6.583 -12.199  12.425  0.00  0.00    -0.371 OA
ATOM     10  C   UNL     1      -6.026 -10.570  14.061  0.00  0.00    +0.111 C 
ATOM     12  C   UNL     1      -6.166  -9.890  12.711  0.00  0.00    +0.164 C 
ATOM     13  C   UNL     1      -7.006 -10.909  11.954  0.00  0.00    +0.164 C 
ATOM     16  C   UNL     1      -5.847 -12.022  13.648  0.00  0.00    +0.181 C 
ENDROOT
BRANCH  12   5
ATOM      5  O   UNL     1      -6.812  -8.634  12.797  0.00  0.00    -0.388 OA
ATOM     29  H   UNL     1      -6.238  -7.966  12.386  0.00  0.00    +0.210 HD
ENDBRANCH  12   5
BRANCH  10   8
ATOM      8  N   UNL     1      -4.918 -10.067  14.856  0.00  0.00    -0.306 NA
ATOM     28  H   UNL     1      -4.562  -9.199  14.455  0.00  0.00    +0.123 HD
BRANCH   8  11
ATOM      2  F   UNL     1      -7.091 -10.486  19.961  0.00  0.00    -0.206 F 
ATOM      3  F   UNL     1      -7.221 -11.944  18.352  0.00  0.00    -0.206 F 
ATOM     11  C   UNL     1      -5.334  -9.843  16.239  0.00  0.00    +0.054 C 
ATOM     14  C   UNL     1      -6.865  -9.832  16.327  0.00  0.00    +0.024 C 
ATOM     15  C   UNL     1      -4.734 -10.925  17.145  0.00  0.00    +0.024 C 
ATOM     17  C   UNL     1      -7.337  -9.672  17.771  0.00  0.00    +0.077 C 
ATOM     18  C   UNL     1      -5.205 -10.765  18.589  0.00  0.00    +0.077 C 
ATOM     19  C   UNL     1      -6.721 -10.723  18.677  0.00  0.00    +0.249 C 
ENDBRANCH   8  11
ENDBRANCH  10   8
BRANCH  13  20
ATOM     20  C   UNL     1      -6.832 -10.830  10.447  0.00  0.00    +0.140 C 
BRANCH  20   9
ATOM      9  N   UNL     1      -5.893  -9.742  10.113  0.00  0.00    -0.187 NA
ATOM     30  H   UNL     1      -6.316  -8.818   9.963  0.00  0.00    +0.148 HD
BRANCH   9   1
ATOM      1  S   UNL     1      -4.421 -10.096   9.335  0.00  0.00    +0.058 S 
ATOM      6  O   UNL     1      -3.711  -8.860   9.065  0.00  0.00    -0.153 OA
ATOM      7  O   UNL     1      -4.670 -11.043   8.265  0.00  0.00    -0.153 OA
BRANCH   1  21
ATOM     21  C   UNL     1      -3.543 -10.965  10.599  0.00  0.00    +0.105 A 
ATOM     22  C   UNL     1      -3.613 -12.357  10.665  0.00  0.00    +0.029 A 
ATOM     23  C   UNL     1      -2.782 -10.259  11.531  0.00  0.00    +0.029 A 
ATOM     24  C   UNL     1      -2.921 -13.042  11.664  0.00  0.00    +0.005 A 
ATOM     25  C   UNL     1      -2.091 -10.946  12.529  0.00  0.00    +0.005 A 
ATOM     26  C   UNL     1      -2.161 -12.337  12.596  0.00  0.00    -0.050 A 
ATOM     27  C   UNL     1      -1.422 -13.071  13.664  0.00  0.00    +0.044 C 
ENDBRANCH   1  21
ENDBRANCH   9   1
ENDBRANCH  20   9
ENDBRANCH  13  20
TORSDOF 7
ENDMDL
MODEL 10
REMARK VINA RESULT:      -6.1     27.007     29.169
REMARK  Name = 75536702
REMARK  8 active torsions:
REMARK  status: ('A' for Active; 'I' for Inactive)
REMARK    1  A    between atoms: S_1  and  N_9
REMARK    2  A    between atoms: S_1  and  C_21
REMARK    3  A    between atoms: O_5  and  C_12
REMARK    4  A    between atoms: N_8  and  C_10
REMARK    5  A    between atoms: N_8  and  C_11
REMARK    6  A    between atoms: N_9  and  C_20
REMARK    7  A    between atoms: C_13  and  C_20
REMARK    8  A    between atoms: C_26  and  C_27
REMARK                            x       y       z     vdW  Elec       q    Type
REMARK                         _______ _______ _______ _____ _____    ______ ____
ROOT
ATOM      4  O   UNL     1      -5.390  -9.833  15.827  0.00  0.00    -0.371 OA
ATOM     10  C   UNL     1      -7.066 -10.291  17.447  0.00  0.00    +0.111 C 
ATOM     12  C   UNL     1      -5.781 -10.992  17.850  0.00  0.00    +0.164 C 
ATOM     13  C   UNL     1      -4.752 -10.194  17.063  0.00  0.00    +0.164 C 
ATOM     16  C   UNL     1      -6.809 -10.019  15.973  0.00  0.00    +0.181 C 
ENDROOT
BRANCH  12   5
ATOM      5  O   UNL     1      -5.541 -10.932  19.243  0.00  0.00    -0.388 OA
ATOM     29  H   UNL     1      -5.916 -10.102  19.583  0.00  0.00    +0.210 HD
ENDBRANCH  12   5
BRANCH  10   8
ATOM      8  N   UNL     1      -8.261 -11.086  17.676  0.00  0.00    -0.306 NA
ATOM     28  H   UNL     1      -8.033 -11.913  18.227  0.00  0.00    +0.123 HD
BRANCH   8  11
ATOM      2  F   UNL     1     -12.942  -9.232  20.045  0.00  0.00    -0.206 F 
ATOM      3  F   UNL     1     -12.619 -11.168  19.107  0.00  0.00    -0.206 F 
ATOM     11  C   UNL     1      -9.284 -10.297  18.359  0.00  0.00    +0.054 C 
ATOM     14  C   UNL     1     -10.472 -10.060  17.418  0.00  0.00    +0.024 C 
ATOM     15  C   UNL     1      -9.725 -11.014  19.640  0.00  0.00    +0.024 C 
ATOM     17  C   UNL     1     -11.594  -9.299  18.121  0.00  0.00    +0.077 C 
ATOM     18  C   UNL     1     -10.847 -10.253  20.345  0.00  0.00    +0.077 C 
ATOM     19  C   UNL     1     -12.013  -9.989  19.408  0.00  0.00    +0.249 C 
ENDBRANCH   8  11
ENDBRANCH  10   8
BRANCH  13  20
ATOM     20  C   UNL     1      -3.480 -10.973  16.774  0.00  0.00    +0.140 C 
BRANCH  20   9
ATOM      9  N   UNL     1      -3.438 -11.340  15.345  0.00  0.00    -0.187 NA
ATOM     30  H   UNL     1      -4.088 -12.082  15.056  0.00  0.00    +0.148 HD
BRANCH   9   1
ATOM      1  S   UNL     1      -2.006 -11.124  14.452  0.00  0.00    +0.058 S 
ATOM      6  O   UNL     1      -1.411 -12.418  14.177  0.00  0.00    -0.153 OA
ATOM      7  O   UNL     1      -1.219 -10.074  15.071  0.00  0.00    -0.153 OA
BRANCH   1  21
ATOM     21  C   UNL     1      -2.625 -10.474  12.928  0.00  0.00    +0.105 A 
ATOM     22  C   UNL     1      -1.737 -10.010  11.958  0.00  0.00    +0.029 A 
ATOM     23  C   UNL     1      -3.999 -10.424  12.699  0.00  0.00    +0.029 A 
ATOM     24  C   UNL     1      -2.225  -9.495  10.757  0.00  0.00    +0.005 A 
ATOM     25  C   UNL     1      -4.486  -9.909  11.497  0.00  0.00    +0.005 A 
ATOM     26  C   UNL     1      -3.600  -9.445  10.527  0.00  0.00    -0.050 A 
ATOM     27  C   UNL     1      -4.121  -8.893   9.242  0.00  0.00    +0.044 C 
ENDBRANCH   1  21
ENDBRANCH   9   1
ENDBRANCH  20   9
ENDBRANCH  13  20
TORSDOF 7
ENDMDL
