MODEL 1
REMARK VINA RESULT:      -7.5      0.000      0.000
REMARK  Name = 11939785
REMARK  6 active torsions:
REMARK  status: ('A' for Active; 'I' for Inactive)
REMARK    1  A    between atoms: N_5  and  C_13
REMARK    2  A    between atoms: N_6  and  C_14
REMARK    3  A    between atoms: N_10  and  C_31
REMARK    4  A    between atoms: N_10  and  C_32
REMARK    5  A    between atoms: N_10  and  C_33
REMARK    6  A    between atoms: C_23  and  C_26
REMARK                            x       y       z     vdW  Elec       q    Type
REMARK                         _______ _______ _______ _____ _____    ______ ____
ROOT
ATOM      1  O   UNL     1      -5.903 -11.761  10.185  0.00  0.00    -0.370 OA
ATOM      2  O   UNL     1      -4.744  -8.870  10.015  0.00  0.00    -0.370 OA
ATOM     11  C   UNL     1      -4.346 -10.126   9.441  0.00  0.00    +0.171 C 
ATOM     12  C   UNL     1      -4.612 -11.200  10.477  0.00  0.00    +0.171 C 
ATOM     13  C   UNL     1      -5.255 -10.490   8.289  0.00  0.00    +0.131 C 
ATOM     14  C   UNL     1      -4.652 -10.449  11.787  0.00  0.00    +0.130 C 
ATOM     15  C   UNL     1      -6.425 -11.150   8.997  0.00  0.00    +0.185 C 
ATOM     16  C   UNL     1      -5.162  -9.082  11.371  0.00  0.00    +0.185 C 
ENDROOT
BRANCH  13   5
ATOM      3  O   UNL     1      -5.592 -10.549   5.497  0.00  0.00    -0.253 OA
ATOM      4  O   UNL     1      -2.397 -13.749   3.532  0.00  0.00    -0.377 OA
ATOM      5  N   UNL     1      -4.606 -11.409   7.381  0.00  0.00    -0.292 N 
ATOM      7  N   UNL     1      -4.130 -12.333   5.258  0.00  0.00    -0.281 N 
ATOM     17  C   UNL     1      -4.828 -11.372   6.010  0.00  0.00    +0.303 C 
ATOM     19  C   UNL     1      -4.431 -12.480   3.832  0.00  0.00    +0.137 C 
ATOM     20  C   UNL     1      -3.205 -13.345   5.788  0.00  0.00    +0.137 C 
ATOM     21  C   UNL     1      -3.157 -12.653   3.021  0.00  0.00    +0.179 C 
ATOM     22  C   UNL     1      -1.991 -13.500   4.879  0.00  0.00    +0.179 C 
ATOM     34  H   UNL     1      -4.117 -12.189   7.800  0.00  0.00    +0.151 HD
ENDBRANCH  13   5
BRANCH  14   6
ATOM      6  N   UNL     1      -3.317 -10.339  12.335  0.00  0.00    -0.306 N 
ATOM      8  N   UNL     1      -4.070 -10.697  14.529  0.00  0.00    -0.214 NA
ATOM      9  N   UNL     1      -1.732 -10.340  14.065  0.00  0.00    -0.223 NA
ATOM     18  C   UNL     1      -3.031 -10.463  13.683  0.00  0.00    +0.216 A 
ATOM     23  C   UNL     1      -3.755 -10.812  15.835  0.00  0.00    +0.076 A 
ATOM     24  C   UNL     1      -1.489 -10.465  15.387  0.00  0.00    +0.116 A 
ATOM     25  C   UNL     1      -2.469 -10.703  16.327  0.00  0.00    +0.048 A 
ATOM     35  H   UNL     1      -2.530 -10.217  11.708  0.00  0.00    +0.149 HD
BRANCH  23  26
ATOM     26  C   UNL     1      -4.871 -11.060  16.716  0.00  0.00    +0.001 A 
ATOM     27  C   UNL     1      -4.677 -11.120  18.096  0.00  0.00    +0.012 A 
ATOM     28  C   UNL     1      -6.152 -11.247  16.187  0.00  0.00    +0.012 A 
ATOM     29  C   UNL     1      -5.756 -11.363  18.947  0.00  0.00    +0.024 A 
ATOM     30  C   UNL     1      -7.231 -11.489  17.037  0.00  0.00    +0.024 A 
ATOM     31  C   UNL     1      -7.033 -11.548  18.417  0.00  0.00    +0.029 A 
BRANCH  31  10
ATOM     10  N   UNL     1      -8.124 -11.793  19.276  0.00  0.00    -0.336 N 
ATOM     32  C   UNL     1      -8.185 -13.014  20.055  0.00  0.00    +0.129 C 
ATOM     33  C   UNL     1      -9.205 -10.834  19.380  0.00  0.00    +0.129 C 
ENDBRANCH  31  10
ENDBRANCH  23  26
ENDBRANCH  14   6
TORSDOF 4
ENDMDL
MODEL 2
REMARK VINA RESULT:      -7.2     25.647     29.313
REMARK  Name = 11939785
REMARK  6 active torsions:
REMARK  status: ('A' for Active; 'I' for Inactive)
REMARK    1  A    between atoms: N_5  and  C_13
REMARK    2  A    between atoms: N_6  and  C_14
REMARK    3  A    between atoms: N_10  and  C_31
REMARK    4  A    between atoms: N_10  and  C_32
REMARK    5  A    between atoms: N_10  and  C_33
REMARK    6  A    between atoms: C_23  and  C_26
REMARK                            x       y       z     vdW  Elec       q    Type
REMARK                         _______ _______ _______ _____ _____    ______ ____
ROOT
ATOM      1  O   UNL     1      13.451   9.059  15.124  0.00  0.00    -0.370 OA
ATOM      2  O   UNL     1      15.511  11.126  16.227  0.00  0.00    -0.370 OA
ATOM     11  C   UNL     1      14.237  10.657  16.699  0.00  0.00    +0.171 C 
ATOM     12  C   UNL     1      13.355  10.447  15.484  0.00  0.00    +0.171 C 
ATOM     13  C   UNL     1      14.374   9.276  17.299  0.00  0.00    +0.131 C 
ATOM     14  C   UNL     1      13.984  11.310  14.416  0.00  0.00    +0.130 C 
ATOM     15  C   UNL     1      14.283   8.381  16.076  0.00  0.00    +0.185 C 
ATOM     16  C   UNL     1      15.451  11.302  14.804  0.00  0.00    +0.185 C 
ENDROOT
BRANCH  13   5
ATOM      3  O   UNL     1      14.188   7.019  18.968  0.00  0.00    -0.253 OA
ATOM      4  O   UNL     1      10.377   7.572  22.047  0.00  0.00    -0.377 OA
ATOM      5  N   UNL     1      13.302   9.002  18.230  0.00  0.00    -0.292 N 
ATOM      7  N   UNL     1      12.173   7.729  19.870  0.00  0.00    -0.281 N 
ATOM     17  C   UNL     1      13.284   7.859  19.020  0.00  0.00    +0.303 C 
ATOM     19  C   UNL     1      11.985   6.479  20.612  0.00  0.00    +0.137 C 
ATOM     20  C   UNL     1      11.059   8.679  19.994  0.00  0.00    +0.137 C 
ATOM     21  C   UNL     1      11.549   6.755  22.042  0.00  0.00    +0.179 C 
ATOM     22  C   UNL     1      10.644   8.843  21.452  0.00  0.00    +0.179 C 
ATOM     34  H   UNL     1      12.481   9.588  18.159  0.00  0.00    +0.151 HD
ENDBRANCH  13   5
BRANCH  14   6
ATOM      6  N   UNL     1      13.455  12.654  14.490  0.00  0.00    -0.306 N 
ATOM      8  N   UNL     1      12.152  12.366  12.560  0.00  0.00    -0.214 NA
ATOM      9  N   UNL     1      12.133  14.452  13.766  0.00  0.00    -0.223 NA
ATOM     18  C   UNL     1      12.553  13.173  13.578  0.00  0.00    +0.216 A 
ATOM     23  C   UNL     1      11.273  12.904  11.689  0.00  0.00    +0.076 A 
ATOM     24  C   UNL     1      11.254  14.926  12.857  0.00  0.00    +0.116 A 
ATOM     25  C   UNL     1      10.785  14.191  11.789  0.00  0.00    +0.048 A 
ATOM     35  H   UNL     1      13.706  13.246  15.274  0.00  0.00    +0.149 HD
BRANCH  23  26
ATOM     26  C   UNL     1      10.860  12.030  10.617  0.00  0.00    +0.001 A 
ATOM     27  C   UNL     1      11.795  11.567   9.690  0.00  0.00    +0.012 A 
ATOM     28  C   UNL     1       9.521  11.648  10.500  0.00  0.00    +0.012 A 
ATOM     29  C   UNL     1      11.396  10.725   8.651  0.00  0.00    +0.024 A 
ATOM     30  C   UNL     1       9.122  10.806   9.463  0.00  0.00    +0.024 A 
ATOM     31  C   UNL     1      10.059  10.345   8.538  0.00  0.00    +0.029 A 
BRANCH  31  10
ATOM     10  N   UNL     1       9.655   9.493   7.489  0.00  0.00    -0.336 N 
ATOM     32  C   UNL     1       9.830   9.896   6.108  0.00  0.00    +0.129 C 
ATOM     33  C   UNL     1       9.047   8.211   7.779  0.00  0.00    +0.129 C 
ENDBRANCH  31  10
ENDBRANCH  23  26
ENDBRANCH  14   6
TORSDOF 4
ENDMDL
MODEL 3
REMARK VINA RESULT:      -7.2     29.048     32.084
REMARK  Name = 11939785
REMARK  6 active torsions:
REMARK  status: ('A' for Active; 'I' for Inactive)
REMARK    1  A    between atoms: N_5  and  C_13
REMARK    2  A    between atoms: N_6  and  C_14
REMARK    3  A    between atoms: N_10  and  C_31
REMARK    4  A    between atoms: N_10  and  C_32
REMARK    5  A    between atoms: N_10  and  C_33
REMARK    6  A    between atoms: C_23  and  C_26
REMARK                            x       y       z     vdW  Elec       q    Type
REMARK                         _______ _______ _______ _____ _____    ______ ____
ROOT
ATOM      1  O   UNL     1      11.320  11.867  25.524  0.00  0.00    -0.370 OA
ATOM      2  O   UNL     1      13.224  13.639  23.800  0.00  0.00    -0.370 OA
ATOM     11  C   UNL     1      12.869  12.247  23.760  0.00  0.00    +0.171 C 
ATOM     12  C   UNL     1      12.717  11.779  25.194  0.00  0.00    +0.171 C 
ATOM     13  C   UNL     1      11.490  12.071  23.166  0.00  0.00    +0.131 C 
ATOM     14  C   UNL     1      13.509  12.783  25.998  0.00  0.00    +0.130 C 
ATOM     15  C   UNL     1      10.589  12.297  24.366  0.00  0.00    +0.185 C 
ATOM     16  C   UNL     1      13.384  14.046  25.167  0.00  0.00    +0.185 C 
ENDROOT
BRANCH  13   5
ATOM      3  O   UNL     1      12.226  11.246  20.579  0.00  0.00    -0.253 OA
ATOM      4  O   UNL     1      11.643   6.365  20.194  0.00  0.00    -0.377 OA
ATOM      5  N   UNL     1      11.319  10.742  22.625  0.00  0.00    -0.292 N 
ATOM      7  N   UNL     1      11.472   9.084  20.947  0.00  0.00    -0.281 N 
ATOM     17  C   UNL     1      11.710  10.414  21.332  0.00  0.00    +0.303 C 
ATOM     19  C   UNL     1      11.694   8.694  19.552  0.00  0.00    +0.137 C 
ATOM     20  C   UNL     1      10.866   8.035  21.779  0.00  0.00    +0.137 C 
ATOM     21  C   UNL     1      12.387   7.344  19.467  0.00  0.00    +0.179 C 
ATOM     22  C   UNL     1      11.580   6.703  21.580  0.00  0.00    +0.179 C 
ATOM     34  H   UNL     1      10.748  10.105  23.164  0.00  0.00    +0.151 HD
ENDBRANCH  13   5
BRANCH  14   6
ATOM      6  N   UNL     1      14.894  12.371  26.076  0.00  0.00    -0.306 N 
ATOM      8  N   UNL     1      14.706  11.786  28.341  0.00  0.00    -0.214 NA
ATOM      9  N   UNL     1      16.793  11.526  27.165  0.00  0.00    -0.223 NA
ATOM     18  C   UNL     1      15.481  11.879  27.229  0.00  0.00    +0.216 A 
ATOM     23  C   UNL     1      15.311  11.303  29.446  0.00  0.00    +0.076 A 
ATOM     24  C   UNL     1      17.334  11.052  28.307  0.00  0.00    +0.116 A 
ATOM     25  C   UNL     1      16.635  10.916  29.488  0.00  0.00    +0.048 A 
ATOM     35  H   UNL     1      15.466  12.387  25.240  0.00  0.00    +0.149 HD
BRANCH  23  26
ATOM     26  C   UNL     1      14.469  11.211  30.615  0.00  0.00    +0.001 A 
ATOM     27  C   UNL     1      14.233   9.973  31.214  0.00  0.00    +0.012 A 
ATOM     28  C   UNL     1      13.884  12.362  31.149  0.00  0.00    +0.012 A 
ATOM     29  C   UNL     1      13.417   9.884  32.342  0.00  0.00    +0.024 A 
ATOM     30  C   UNL     1      13.070  12.274  32.277  0.00  0.00    +0.024 A 
ATOM     31  C   UNL     1      12.836  11.035  32.874  0.00  0.00    +0.029 A 
BRANCH  31  10
ATOM     10  N   UNL     1      12.012  10.946  34.016  0.00  0.00    -0.336 N 
ATOM     32  C   UNL     1      12.033  11.993  35.018  0.00  0.00    +0.129 C 
ATOM     33  C   UNL     1      11.146   9.801  34.207  0.00  0.00    +0.129 C 
ENDBRANCH  31  10
ENDBRANCH  23  26
ENDBRANCH  14   6
TORSDOF 4
ENDMDL
MODEL 4
REMARK VINA RESULT:      -6.9      2.918     10.772
REMARK  Name = 11939785
REMARK  6 active torsions:
REMARK  status: ('A' for Active; 'I' for Inactive)
REMARK    1  A    between atoms: N_5  and  C_13
REMARK    2  A    between atoms: N_6  and  C_14
REMARK    3  A    between atoms: N_10  and  C_31
REMARK    4  A    between atoms: N_10  and  C_32
REMARK    5  A    between atoms: N_10  and  C_33
REMARK    6  A    between atoms: C_23  and  C_26
REMARK                            x       y       z     vdW  Elec       q    Type
REMARK                         _______ _______ _______ _____ _____    ______ ____
ROOT
ATOM      1  O   UNL     1      -2.741 -12.942  12.684  0.00  0.00    -0.370 OA
ATOM      2  O   UNL     1      -1.818 -10.009  13.215  0.00  0.00    -0.370 OA
ATOM     11  C   UNL     1      -2.871 -10.824  13.757  0.00  0.00    +0.171 C 
ATOM     12  C   UNL     1      -3.413 -11.673  12.624  0.00  0.00    +0.171 C 
ATOM     13  C   UNL     1      -2.308 -11.830  14.735  0.00  0.00    +0.131 C 
ATOM     14  C   UNL     1      -3.010 -10.924  11.375  0.00  0.00    +0.130 C 
ATOM     15  C   UNL     1      -1.865 -12.957  13.820  0.00  0.00    +0.185 C 
ATOM     16  C   UNL     1      -1.727 -10.234  11.801  0.00  0.00    +0.185 C 
ENDROOT
BRANCH  13   5
ATOM      3  O   UNL     1      -3.431 -10.287  16.802  0.00  0.00    -0.253 OA
ATOM      4  O   UNL     1      -7.153 -12.781  18.863  0.00  0.00    -0.377 OA
ATOM      5  N   UNL     1      -3.319 -12.277  15.666  0.00  0.00    -0.292 N 
ATOM      7  N   UNL     1      -4.797 -12.030  17.494  0.00  0.00    -0.281 N 
ATOM     17  C   UNL     1      -3.823 -11.451  16.663  0.00  0.00    +0.303 C 
ATOM     19  C   UNL     1      -5.258 -11.293  18.673  0.00  0.00    +0.137 C 
ATOM     20  C   UNL     1      -5.317 -13.401  17.397  0.00  0.00    +0.137 C 
ATOM     21  C   UNL     1      -6.766 -11.406  18.831  0.00  0.00    +0.179 C 
ATOM     22  C   UNL     1      -6.823 -13.429  17.634  0.00  0.00    +0.179 C 
ATOM     34  H   UNL     1      -3.522 -13.268  15.672  0.00  0.00    +0.151 HD
ENDBRANCH  13   5
BRANCH  14   6
ATOM      6  N   UNL     1      -4.018  -9.943  11.039  0.00  0.00    -0.306 N 
ATOM      8  N   UNL     1      -4.318 -10.827   8.886  0.00  0.00    -0.214 NA
ATOM      9  N   UNL     1      -5.592  -8.921   9.631  0.00  0.00    -0.223 NA
ATOM     18  C   UNL     1      -4.662  -9.896   9.815  0.00  0.00    +0.216 A 
ATOM     23  C   UNL     1      -4.966 -10.751   7.705  0.00  0.00    +0.076 A 
ATOM     24  C   UNL     1      -6.200  -8.905   8.426  0.00  0.00    +0.116 A 
ATOM     25  C   UNL     1      -5.925  -9.802   7.416  0.00  0.00    +0.048 A 
ATOM     35  H   UNL     1      -4.319  -9.278  11.742  0.00  0.00    +0.149 HD
BRANCH  23  26
ATOM     26  C   UNL     1      -4.586 -11.749   6.733  0.00  0.00    +0.001 A 
ATOM     27  C   UNL     1      -4.848 -11.544   5.378  0.00  0.00    +0.012 A 
ATOM     28  C   UNL     1      -3.957 -12.926   7.147  0.00  0.00    +0.012 A 
ATOM     29  C   UNL     1      -4.484 -12.509   4.439  0.00  0.00    +0.024 A 
ATOM     30  C   UNL     1      -3.591 -13.891   6.209  0.00  0.00    +0.024 A 
ATOM     31  C   UNL     1      -3.855 -13.683   4.854  0.00  0.00    +0.029 A 
BRANCH  31  10
ATOM     10  N   UNL     1      -3.485 -14.659   3.905  0.00  0.00    -0.336 N 
ATOM     32  C   UNL     1      -4.241 -14.812   2.678  0.00  0.00    +0.129 C 
ATOM     33  C   UNL     1      -2.354 -15.529   4.152  0.00  0.00    +0.129 C 
ENDBRANCH  31  10
ENDBRANCH  23  26
ENDBRANCH  14   6
TORSDOF 4
ENDMDL
MODEL 5
REMARK VINA RESULT:      -6.8     27.598     30.707
REMARK  Name = 11939785
REMARK  6 active torsions:
REMARK  status: ('A' for Active; 'I' for Inactive)
REMARK    1  A    between atoms: N_5  and  C_13
REMARK    2  A    between atoms: N_6  and  C_14
REMARK    3  A    between atoms: N_10  and  C_31
REMARK    4  A    between atoms: N_10  and  C_32
REMARK    5  A    between atoms: N_10  and  C_33
REMARK    6  A    between atoms: C_23  and  C_26
REMARK                            x       y       z     vdW  Elec       q    Type
REMARK                         _______ _______ _______ _____ _____    ______ ____
ROOT
ATOM      1  O   UNL     1      13.059   8.382  19.957  0.00  0.00    -0.370 OA
ATOM      2  O   UNL     1      13.687   7.813  16.954  0.00  0.00    -0.370 OA
ATOM     11  C   UNL     1      14.512   8.098  18.096  0.00  0.00    +0.171 C 
ATOM     12  C   UNL     1      13.772   9.112  18.945  0.00  0.00    +0.171 C 
ATOM     13  C   UNL     1      14.618   6.880  18.985  0.00  0.00    +0.131 C 
ATOM     14  C   UNL     1      12.803   9.762  17.986  0.00  0.00    +0.130 C 
ATOM     15  C   UNL     1      13.361   6.985  19.830  0.00  0.00    +0.185 C 
ATOM     16  C   UNL     1      12.521   8.648  16.994  0.00  0.00    +0.185 C 
ENDROOT
BRANCH  13   5
ATOM      3  O   UNL     1      17.001   5.458  18.517  0.00  0.00    -0.253 OA
ATOM      4  O   UNL     1      20.452   6.962  21.702  0.00  0.00    -0.377 OA
ATOM      5  N   UNL     1      15.807   6.934  19.807  0.00  0.00    -0.292 N 
ATOM      7  N   UNL     1      18.019   6.349  20.402  0.00  0.00    -0.281 N 
ATOM     17  C   UNL     1      16.946   6.197  19.506  0.00  0.00    +0.303 C 
ATOM     19  C   UNL     1      19.194   5.486  20.261  0.00  0.00    +0.137 C 
ATOM     20  C   UNL     1      18.036   7.205  21.597  0.00  0.00    +0.137 C 
ATOM     21  C   UNL     1      20.478   6.278  20.448  0.00  0.00    +0.179 C 
ATOM     22  C   UNL     1      19.382   7.907  21.742  0.00  0.00    +0.179 C 
ATOM     34  H   UNL     1      15.717   7.395  20.702  0.00  0.00    +0.151 HD
ENDBRANCH  13   5
BRANCH  14   6
ATOM      6  N   UNL     1      13.439  10.876  17.318  0.00  0.00    -0.306 N 
ATOM      8  N   UNL     1      13.052  12.322  19.126  0.00  0.00    -0.214 NA
ATOM      9  N   UNL     1      14.185  13.094  17.144  0.00  0.00    -0.223 NA
ATOM     18  C   UNL     1      13.562  12.135  17.880  0.00  0.00    +0.216 A 
ATOM     23  C   UNL     1      13.190  13.560  19.642  0.00  0.00    +0.076 A 
ATOM     24  C   UNL     1      14.287  14.310  17.722  0.00  0.00    +0.116 A 
ATOM     25  C   UNL     1      13.804  14.604  18.980  0.00  0.00    +0.048 A 
ATOM     35  H   UNL     1      13.869  10.734  16.411  0.00  0.00    +0.149 HD
BRANCH  23  26
ATOM     26  C   UNL     1      12.642  13.737  20.966  0.00  0.00    +0.001 A 
ATOM     27  C   UNL     1      13.158  14.717  21.815  0.00  0.00    +0.012 A 
ATOM     28  C   UNL     1      11.593  12.924  21.404  0.00  0.00    +0.012 A 
ATOM     29  C   UNL     1      12.630  14.885  23.095  0.00  0.00    +0.024 A 
ATOM     30  C   UNL     1      11.064  13.092  22.683  0.00  0.00    +0.024 A 
ATOM     31  C   UNL     1      11.583  14.073  23.529  0.00  0.00    +0.029 A 
BRANCH  31  10
ATOM     10  N   UNL     1      11.048  14.244  24.823  0.00  0.00    -0.336 N 
ATOM     32  C   UNL     1      10.953  15.567  25.409  0.00  0.00    +0.129 C 
ATOM     33  C   UNL     1      10.600  13.099  25.589  0.00  0.00    +0.129 C 
ENDBRANCH  31  10
ENDBRANCH  23  26
ENDBRANCH  14   6
TORSDOF 4
ENDMDL
MODEL 6
REMARK VINA RESULT:      -6.7      7.333      8.825
REMARK  Name = 11939785
REMARK  6 active torsions:
REMARK  status: ('A' for Active; 'I' for Inactive)
REMARK    1  A    between atoms: N_5  and  C_13
REMARK    2  A    between atoms: N_6  and  C_14
REMARK    3  A    between atoms: N_10  and  C_31
REMARK    4  A    between atoms: N_10  and  C_32
REMARK    5  A    between atoms: N_10  and  C_33
REMARK    6  A    between atoms: C_23  and  C_26
REMARK                            x       y       z     vdW  Elec       q    Type
REMARK                         _______ _______ _______ _____ _____    ______ ____
ROOT
ATOM      1  O   UNL     1     -12.434  -8.457  14.946  0.00  0.00    -0.370 OA
ATOM      2  O   UNL     1     -11.069  -6.138  16.526  0.00  0.00    -0.370 OA
ATOM     11  C   UNL     1     -11.073  -6.516  15.138  0.00  0.00    +0.171 C 
ATOM     12  C   UNL     1     -11.068  -8.031  15.085  0.00  0.00    +0.171 C 
ATOM     13  C   UNL     1     -12.382  -6.128  14.491  0.00  0.00    +0.131 C 
ATOM     14  C   UNL     1     -10.524  -8.448  16.431  0.00  0.00    +0.130 C 
ATOM     15  C   UNL     1     -13.279  -7.301  14.844  0.00  0.00    +0.185 C 
ATOM     16  C   UNL     1     -10.977  -7.318  17.336  0.00  0.00    +0.185 C 
ENDROOT
BRANCH  13   5
ATOM      3  O   UNL     1     -12.381  -3.703  13.065  0.00  0.00    -0.253 OA
ATOM      4  O   UNL     1     -11.233  -4.580   8.350  0.00  0.00    -0.377 OA
ATOM      5  N   UNL     1     -12.237  -5.993  13.058  0.00  0.00    -0.292 N 
ATOM      7  N   UNL     1     -12.103  -4.784  11.031  0.00  0.00    -0.281 N 
ATOM     17  C   UNL     1     -12.248  -4.754  12.429  0.00  0.00    +0.303 C 
ATOM     19  C   UNL     1     -12.273  -3.545  10.270  0.00  0.00    +0.137 C 
ATOM     20  C   UNL     1     -11.940  -5.987  10.202  0.00  0.00    +0.137 C 
ATOM     21  C   UNL     1     -11.215  -3.422   9.186  0.00  0.00    +0.179 C 
ATOM     22  C   UNL     1     -10.911  -5.752   9.102  0.00  0.00    +0.179 C 
ATOM     34  H   UNL     1     -12.300  -6.843  12.515  0.00  0.00    +0.151 HD
ENDBRANCH  13   5
BRANCH  14   6
ATOM      6  N   UNL     1      -9.079  -8.504  16.385  0.00  0.00    -0.306 N 
ATOM      8  N   UNL     1      -8.989 -10.279  17.917  0.00  0.00    -0.214 NA
ATOM      9  N   UNL     1      -6.973  -9.351  16.978  0.00  0.00    -0.223 NA
ATOM     18  C   UNL     1      -8.325  -9.405  17.115  0.00  0.00    +0.216 A 
ATOM     23  C   UNL     1      -8.223 -11.143  18.614  0.00  0.00    +0.076 A 
ATOM     24  C   UNL     1      -6.268 -10.244  17.705  0.00  0.00    +0.116 A 
ATOM     25  C   UNL     1      -6.844 -11.172  18.547  0.00  0.00    +0.048 A 
ATOM     35  H   UNL     1      -8.577  -7.893  15.751  0.00  0.00    +0.149 HD
BRANCH  23  26
ATOM     26  C   UNL     1      -8.948 -12.062  19.459  0.00  0.00    +0.001 A 
ATOM     27  C   UNL     1      -8.341 -13.240  19.896  0.00  0.00    +0.012 A 
ATOM     28  C   UNL     1     -10.262 -11.776  19.838  0.00  0.00    +0.012 A 
ATOM     29  C   UNL     1      -9.043 -14.130  20.710  0.00  0.00    +0.024 A 
ATOM     30  C   UNL     1     -10.964 -12.664  20.653  0.00  0.00    +0.024 A 
ATOM     31  C   UNL     1     -10.354 -13.842  21.088  0.00  0.00    +0.029 A 
BRANCH  31  10
ATOM     10  N   UNL     1     -11.064 -14.740  21.912  0.00  0.00    -0.336 N 
ATOM     32  C   UNL     1     -11.400 -16.066  21.433  0.00  0.00    +0.129 C 
ATOM     33  C   UNL     1     -11.479 -14.344  23.243  0.00  0.00    +0.129 C 
ENDBRANCH  31  10
ENDBRANCH  23  26
ENDBRANCH  14   6
TORSDOF 4
ENDMDL
MODEL 7
REMARK VINA RESULT:      -6.7     27.234     29.762
REMARK  Name = 11939785
REMARK  6 active torsions:
REMARK  status: ('A' for Active; 'I' for Inactive)
REMARK    1  A    between atoms: N_5  and  C_13
REMARK    2  A    between atoms: N_6  and  C_14
REMARK    3  A    between atoms: N_10  and  C_31
REMARK    4  A    between atoms: N_10  and  C_32
REMARK    5  A    between atoms: N_10  and  C_33
REMARK    6  A    between atoms: C_23  and  C_26
REMARK                            x       y       z     vdW  Elec       q    Type
REMARK                         _______ _______ _______ _____ _____    ______ ____
ROOT
ATOM      1  O   UNL     1      14.498  12.634  16.186  0.00  0.00    -0.370 OA
ATOM      2  O   UNL     1      14.200   9.880  14.751  0.00  0.00    -0.370 OA
ATOM     11  C   UNL     1      13.308  10.990  14.947  0.00  0.00    +0.171 C 
ATOM     12  C   UNL     1      13.574  11.543  16.333  0.00  0.00    +0.171 C 
ATOM     13  C   UNL     1      13.672  12.128  14.020  0.00  0.00    +0.131 C 
ATOM     14  C   UNL     1      14.229  10.397  17.069  0.00  0.00    +0.130 C 
ATOM     15  C   UNL     1      14.771  12.836  14.792  0.00  0.00    +0.185 C 
ATOM     16  C   UNL     1      14.944   9.654  15.957  0.00  0.00    +0.185 C 
ENDROOT
BRANCH  13   5
ATOM      3  O   UNL     1      11.907  12.000  11.833  0.00  0.00    -0.253 OA
ATOM      4  O   UNL     1       8.178  15.143  12.556  0.00  0.00    -0.377 OA
ATOM      5  N   UNL     1      12.542  13.002  13.796  0.00  0.00    -0.292 N 
ATOM      7  N   UNL     1      10.664  13.800  12.604  0.00  0.00    -0.281 N 
ATOM     17  C   UNL     1      11.717  12.872  12.686  0.00  0.00    +0.303 C 
ATOM     19  C   UNL     1       9.849  13.848  11.387  0.00  0.00    +0.137 C 
ATOM     20  C   UNL     1      10.368  14.865  13.572  0.00  0.00    +0.137 C 
ATOM     21  C   UNL     1       8.375  13.999  11.724  0.00  0.00    +0.179 C 
ATOM     22  C   UNL     1       8.866  14.990  13.799  0.00  0.00    +0.179 C 
ATOM     34  H   UNL     1      12.478  13.818  14.390  0.00  0.00    +0.151 HD
ENDBRANCH  13   5
BRANCH  14   6
ATOM      6  N   UNL     1      13.219   9.552  17.667  0.00  0.00    -0.306 N 
ATOM      8  N   UNL     1      14.796   8.408  18.977  0.00  0.00    -0.214 NA
ATOM      9  N   UNL     1      12.454   7.850  19.090  0.00  0.00    -0.223 NA
ATOM     18  C   UNL     1      13.498   8.574  18.607  0.00  0.00    +0.216 A 
ATOM     23  C   UNL     1      15.031   7.447  19.893  0.00  0.00    +0.076 A 
ATOM     24  C   UNL     1      12.762   6.905  20.004  0.00  0.00    +0.116 A 
ATOM     25  C   UNL     1      14.044   6.657  20.447  0.00  0.00    +0.048 A 
ATOM     35  H   UNL     1      12.244   9.703  17.438  0.00  0.00    +0.149 HD
BRANCH  23  26
ATOM     26  C   UNL     1      16.415   7.287  20.272  0.00  0.00    +0.001 A 
ATOM     27  C   UNL     1      16.992   8.153  21.202  0.00  0.00    +0.012 A 
ATOM     28  C   UNL     1      17.183   6.266  19.706  0.00  0.00    +0.012 A 
ATOM     29  C   UNL     1      18.330   8.000  21.566  0.00  0.00    +0.024 A 
ATOM     30  C   UNL     1      18.520   6.112  20.070  0.00  0.00    +0.024 A 
ATOM     31  C   UNL     1      19.094   6.980  21.000  0.00  0.00    +0.029 A 
BRANCH  31  10
ATOM     10  N   UNL     1      20.447   6.824  21.369  0.00  0.00    -0.336 N 
ATOM     32  C   UNL     1      20.796   6.363  22.698  0.00  0.00    +0.129 C 
ATOM     33  C   UNL     1      21.504   7.137  20.429  0.00  0.00    +0.129 C 
ENDBRANCH  31  10
ENDBRANCH  23  26
ENDBRANCH  14   6
TORSDOF 4
ENDMDL
MODEL 8
REMARK VINA RESULT:      -6.7     25.603     27.704
REMARK  Name = 11939785
REMARK  6 active torsions:
REMARK  status: ('A' for Active; 'I' for Inactive)
REMARK    1  A    between atoms: N_5  and  C_13
REMARK    2  A    between atoms: N_6  and  C_14
REMARK    3  A    between atoms: N_10  and  C_31
REMARK    4  A    between atoms: N_10  and  C_32
REMARK    5  A    between atoms: N_10  and  C_33
REMARK    6  A    between atoms: C_23  and  C_26
REMARK                            x       y       z     vdW  Elec       q    Type
REMARK                         _______ _______ _______ _____ _____    ______ ____
ROOT
ATOM      1  O   UNL     1       9.714  11.825  12.325  0.00  0.00    -0.370 OA
ATOM      2  O   UNL     1      10.768  14.294  10.734  0.00  0.00    -0.370 OA
ATOM     11  C   UNL     1      10.725  12.885  10.452  0.00  0.00    +0.171 C 
ATOM     12  C   UNL     1      10.991  12.156  11.754  0.00  0.00    +0.171 C 
ATOM     13  C   UNL     1       9.323  12.467  10.074  0.00  0.00    +0.131 C 
ATOM     14  C   UNL     1      11.701  13.177  12.612  0.00  0.00    +0.130 C 
ATOM     15  C   UNL     1       8.675  12.245  11.429  0.00  0.00    +0.185 C 
ATOM     16  C   UNL     1      11.127  14.489  12.110  0.00  0.00    +0.185 C 
ENDROOT
BRANCH  13   5
ATOM      3  O   UNL     1       9.405  12.322   7.265  0.00  0.00    -0.253 OA
ATOM      4  O   UNL     1       9.978   7.622   5.888  0.00  0.00    -0.377 OA
ATOM      5  N   UNL     1       9.333  11.250   9.292  0.00  0.00    -0.292 N 
ATOM      7  N   UNL     1       9.371  10.003   7.285  0.00  0.00    -0.281 N 
ATOM     17  C   UNL     1       9.373  11.265   7.904  0.00  0.00    +0.303 C 
ATOM     19  C   UNL     1       9.240   9.923   5.828  0.00  0.00    +0.137 C 
ATOM     20  C   UNL     1       9.335   8.702   7.968  0.00  0.00    +0.137 C 
ATOM     21  C   UNL     1      10.190   8.884   5.253  0.00  0.00    +0.179 C 
ATOM     22  C   UNL     1      10.264   7.704   7.285  0.00  0.00    +0.179 C 
ATOM     34  H   UNL     1       9.136  10.392   9.790  0.00  0.00    +0.151 HD
ENDBRANCH  13   5
BRANCH  14   6
ATOM      6  N   UNL     1      13.125  13.127  12.365  0.00  0.00    -0.306 N 
ATOM      8  N   UNL     1      13.502  11.698  14.188  0.00  0.00    -0.214 NA
ATOM      9  N   UNL     1      15.326  12.436  12.797  0.00  0.00    -0.223 NA
ATOM     18  C   UNL     1      14.011  12.398  13.140  0.00  0.00    +0.216 A 
ATOM     23  C   UNL     1      14.393  10.999  14.922  0.00  0.00    +0.076 A 
ATOM     24  C   UNL     1      16.161  11.715  13.574  0.00  0.00    +0.116 A 
ATOM     25  C   UNL     1      15.748  10.971  14.659  0.00  0.00    +0.048 A 
ATOM     35  H   UNL     1      13.507  13.602  11.556  0.00  0.00    +0.149 HD
BRANCH  23  26
ATOM     26  C   UNL     1      13.832  10.263  16.029  0.00  0.00    +0.001 A 
ATOM     27  C   UNL     1      14.501  10.220  17.254  0.00  0.00    +0.012 A 
ATOM     28  C   UNL     1      12.619   9.587  15.878  0.00  0.00    +0.012 A 
ATOM     29  C   UNL     1      13.960   9.506  18.323  0.00  0.00    +0.024 A 
ATOM     30  C   UNL     1      12.077   8.874  16.947  0.00  0.00    +0.024 A 
ATOM     31  C   UNL     1      12.748   8.833  18.170  0.00  0.00    +0.029 A 
BRANCH  31  10
ATOM     10  N   UNL     1      12.200   8.112  19.251  0.00  0.00    -0.336 N 
ATOM     32  C   UNL     1      10.979   8.563  19.890  0.00  0.00    +0.129 C 
ATOM     33  C   UNL     1      12.858   6.920  19.746  0.00  0.00    +0.129 C 
ENDBRANCH  31  10
ENDBRANCH  23  26
ENDBRANCH  14   6
TORSDOF 4
ENDMDL
MODEL 9
REMARK VINA RESULT:      -6.5     24.233     27.576
REMARK  Name = 11939785
REMARK  6 active torsions:
REMARK  status: ('A' for Active; 'I' for Inactive)
REMARK    1  A    between atoms: N_5  and  C_13
REMARK    2  A    between atoms: N_6  and  C_14
REMARK    3  A    between atoms: N_10  and  C_31
REMARK    4  A    between atoms: N_10  and  C_32
REMARK    5  A    between atoms: N_10  and  C_33
REMARK    6  A    between atoms: C_23  and  C_26
REMARK                            x       y       z     vdW  Elec       q    Type
REMARK                         _______ _______ _______ _____ _____    ______ ____
ROOT
ATOM      1  O   UNL     1       9.621   7.236   3.470  0.00  0.00    -0.370 OA
ATOM      2  O   UNL     1      10.520   4.758   5.139  0.00  0.00    -0.370 OA
ATOM     11  C   UNL     1      10.849   6.157   5.196  0.00  0.00    +0.171 C 
ATOM     12  C   UNL     1      10.905   6.665   3.769  0.00  0.00    +0.171 C 
ATOM     13  C   UNL     1       9.717   6.938   5.822  0.00  0.00    +0.131 C 
ATOM     14  C   UNL     1      11.131   5.422   2.942  0.00  0.00    +0.130 C 
ATOM     15  C   UNL     1       8.793   7.173   4.641  0.00  0.00    +0.185 C 
ATOM     16  C   UNL     1      10.451   4.345   3.767  0.00  0.00    +0.185 C 
ENDROOT
BRANCH  13   5
ATOM      3  O   UNL     1       8.636   8.250   8.065  0.00  0.00    -0.253 OA
ATOM      4  O   UNL     1      11.498  12.086   9.250  0.00  0.00    -0.377 OA
ATOM      5  N   UNL     1      10.188   8.188   6.376  0.00  0.00    -0.292 N 
ATOM      7  N   UNL     1      10.161   9.990   7.906  0.00  0.00    -0.281 N 
ATOM     17  C   UNL     1       9.596   8.772   7.489  0.00  0.00    +0.303 C 
ATOM     19  C   UNL     1       9.499  10.760   8.961  0.00  0.00    +0.137 C 
ATOM     20  C   UNL     1      11.300  10.677   7.280  0.00  0.00    +0.137 C 
ATOM     21  C   UNL     1      10.513  11.320   9.945  0.00  0.00    +0.179 C 
ATOM     22  C   UNL     1      12.228  11.264   8.338  0.00  0.00    +0.179 C 
ATOM     34  H   UNL     1      10.854   8.706   5.819  0.00  0.00    +0.151 HD
ENDBRANCH  13   5
BRANCH  14   6
ATOM      6  N   UNL     1      12.548   5.149   2.835  0.00  0.00    -0.306 N 
ATOM      8  N   UNL     1      12.386   4.619   0.555  0.00  0.00    -0.214 NA
ATOM      9  N   UNL     1      14.506   4.534   1.698  0.00  0.00    -0.223 NA
ATOM     18  C   UNL     1      13.165   4.756   1.660  0.00  0.00    +0.216 A 
ATOM     23  C   UNL     1      13.020   4.235  -0.572  0.00  0.00    +0.076 A 
ATOM     24  C   UNL     1      15.075   4.151   0.535  0.00  0.00    +0.116 A 
ATOM     25  C   UNL     1      14.376   3.984  -0.642  0.00  0.00    +0.048 A 
ATOM     35  H   UNL     1      13.146   5.299   3.640  0.00  0.00    +0.149 HD
BRANCH  23  26
ATOM     26  C   UNL     1      12.175   4.096  -1.734  0.00  0.00    +0.001 A 
ATOM     27  C   UNL     1      10.901   4.665  -1.747  0.00  0.00    +0.012 A 
ATOM     28  C   UNL     1      12.629   3.388  -2.850  0.00  0.00    +0.012 A 
ATOM     29  C   UNL     1      10.083   4.528  -2.869  0.00  0.00    +0.024 A 
ATOM     30  C   UNL     1      11.813   3.252  -3.972  0.00  0.00    +0.024 A 
ATOM     31  C   UNL     1      10.539   3.822  -3.982  0.00  0.00    +0.029 A 
BRANCH  31  10
ATOM     10  N   UNL     1       9.713   3.684  -5.117  0.00  0.00    -0.336 N 
ATOM     32  C   UNL     1       9.901   2.574  -6.030  0.00  0.00    +0.129 C 
ATOM     33  C   UNL     1       8.677   4.658  -5.392  0.00  0.00    +0.129 C 
ENDBRANCH  31  10
ENDBRANCH  23  26
ENDBRANCH  14   6
TORSDOF 4
ENDMDL
MODEL 10
REMARK VINA RESULT:      -6.5      3.708      9.636
REMARK  Name = 11939785
REMARK  6 active torsions:
REMARK  status: ('A' for Active; 'I' for Inactive)
REMARK    1  A    between atoms: N_5  and  C_13
REMARK    2  A    between atoms: N_6  and  C_14
REMARK    3  A    between atoms: N_10  and  C_31
REMARK    4  A    between atoms: N_10  and  C_32
REMARK    5  A    between atoms: N_10  and  C_33
REMARK    6  A    between atoms: C_23  and  C_26
REMARK                            x       y       z     vdW  Elec       q    Type
REMARK                         _______ _______ _______ _____ _____    ______ ____
ROOT
ATOM      1  O   UNL     1      -6.921 -13.101  15.009  0.00  0.00    -0.370 OA
ATOM      2  O   UNL     1      -6.153 -13.088  18.034  0.00  0.00    -0.370 OA
ATOM     11  C   UNL     1      -6.642 -12.076  17.137  0.00  0.00    +0.171 C 
ATOM     12  C   UNL     1      -5.997 -12.321  15.787  0.00  0.00    +0.171 C 
ATOM     13  C   UNL     1      -8.119 -12.268  16.881  0.00  0.00    +0.131 C 
ATOM     14  C   UNL     1      -4.765 -13.134  16.107  0.00  0.00    +0.130 C 
ATOM     15  C   UNL     1      -8.124 -13.300  15.767  0.00  0.00    +0.185 C 
ATOM     16  C   UNL     1      -5.183 -13.895  17.351  0.00  0.00    +0.185 C 
ENDROOT
BRANCH  13   5
ATOM      3  O   UNL     1     -10.868 -11.685  17.017  0.00  0.00    -0.253 OA
ATOM      4  O   UNL     1     -11.598  -6.963  15.797  0.00  0.00    -0.377 OA
ATOM      5  N   UNL     1      -8.741 -11.035  16.455  0.00  0.00    -0.292 N 
ATOM      7  N   UNL     1     -10.568  -9.578  16.094  0.00  0.00    -0.281 N 
ATOM     17  C   UNL     1     -10.111 -10.825  16.555  0.00  0.00    +0.303 C 
ATOM     19  C   UNL     1     -12.010  -9.336  16.003  0.00  0.00    +0.137 C 
ATOM     20  C   UNL     1      -9.737  -8.503  15.533  0.00  0.00    +0.137 C 
ATOM     21  C   UNL     1     -12.360  -7.944  16.503  0.00  0.00    +0.179 C 
ATOM     22  C   UNL     1     -10.201  -7.141  16.035  0.00  0.00    +0.179 C 
ATOM     34  H   UNL     1      -8.164 -10.397  15.923  0.00  0.00    +0.151 HD
ENDBRANCH  13   5
BRANCH  14   6
ATOM      6  N   UNL     1      -3.657 -12.255  16.407  0.00  0.00    -0.306 N 
ATOM      8  N   UNL     1      -3.405 -11.625  14.160  0.00  0.00    -0.214 NA
ATOM      9  N   UNL     1      -1.963 -10.722  15.868  0.00  0.00    -0.223 NA
ATOM     18  C   UNL     1      -2.989 -11.511  15.449  0.00  0.00    +0.216 A 
ATOM     23  C   UNL     1      -2.732 -10.887  13.253  0.00  0.00    +0.076 A 
ATOM     24  C   UNL     1      -1.334 -10.012  14.907  0.00  0.00    +0.116 A 
ATOM     25  C   UNL     1      -1.677 -10.055  13.573  0.00  0.00    +0.048 A 
ATOM     35  H   UNL     1      -3.372 -12.122  17.370  0.00  0.00    +0.149 HD
BRANCH  23  26
ATOM     26  C   UNL     1      -3.190 -11.022  11.891  0.00  0.00    +0.001 A 
ATOM     27  C   UNL     1      -3.412 -12.288  11.348  0.00  0.00    +0.012 A 
ATOM     28  C   UNL     1      -3.409  -9.884  11.110  0.00  0.00    +0.012 A 
ATOM     29  C   UNL     1      -3.852 -12.419  10.030  0.00  0.00    +0.024 A 
ATOM     30  C   UNL     1      -3.850 -10.014   9.794  0.00  0.00    +0.024 A 
ATOM     31  C   UNL     1      -4.071 -11.281   9.253  0.00  0.00    +0.029 A 
BRANCH  31  10
ATOM     10  N   UNL     1      -4.517 -11.412   7.922  0.00  0.00    -0.336 N 
ATOM     32  C   UNL     1      -4.177 -12.589   7.147  0.00  0.00    +0.129 C 
ATOM     33  C   UNL     1      -5.308 -10.366   7.307  0.00  0.00    +0.129 C 
ENDBRANCH  31  10
ENDBRANCH  23  26
ENDBRANCH  14   6
TORSDOF 4
ENDMDL
