MODEL 1
REMARK VINA RESULT:      -7.1      0.000      0.000
REMARK  Name = 71692850
REMARK  5 active torsions:
REMARK  status: ('A' for Active; 'I' for Inactive)
REMARK    1  A    between atoms: N_6  and  C_23
REMARK    2  A    between atoms: N_8  and  C_25
REMARK    3  A    between atoms: C_9  and  C_14
REMARK    4  A    between atoms: C_14  and  C_17
REMARK    5  A    between atoms: C_23  and  C_33
REMARK                            x       y       z     vdW  Elec       q    Type
REMARK                         _______ _______ _______ _____ _____    ______ ____
ROOT
ATOM      1  O   UNL     1      21.557  10.260  23.264  0.00  0.00    -0.274 OA
ATOM      3  O   UNL     1      19.741   5.965  20.732  0.00  0.00    -0.488 OA
ATOM      5  N   UNL     1      22.617   8.209  23.113  0.00  0.00    -0.300 N 
ATOM      7  N   UNL     1      19.481   7.697  23.055  0.00  0.00    -0.304 NA
ATOM      9  C   UNL     1      23.889   6.830  20.882  0.00  0.00    +0.008 C 
ATOM     10  C   UNL     1      22.613   6.301  21.600  0.00  0.00    +0.032 C 
ATOM     11  C   UNL     1      23.978   8.364  21.070  0.00  0.00    +0.023 C 
ATOM     12  C   UNL     1      22.594   6.742  23.076  0.00  0.00    +0.115 C 
ATOM     13  C   UNL     1      23.832   8.788  22.533  0.00  0.00    +0.108 C 
ATOM     15  C   UNL     1      22.404   4.815  21.471  0.00  0.00    -0.023 C 
ATOM     16  C   UNL     1      21.539   9.035  23.428  0.00  0.00    +0.229 C 
ATOM     18  C   UNL     1      21.365   4.155  20.931  0.00  0.00    +0.010 C 
ATOM     19  C   UNL     1      20.295   8.410  24.034  0.00  0.00    +0.178 C 
ATOM     20  C   UNL     1      20.066   4.637  20.336  0.00  0.00    +0.256 C 
ATOM     21  C   UNL     1      19.108   8.473  21.876  0.00  0.00    +0.120 C 
ATOM     22  C   UNL     1      18.158   7.706  20.971  0.00  0.00    +0.010 A 
ATOM     24  C   UNL     1      18.505   6.460  20.401  0.00  0.00    +0.125 A 
ATOM     25  C   UNL     1      16.013   7.610  19.829  0.00  0.00    +0.030 A 
ATOM     26  C   UNL     1      16.906   8.268  20.672  0.00  0.00    +0.031 A 
ATOM     29  C   UNL     1      17.601   5.812  19.550  0.00  0.00    +0.048 A 
ATOM     30  C   UNL     1      16.360   6.386  19.268  0.00  0.00    +0.027 A 
ATOM     35  H   UNL     1      18.637   7.360  23.521  0.00  0.00    +0.123 HD
ENDROOT
BRANCH  25   8
ATOM      4  O   UNL     1      12.298   9.232  18.710  0.00  0.00    -0.377 OA
ATOM      8  N   UNL     1      14.769   8.184  19.543  0.00  0.00    -0.326 N 
ATOM     27  C   UNL     1      13.644   7.286  19.244  0.00  0.00    +0.133 C 
ATOM     28  C   UNL     1      14.701   9.504  18.907  0.00  0.00    +0.133 C 
ATOM     31  C   UNL     1      12.326   8.022  19.466  0.00  0.00    +0.178 C 
ATOM     32  C   UNL     1      13.327  10.120  19.145  0.00  0.00    +0.178 C 
ENDBRANCH  25   8
BRANCH   9  14
ATOM     14  C   UNL     1      25.196   6.158  21.320  0.00  0.00    +0.100 C 
BRANCH  14  17
ATOM      2  O   UNL     1      25.425   4.746  19.369  0.00  0.00    -0.276 OA
ATOM      6  N   UNL     1      25.664   3.820  21.488  0.00  0.00    -0.316 N 
ATOM     17  C   UNL     1      25.436   4.855  20.592  0.00  0.00    +0.213 C 
ATOM     34  H   UNL     1      25.660   4.015  22.485  0.00  0.00    +0.149 HD
BRANCH   6  23
ATOM     23  C   UNL     1      25.921   2.461  21.073  0.00  0.00    +0.101 C 
ATOM     33  C   UNL     1      24.645   1.647  21.015  0.00  0.00    +0.024 C 
ENDBRANCH   6  23
ENDBRANCH  14  17
ENDBRANCH   9  14
TORSDOF 4
ENDMDL
MODEL 2
REMARK VINA RESULT:      -6.8      1.953      2.369
REMARK  Name = 71692850
REMARK  5 active torsions:
REMARK  status: ('A' for Active; 'I' for Inactive)
REMARK    1  A    between atoms: N_6  and  C_23
REMARK    2  A    between atoms: N_8  and  C_25
REMARK    3  A    between atoms: C_9  and  C_14
REMARK    4  A    between atoms: C_14  and  C_17
REMARK    5  A    between atoms: C_23  and  C_33
REMARK                            x       y       z     vdW  Elec       q    Type
REMARK                         _______ _______ _______ _____ _____    ______ ____
ROOT
ATOM      1  O   UNL     1      20.018  12.466  21.260  0.00  0.00    -0.274 OA
ATOM      3  O   UNL     1      18.876   7.298  20.874  0.00  0.00    -0.488 OA
ATOM      5  N   UNL     1      21.413  10.709  21.827  0.00  0.00    -0.300 N 
ATOM      7  N   UNL     1      18.415   9.778  22.323  0.00  0.00    -0.304 NA
ATOM      9  C   UNL     1      22.812   8.728  20.209  0.00  0.00    +0.008 C 
ATOM     10  C   UNL     1      21.678   8.367  21.215  0.00  0.00    +0.032 C 
ATOM     11  C   UNL     1      22.639  10.198  19.757  0.00  0.00    +0.023 C 
ATOM     12  C   UNL     1      21.644   9.371  22.383  0.00  0.00    +0.115 C 
ATOM     13  C   UNL     1      22.482  11.163  20.935  0.00  0.00    +0.108 C 
ATOM     15  C   UNL     1      21.727   6.948  21.715  0.00  0.00    -0.023 C 
ATOM     16  C   UNL     1      20.221  11.429  21.901  0.00  0.00    +0.229 C 
ATOM     18  C   UNL     1      20.798   5.983  21.602  0.00  0.00    +0.010 C 
ATOM     19  C   UNL     1      19.132  10.940  22.839  0.00  0.00    +0.178 C 
ATOM     20  C   UNL     1      19.411   5.986  21.010  0.00  0.00    +0.256 C 
ATOM     21  C   UNL     1      17.863   9.937  20.980  0.00  0.00    +0.120 C 
ATOM     22  C   UNL     1      17.025   8.738  20.568  0.00  0.00    +0.010 A 
ATOM     24  C   UNL     1      17.559   7.431  20.511  0.00  0.00    +0.125 A 
ATOM     25  C   UNL     1      14.883   7.875  19.803  0.00  0.00    +0.030 A 
ATOM     26  C   UNL     1      15.682   8.942  20.209  0.00  0.00    +0.031 A 
ATOM     29  C   UNL     1      16.748   6.368  20.095  0.00  0.00    +0.048 A 
ATOM     30  C   UNL     1      15.415   6.592  19.745  0.00  0.00    +0.027 A 
ATOM     35  H   UNL     1      17.663   9.548  22.975  0.00  0.00    +0.123 HD
ENDROOT
BRANCH  25   8
ATOM      4  O   UNL     1      10.815   8.276  18.821  0.00  0.00    -0.377 OA
ATOM      8  N   UNL     1      13.547   8.096  19.450  0.00  0.00    -0.326 N 
ATOM     27  C   UNL     1      12.537   8.084  20.517  0.00  0.00    +0.133 C 
ATOM     28  C   UNL     1      13.064   7.687  18.127  0.00  0.00    +0.133 C 
ATOM     31  C   UNL     1      11.288   8.824  20.051  0.00  0.00    +0.178 C 
ATOM     32  C   UNL     1      11.786   8.446  17.788  0.00  0.00    +0.178 C 
ENDBRANCH  25   8
BRANCH   9  14
ATOM     14  C   UNL     1      24.233   8.490  20.734  0.00  0.00    +0.100 C 
BRANCH  14  17
ATOM      2  O   UNL     1      25.605   7.987  18.807  0.00  0.00    -0.276 OA
ATOM      6  N   UNL     1      25.027   6.283  20.278  0.00  0.00    -0.316 N 
ATOM     17  C   UNL     1      25.034   7.592  19.819  0.00  0.00    +0.213 C 
ATOM     34  H   UNL     1      24.529   6.058  21.134  0.00  0.00    +0.149 HD
BRANCH   6  23
ATOM     23  C   UNL     1      25.711   5.207  19.599  0.00  0.00    +0.101 C 
ATOM     33  C   UNL     1      24.882   3.938  19.594  0.00  0.00    +0.024 C 
ENDBRANCH   6  23
ENDBRANCH  14  17
ENDBRANCH   9  14
TORSDOF 4
ENDMDL
MODEL 3
REMARK VINA RESULT:      -6.8     16.341     20.351
REMARK  Name = 71692850
REMARK  5 active torsions:
REMARK  status: ('A' for Active; 'I' for Inactive)
REMARK    1  A    between atoms: N_6  and  C_23
REMARK    2  A    between atoms: N_8  and  C_25
REMARK    3  A    between atoms: C_9  and  C_14
REMARK    4  A    between atoms: C_14  and  C_17
REMARK    5  A    between atoms: C_23  and  C_33
REMARK                            x       y       z     vdW  Elec       q    Type
REMARK                         _______ _______ _______ _____ _____    ______ ____
ROOT
ATOM      1  O   UNL     1       7.851   5.988   5.464  0.00  0.00    -0.274 OA
ATOM      3  O   UNL     1      12.923   6.940   4.231  0.00  0.00    -0.488 OA
ATOM      5  N   UNL     1       9.456   6.887   6.867  0.00  0.00    -0.300 N 
ATOM      7  N   UNL     1      10.917   4.924   4.840  0.00  0.00    -0.304 NA
ATOM      9  C   UNL     1      10.801   9.473   6.887  0.00  0.00    +0.008 C 
ATOM     10  C   UNL     1      11.540   8.125   6.638  0.00  0.00    +0.032 C 
ATOM     11  C   UNL     1       9.312   9.315   6.497  0.00  0.00    +0.023 C 
ATOM     12  C   UNL     1      10.831   6.970   7.371  0.00  0.00    +0.115 C 
ATOM     13  C   UNL     1       8.661   8.088   7.140  0.00  0.00    +0.108 C 
ATOM     15  C   UNL     1      13.010   8.159   6.963  0.00  0.00    -0.023 C 
ATOM     16  C   UNL     1       8.959   5.910   6.005  0.00  0.00    +0.229 C 
ATOM     18  C   UNL     1      14.057   7.928   6.153  0.00  0.00    +0.010 C 
ATOM     19  C   UNL     1       9.800   4.673   5.746  0.00  0.00    +0.178 C 
ATOM     20  C   UNL     1      14.136   7.515   4.705  0.00  0.00    +0.256 C 
ATOM     21  C   UNL     1      10.556   5.542   3.567  0.00  0.00    +0.120 C 
ATOM     22  C   UNL     1      11.750   5.650   2.633  0.00  0.00    +0.010 A 
ATOM     24  C   UNL     1      12.917   6.367   2.984  0.00  0.00    +0.125 A 
ATOM     25  C   UNL     1      12.742   5.132   0.473  0.00  0.00    +0.030 A 
ATOM     26  C   UNL     1      11.679   5.039   1.370  0.00  0.00    +0.031 A 
ATOM     29  C   UNL     1      13.975   6.459   2.071  0.00  0.00    +0.048 A 
ATOM     30  C   UNL     1      13.885   5.842   0.822  0.00  0.00    +0.027 A 
ATOM     35  H   UNL     1      11.395   4.039   4.665  0.00  0.00    +0.123 HD
ENDROOT
BRANCH  25   8
ATOM      4  O   UNL     1      12.532   3.037  -3.167  0.00  0.00    -0.377 OA
ATOM      8  N   UNL     1      12.655   4.516  -0.780  0.00  0.00    -0.326 N 
ATOM     27  C   UNL     1      11.548   3.580  -1.017  0.00  0.00    +0.133 C 
ATOM     28  C   UNL     1      13.875   4.250  -1.550  0.00  0.00    +0.133 C 
ATOM     31  C   UNL     1      11.320   3.421  -2.517  0.00  0.00    +0.178 C 
ATOM     32  C   UNL     1      13.524   4.053  -3.020  0.00  0.00    +0.178 C 
ENDBRANCH  25   8
BRANCH   9  14
ATOM     14  C   UNL     1      10.928  10.019   8.315  0.00  0.00    +0.100 C 
BRANCH  14  17
ATOM      2  O   UNL     1      10.308  12.308   7.842  0.00  0.00    -0.276 OA
ATOM      6  N   UNL     1       9.211  11.150   9.532  0.00  0.00    -0.316 N 
ATOM     17  C   UNL     1      10.137  11.292   8.509  0.00  0.00    +0.213 C 
ATOM     34  H   UNL     1       9.142  10.262  10.021  0.00  0.00    +0.149 HD
BRANCH   6  23
ATOM     23  C   UNL     1       8.318  12.210   9.940  0.00  0.00    +0.101 C 
ATOM     33  C   UNL     1       8.516  12.574  11.396  0.00  0.00    +0.024 C 
ENDBRANCH   6  23
ENDBRANCH  14  17
ENDBRANCH   9  14
TORSDOF 4
ENDMDL
MODEL 4
REMARK VINA RESULT:      -6.7      3.478      9.937
REMARK  Name = 71692850
REMARK  5 active torsions:
REMARK  status: ('A' for Active; 'I' for Inactive)
REMARK    1  A    between atoms: N_6  and  C_23
REMARK    2  A    between atoms: N_8  and  C_25
REMARK    3  A    between atoms: C_9  and  C_14
REMARK    4  A    between atoms: C_14  and  C_17
REMARK    5  A    between atoms: C_23  and  C_33
REMARK                            x       y       z     vdW  Elec       q    Type
REMARK                         _______ _______ _______ _____ _____    ______ ____
ROOT
ATOM      1  O   UNL     1      17.587  12.181  23.555  0.00  0.00    -0.274 OA
ATOM      3  O   UNL     1      16.593   8.143  20.260  0.00  0.00    -0.488 OA
ATOM      5  N   UNL     1      15.823  12.032  22.064  0.00  0.00    -0.300 N 
ATOM      7  N   UNL     1      18.283  10.440  20.833  0.00  0.00    -0.304 NA
ATOM      9  C   UNL     1      13.438  10.357  22.027  0.00  0.00    +0.008 C 
ATOM     10  C   UNL     1      14.564  10.268  20.955  0.00  0.00    +0.032 C 
ATOM     11  C   UNL     1      14.029  10.931  23.337  0.00  0.00    +0.023 C 
ATOM     12  C   UNL     1      15.254  11.633  20.772  0.00  0.00    +0.115 C 
ATOM     13  C   UNL     1      14.816  12.225  23.111  0.00  0.00    +0.108 C 
ATOM     15  C   UNL     1      14.115   9.701  19.635  0.00  0.00    -0.023 C 
ATOM     16  C   UNL     1      17.176  12.016  22.401  0.00  0.00    +0.229 C 
ATOM     18  C   UNL     1      14.560   8.607  18.993  0.00  0.00    +0.010 C 
ATOM     19  C   UNL     1      18.199  11.822  21.296  0.00  0.00    +0.178 C 
ATOM     20  C   UNL     1      15.658   7.627  19.318  0.00  0.00    +0.256 C 
ATOM     21  C   UNL     1      18.507   9.448  21.882  0.00  0.00    +0.120 C 
ATOM     22  C   UNL     1      18.711   8.056  21.309  0.00  0.00    +0.010 A 
ATOM     24  C   UNL     1      17.732   7.420  20.511  0.00  0.00    +0.125 A 
ATOM     25  C   UNL     1      20.120   6.083  21.117  0.00  0.00    +0.030 A 
ATOM     26  C   UNL     1      19.901   7.370  21.603  0.00  0.00    +0.031 A 
ATOM     29  C   UNL     1      17.962   6.123  20.035  0.00  0.00    +0.048 A 
ATOM     30  C   UNL     1      19.152   5.461  20.336  0.00  0.00    +0.027 A 
ATOM     35  H   UNL     1      19.029  10.376  20.140  0.00  0.00    +0.123 HD
ENDROOT
BRANCH  25   8
ATOM      4  O   UNL     1      23.560   3.926  22.213  0.00  0.00    -0.377 OA
ATOM      8  N   UNL     1      21.312   5.414  21.418  0.00  0.00    -0.326 N 
ATOM     27  C   UNL     1      21.399   3.980  21.112  0.00  0.00    +0.133 C 
ATOM     28  C   UNL     1      22.138   5.864  22.544  0.00  0.00    +0.133 C 
ATOM     31  C   UNL     1      22.863   3.560  21.022  0.00  0.00    +0.178 C 
ATOM     32  C   UNL     1      23.561   5.344  22.379  0.00  0.00    +0.178 C 
ENDBRANCH  25   8
BRANCH   9  14
ATOM     14  C   UNL     1      12.206  11.160  21.595  0.00  0.00    +0.100 C 
BRANCH  14  17
ATOM      2  O   UNL     1      10.551  10.344  23.159  0.00  0.00    -0.276 OA
ATOM      6  N   UNL     1      11.092  12.605  23.139  0.00  0.00    -0.316 N 
ATOM     17  C   UNL     1      11.192  11.290  22.709  0.00  0.00    +0.213 C 
ATOM     34  H   UNL     1      11.674  13.316  22.706  0.00  0.00    +0.149 HD
BRANCH   6  23
ATOM     23  C   UNL     1      10.198  13.023  24.193  0.00  0.00    +0.101 C 
ATOM     33  C   UNL     1      10.956  13.389  25.452  0.00  0.00    +0.024 C 
ENDBRANCH   6  23
ENDBRANCH  14  17
ENDBRANCH   9  14
TORSDOF 4
ENDMDL
MODEL 5
REMARK VINA RESULT:      -6.6     15.744     20.017
REMARK  Name = 71692850
REMARK  5 active torsions:
REMARK  status: ('A' for Active; 'I' for Inactive)
REMARK    1  A    between atoms: N_6  and  C_23
REMARK    2  A    between atoms: N_8  and  C_25
REMARK    3  A    between atoms: C_9  and  C_14
REMARK    4  A    between atoms: C_14  and  C_17
REMARK    5  A    between atoms: C_23  and  C_33
REMARK                            x       y       z     vdW  Elec       q    Type
REMARK                         _______ _______ _______ _____ _____    ______ ____
ROOT
ATOM      1  O   UNL     1       7.851   5.984   5.479  0.00  0.00    -0.274 OA
ATOM      3  O   UNL     1      12.921   6.934   4.235  0.00  0.00    -0.488 OA
ATOM      5  N   UNL     1       9.457   6.893   6.876  0.00  0.00    -0.300 N 
ATOM      7  N   UNL     1      10.917   4.919   4.858  0.00  0.00    -0.304 NA
ATOM      9  C   UNL     1      10.800   9.480   6.879  0.00  0.00    +0.008 C 
ATOM     10  C   UNL     1      11.540   8.131   6.637  0.00  0.00    +0.032 C 
ATOM     11  C   UNL     1       9.310   9.319   6.492  0.00  0.00    +0.023 C 
ATOM     12  C   UNL     1      10.833   6.980   7.377  0.00  0.00    +0.115 C 
ATOM     13  C   UNL     1       8.661   8.094   7.143  0.00  0.00    +0.108 C 
ATOM     15  C   UNL     1      13.010   8.168   6.960  0.00  0.00    -0.023 C 
ATOM     16  C   UNL     1       8.960   5.910   6.020  0.00  0.00    +0.229 C 
ATOM     18  C   UNL     1      14.056   7.933   6.150  0.00  0.00    +0.010 C 
ATOM     19  C   UNL     1       9.802   4.672   5.767  0.00  0.00    +0.178 C 
ATOM     20  C   UNL     1      14.134   7.513   4.704  0.00  0.00    +0.256 C 
ATOM     21  C   UNL     1      10.555   5.529   3.582  0.00  0.00    +0.120 C 
ATOM     22  C   UNL     1      11.747   5.634   2.646  0.00  0.00    +0.010 A 
ATOM     24  C   UNL     1      12.914   6.354   2.991  0.00  0.00    +0.125 A 
ATOM     25  C   UNL     1      12.737   5.104   0.488  0.00  0.00    +0.030 A 
ATOM     26  C   UNL     1      11.675   5.015   1.387  0.00  0.00    +0.031 A 
ATOM     29  C   UNL     1      13.970   6.441   2.076  0.00  0.00    +0.048 A 
ATOM     30  C   UNL     1      13.880   5.817   0.832  0.00  0.00    +0.027 A 
ATOM     35  H   UNL     1      11.396   4.033   4.688  0.00  0.00    +0.123 HD
ENDROOT
BRANCH  25   8
ATOM      4  O   UNL     1      12.514   2.987  -3.138  0.00  0.00    -0.377 OA
ATOM      8  N   UNL     1      12.649   4.481  -0.762  0.00  0.00    -0.326 N 
ATOM     27  C   UNL     1      11.515   3.580  -1.009  0.00  0.00    +0.133 C 
ATOM     28  C   UNL     1      13.871   4.167  -1.509  0.00  0.00    +0.133 C 
ATOM     31  C   UNL     1      11.306   3.416  -2.511  0.00  0.00    +0.178 C 
ATOM     32  C   UNL     1      13.537   3.970  -2.984  0.00  0.00    +0.178 C 
ENDBRANCH  25   8
BRANCH   9  14
ATOM     14  C   UNL     1      10.928  10.034   8.303  0.00  0.00    +0.100 C 
BRANCH  14  17
ATOM      2  O   UNL     1      11.670  12.167   7.437  0.00  0.00    -0.276 OA
ATOM      6  N   UNL     1      12.421  11.452   9.517  0.00  0.00    -0.316 N 
ATOM     17  C   UNL     1      11.696  11.336   8.340  0.00  0.00    +0.213 C 
ATOM     34  H   UNL     1      12.369  10.710  10.209  0.00  0.00    +0.149 HD
BRANCH   6  23
ATOM     23  C   UNL     1      13.250  12.595   9.822  0.00  0.00    +0.101 C 
ATOM     33  C   UNL     1      13.631  12.629  11.288  0.00  0.00    +0.024 C 
ENDBRANCH   6  23
ENDBRANCH  14  17
ENDBRANCH   9  14
TORSDOF 4
ENDMDL
MODEL 6
REMARK VINA RESULT:      -6.5     30.538     32.784
REMARK  Name = 71692850
REMARK  5 active torsions:
REMARK  status: ('A' for Active; 'I' for Inactive)
REMARK    1  A    between atoms: N_6  and  C_23
REMARK    2  A    between atoms: N_8  and  C_25
REMARK    3  A    between atoms: C_9  and  C_14
REMARK    4  A    between atoms: C_14  and  C_17
REMARK    5  A    between atoms: C_23  and  C_33
REMARK                            x       y       z     vdW  Elec       q    Type
REMARK                         _______ _______ _______ _____ _____    ______ ____
ROOT
ATOM      1  O   UNL     1      -6.264 -11.164  10.486  0.00  0.00    -0.274 OA
ATOM      3  O   UNL     1      -6.027 -10.173  15.693  0.00  0.00    -0.488 OA
ATOM      5  N   UNL     1      -4.360 -11.197  11.801  0.00  0.00    -0.300 N 
ATOM      7  N   UNL     1      -6.362  -9.055  13.028  0.00  0.00    -0.304 NA
ATOM      9  C   UNL     1      -3.462 -13.025  13.886  0.00  0.00    +0.008 C 
ATOM     10  C   UNL     1      -3.816 -11.532  14.150  0.00  0.00    +0.032 C 
ATOM     11  C   UNL     1      -4.217 -13.510  12.626  0.00  0.00    +0.023 C 
ATOM     12  C   UNL     1      -3.541 -10.675  12.899  0.00  0.00    +0.115 C 
ATOM     13  C   UNL     1      -4.029 -12.575  11.428  0.00  0.00    +0.108 C 
ATOM     15  C   UNL     1      -3.154 -10.947  15.370  0.00  0.00    -0.023 C 
ATOM     16  C   UNL     1      -5.506 -10.597  11.280  0.00  0.00    +0.229 C 
ATOM     18  C   UNL     1      -3.725 -10.414  16.464  0.00  0.00    +0.010 C 
ATOM     19  C   UNL     1      -5.822  -9.166  11.676  0.00  0.00    +0.178 C 
ATOM     20  C   UNL     1      -5.167 -10.167  16.827  0.00  0.00    +0.256 C 
ATOM     21  C   UNL     1      -7.519  -9.902  13.305  0.00  0.00    +0.120 C 
ATOM     22  C   UNL     1      -8.098  -9.635  14.684  0.00  0.00    +0.010 A 
ATOM     24  C   UNL     1      -7.334  -9.791  15.864  0.00  0.00    +0.125 A 
ATOM     25  C   UNL     1     -10.022  -9.012  16.036  0.00  0.00    +0.030 A 
ATOM     26  C   UNL     1      -9.443  -9.246  14.790  0.00  0.00    +0.031 A 
ATOM     29  C   UNL     1      -7.929  -9.560  17.110  0.00  0.00    +0.048 A 
ATOM     30  C   UNL     1      -9.267  -9.170  17.193  0.00  0.00    +0.027 A 
ATOM     35  H   UNL     1      -6.607  -8.079  13.199  0.00  0.00    +0.123 HD
ENDROOT
BRANCH  25   8
ATOM      4  O   UNL     1     -13.970  -7.630  16.457  0.00  0.00    -0.377 OA
ATOM      8  N   UNL     1     -11.363  -8.623  16.123  0.00  0.00    -0.326 N 
ATOM     27  C   UNL     1     -11.755  -7.347  15.510  0.00  0.00    +0.133 C 
ATOM     28  C   UNL     1     -12.172  -9.040  17.273  0.00  0.00    +0.133 C 
ATOM     31  C   UNL     1     -13.259  -7.339  15.254  0.00  0.00    +0.178 C 
ATOM     32  C   UNL     1     -13.653  -8.941  16.924  0.00  0.00    +0.178 C 
ENDBRANCH  25   8
BRANCH   9  14
ATOM     14  C   UNL     1      -1.962 -13.314  13.759  0.00  0.00    +0.100 C 
BRANCH  14  17
ATOM      2  O   UNL     1      -1.962 -15.557  14.664  0.00  0.00    -0.276 OA
ATOM      6  N   UNL     1      -1.026 -15.167  12.573  0.00  0.00    -0.316 N 
ATOM     17  C   UNL     1      -1.667 -14.797  13.747  0.00  0.00    +0.213 C 
ATOM     34  H   UNL     1      -0.833 -14.461  11.868  0.00  0.00    +0.149 HD
BRANCH   6  23
ATOM     23  C   UNL     1      -0.622 -16.524  12.290  0.00  0.00    +0.101 C 
ATOM     33  C   UNL     1      -0.617 -16.803  10.801  0.00  0.00    +0.024 C 
ENDBRANCH   6  23
ENDBRANCH  14  17
ENDBRANCH   9  14
TORSDOF 4
ENDMDL
MODEL 7
REMARK VINA RESULT:      -6.5     31.187     35.920
REMARK  Name = 71692850
REMARK  5 active torsions:
REMARK  status: ('A' for Active; 'I' for Inactive)
REMARK    1  A    between atoms: N_6  and  C_23
REMARK    2  A    between atoms: N_8  and  C_25
REMARK    3  A    between atoms: C_9  and  C_14
REMARK    4  A    between atoms: C_14  and  C_17
REMARK    5  A    between atoms: C_23  and  C_33
REMARK                            x       y       z     vdW  Elec       q    Type
REMARK                         _______ _______ _______ _____ _____    ______ ____
ROOT
ATOM      1  O   UNL     1     -18.916   7.645  20.518  0.00  0.00    -0.274 OA
ATOM      3  O   UNL     1     -14.148   5.923  22.085  0.00  0.00    -0.488 OA
ATOM      5  N   UNL     1     -18.504   5.987  22.078  0.00  0.00    -0.300 N 
ATOM      7  N   UNL     1     -16.135   5.949  19.960  0.00  0.00    -0.304 NA
ATOM      9  C   UNL     1     -17.416   6.080  24.781  0.00  0.00    +0.008 C 
ATOM     10  C   UNL     1     -16.702   5.368  23.595  0.00  0.00    +0.032 C 
ATOM     11  C   UNL     1     -18.350   7.181  24.224  0.00  0.00    +0.023 C 
ATOM     12  C   UNL     1     -17.730   4.843  22.574  0.00  0.00    +0.115 C 
ATOM     13  C   UNL     1     -19.279   6.664  23.122  0.00  0.00    +0.108 C 
ATOM     15  C   UNL     1     -15.745   4.283  24.013  0.00  0.00    -0.023 C 
ATOM     16  C   UNL     1     -18.378   6.574  20.819  0.00  0.00    +0.229 C 
ATOM     18  C   UNL     1     -14.425   4.189  23.779  0.00  0.00    +0.010 C 
ATOM     19  C   UNL     1     -17.576   5.848  19.754  0.00  0.00    +0.178 C 
ATOM     20  C   UNL     1     -13.476   5.066  23.002  0.00  0.00    +0.256 C 
ATOM     21  C   UNL     1     -15.624   7.309  20.110  0.00  0.00    +0.120 C 
ATOM     22  C   UNL     1     -14.106   7.338  20.190  0.00  0.00    +0.010 A 
ATOM     24  C   UNL     1     -13.393   6.647  21.196  0.00  0.00    +0.125 A 
ATOM     25  C   UNL     1     -12.002   8.170  19.297  0.00  0.00    +0.030 A 
ATOM     26  C   UNL     1     -13.393   8.097  19.248  0.00  0.00    +0.031 A 
ATOM     29  C   UNL     1     -11.996   6.733  21.239  0.00  0.00    +0.048 A 
ATOM     30  C   UNL     1     -11.306   7.491  20.291  0.00  0.00    +0.027 A 
ATOM     35  H   UNL     1     -15.664   5.494  19.177  0.00  0.00    +0.123 HD
ENDROOT
BRANCH  25   8
ATOM      4  O   UNL     1      -9.688  10.300  16.507  0.00  0.00    -0.377 OA
ATOM      8  N   UNL     1     -11.307   8.930  18.350  0.00  0.00    -0.326 N 
ATOM     27  C   UNL     1     -10.836   8.257  17.132  0.00  0.00    +0.133 C 
ATOM     28  C   UNL     1     -10.502  10.077  18.781  0.00  0.00    +0.133 C 
ATOM     31  C   UNL     1     -10.581   9.290  16.039  0.00  0.00    +0.178 C 
ATOM     32  C   UNL     1     -10.264  11.012  17.601  0.00  0.00    +0.178 C 
ENDBRANCH  25   8
BRANCH   9  14
ATOM     14  C   UNL     1     -18.188   5.144  25.719  0.00  0.00    +0.100 C 
BRANCH  14  17
ATOM      2  O   UNL     1     -17.282   6.118  27.740  0.00  0.00    -0.276 OA
ATOM      6  N   UNL     1     -17.440   3.806  27.554  0.00  0.00    -0.316 N 
ATOM     17  C   UNL     1     -17.590   5.112  27.108  0.00  0.00    +0.213 C 
ATOM     34  H   UNL     1     -17.734   3.040  26.956  0.00  0.00    +0.149 HD
BRANCH   6  23
ATOM     23  C   UNL     1     -16.891   3.474  28.848  0.00  0.00    +0.101 C 
ATOM     33  C   UNL     1     -15.398   3.228  28.770  0.00  0.00    +0.024 C 
ENDBRANCH   6  23
ENDBRANCH  14  17
ENDBRANCH   9  14
TORSDOF 4
ENDMDL
MODEL 8
REMARK VINA RESULT:      -6.5     31.652     35.034
REMARK  Name = 71692850
REMARK  5 active torsions:
REMARK  status: ('A' for Active; 'I' for Inactive)
REMARK    1  A    between atoms: N_6  and  C_23
REMARK    2  A    between atoms: N_8  and  C_25
REMARK    3  A    between atoms: C_9  and  C_14
REMARK    4  A    between atoms: C_14  and  C_17
REMARK    5  A    between atoms: C_23  and  C_33
REMARK                            x       y       z     vdW  Elec       q    Type
REMARK                         _______ _______ _______ _____ _____    ______ ____
ROOT
ATOM      1  O   UNL     1     -17.544   9.524  18.963  0.00  0.00    -0.274 OA
ATOM      3  O   UNL     1     -13.356   6.958  20.969  0.00  0.00    -0.488 OA
ATOM      5  N   UNL     1     -15.327   9.870  18.398  0.00  0.00    -0.300 N 
ATOM      7  N   UNL     1     -15.430   8.943  21.436  0.00  0.00    -0.304 NA
ATOM      9  C   UNL     1     -13.412   8.237  16.927  0.00  0.00    +0.008 C 
ATOM     10  C   UNL     1     -13.253   8.594  18.434  0.00  0.00    +0.032 C 
ATOM     11  C   UNL     1     -14.910   8.308  16.544  0.00  0.00    +0.023 C 
ATOM     12  C   UNL     1     -13.904   9.956  18.745  0.00  0.00    +0.115 C 
ATOM     13  C   UNL     1     -15.567   9.622  16.974  0.00  0.00    +0.108 C 
ATOM     15  C   UNL     1     -11.834   8.540  18.934  0.00  0.00    -0.023 C 
ATOM     16  C   UNL     1     -16.384   9.782  19.303  0.00  0.00    +0.229 C 
ATOM     18  C   UNL     1     -11.315   7.780  19.914  0.00  0.00    +0.010 C 
ATOM     19  C   UNL     1     -16.110  10.051  20.772  0.00  0.00    +0.178 C 
ATOM     20  C   UNL     1     -11.946   6.792  20.862  0.00  0.00    +0.256 C 
ATOM     21  C   UNL     1     -16.080   7.643  21.294  0.00  0.00    +0.120 C 
ATOM     22  C   UNL     1     -15.387   6.570  22.117  0.00  0.00    +0.010 A 
ATOM     24  C   UNL     1     -14.026   6.238  21.926  0.00  0.00    +0.125 A 
ATOM     25  C   UNL     1     -15.540   4.865  23.844  0.00  0.00    +0.030 A 
ATOM     26  C   UNL     1     -16.130   5.871  23.082  0.00  0.00    +0.031 A 
ATOM     29  C   UNL     1     -13.447   5.220  22.693  0.00  0.00    +0.048 A 
ATOM     30  C   UNL     1     -14.203   4.539  23.649  0.00  0.00    +0.027 A 
ATOM     35  H   UNL     1     -15.337   9.169  22.427  0.00  0.00    +0.123 HD
ENDROOT
BRANCH  25   8
ATOM      4  O   UNL     1     -17.954   2.688  26.512  0.00  0.00    -0.377 OA
ATOM      8  N   UNL     1     -16.295   4.178  24.802  0.00  0.00    -0.326 N 
ATOM     27  C   UNL     1     -16.187   2.714  24.850  0.00  0.00    +0.133 C 
ATOM     28  C   UNL     1     -17.580   4.726  25.250  0.00  0.00    +0.133 C 
ATOM     31  C   UNL     1     -16.642   2.209  26.215  0.00  0.00    +0.178 C 
ATOM     32  C   UNL     1     -17.962   4.113  26.593  0.00  0.00    +0.178 C 
ENDBRANCH  25   8
BRANCH   9  14
ATOM     14  C   UNL     1     -12.572   9.095  15.974  0.00  0.00    +0.100 C 
BRANCH  14  17
ATOM      2  O   UNL     1     -10.273   8.343  16.017  0.00  0.00    -0.276 OA
ATOM      6  N   UNL     1     -11.659   7.689  14.269  0.00  0.00    -0.316 N 
ATOM     17  C   UNL     1     -11.364   8.349  15.453  0.00  0.00    +0.213 C 
ATOM     34  H   UNL     1     -12.598   7.751  13.887  0.00  0.00    +0.149 HD
BRANCH   6  23
ATOM     23  C   UNL     1     -10.692   6.898  13.546  0.00  0.00    +0.101 C 
ATOM     33  C   UNL     1      -9.973   7.722  12.498  0.00  0.00    +0.024 C 
ENDBRANCH   6  23
ENDBRANCH  14  17
ENDBRANCH   9  14
TORSDOF 4
ENDMDL
MODEL 9
REMARK VINA RESULT:      -6.5     30.884     33.498
REMARK  Name = 71692850
REMARK  5 active torsions:
REMARK  status: ('A' for Active; 'I' for Inactive)
REMARK    1  A    between atoms: N_6  and  C_23
REMARK    2  A    between atoms: N_8  and  C_25
REMARK    3  A    between atoms: C_9  and  C_14
REMARK    4  A    between atoms: C_14  and  C_17
REMARK    5  A    between atoms: C_23  and  C_33
REMARK                            x       y       z     vdW  Elec       q    Type
REMARK                         _______ _______ _______ _____ _____    ______ ____
ROOT
ATOM      1  O   UNL     1      -9.449 -11.109  10.260  0.00  0.00    -0.274 OA
ATOM      3  O   UNL     1      -4.552 -10.297  12.136  0.00  0.00    -0.488 OA
ATOM      5  N   UNL     1      -7.638 -10.312   9.061  0.00  0.00    -0.300 N 
ATOM      7  N   UNL     1      -7.308  -9.366  12.077  0.00  0.00    -0.304 NA
ATOM      9  C   UNL     1      -5.184 -11.595   8.149  0.00  0.00    +0.008 C 
ATOM     10  C   UNL     1      -5.210 -10.439   9.193  0.00  0.00    +0.032 C 
ATOM     11  C   UNL     1      -6.546 -12.329   8.172  0.00  0.00    +0.023 C 
ATOM     12  C   UNL     1      -6.414  -9.510   8.950  0.00  0.00    +0.115 C 
ATOM     13  C   UNL     1      -7.735 -11.371   8.054  0.00  0.00    +0.108 C 
ATOM     15  C   UNL     1      -3.925  -9.659   9.280  0.00  0.00    -0.023 C 
ATOM     16  C   UNL     1      -8.537 -10.285  10.126  0.00  0.00    +0.229 C 
ATOM     18  C   UNL     1      -3.116  -9.483  10.339  0.00  0.00    +0.010 C 
ATOM     19  C   UNL     1      -8.419  -9.172  11.151  0.00  0.00    +0.178 C 
ATOM     20  C   UNL     1      -3.224  -9.937  11.772  0.00  0.00    +0.256 C 
ATOM     21  C   UNL     1      -7.287 -10.658  12.758  0.00  0.00    +0.120 C 
ATOM     22  C   UNL     1      -6.179 -10.733  13.796  0.00  0.00    +0.010 A 
ATOM     24  C   UNL     1      -4.818 -10.562  13.456  0.00  0.00    +0.125 A 
ATOM     25  C   UNL     1      -5.534 -11.106  16.111  0.00  0.00    +0.030 A 
ATOM     26  C   UNL     1      -6.520 -11.006  15.131  0.00  0.00    +0.031 A 
ATOM     29  C   UNL     1      -3.837 -10.671  14.449  0.00  0.00    +0.048 A 
ATOM     30  C   UNL     1      -4.196 -10.940  15.770  0.00  0.00    +0.027 A 
ATOM     35  H   UNL     1      -7.330  -8.617  12.770  0.00  0.00    +0.123 HD
ENDROOT
BRANCH  25   8
ATOM      4  O   UNL     1      -6.774 -11.699  20.085  0.00  0.00    -0.377 OA
ATOM      8  N   UNL     1      -5.890 -11.377  17.437  0.00  0.00    -0.326 N 
ATOM     27  C   UNL     1      -7.277 -11.777  17.713  0.00  0.00    +0.133 C 
ATOM     28  C   UNL     1      -5.209 -10.683  18.534  0.00  0.00    +0.133 C 
ATOM     31  C   UNL     1      -7.347 -12.503  19.053  0.00  0.00    +0.178 C 
ATOM     32  C   UNL     1      -5.390 -11.465  19.830  0.00  0.00    +0.178 C 
ENDBRANCH  25   8
BRANCH   9  14
ATOM     14  C   UNL     1      -4.831 -11.161   6.722  0.00  0.00    +0.100 C 
BRANCH  14  17
ATOM      2  O   UNL     1      -3.475 -13.146   6.462  0.00  0.00    -0.276 OA
ATOM      6  N   UNL     1      -4.404 -12.140   4.584  0.00  0.00    -0.316 N 
ATOM     17  C   UNL     1      -4.154 -12.265   5.943  0.00  0.00    +0.213 C 
ATOM     34  H   UNL     1      -4.987 -11.376   4.254  0.00  0.00    +0.149 HD
BRANCH   6  23
ATOM     23  C   UNL     1      -3.879 -13.056   3.598  0.00  0.00    +0.101 C 
ATOM     33  C   UNL     1      -2.582 -12.548   3.002  0.00  0.00    +0.024 C 
ENDBRANCH   6  23
ENDBRANCH  14  17
ENDBRANCH   9  14
TORSDOF 4
ENDMDL
MODEL 10
REMARK VINA RESULT:      -6.4     24.018     26.523
REMARK  Name = 71692850
REMARK  5 active torsions:
REMARK  status: ('A' for Active; 'I' for Inactive)
REMARK    1  A    between atoms: N_6  and  C_23
REMARK    2  A    between atoms: N_8  and  C_25
REMARK    3  A    between atoms: C_9  and  C_14
REMARK    4  A    between atoms: C_14  and  C_17
REMARK    5  A    between atoms: C_23  and  C_33
REMARK                            x       y       z     vdW  Elec       q    Type
REMARK                         _______ _______ _______ _____ _____    ______ ____
ROOT
ATOM      1  O   UNL     1      21.822  -7.126   3.534  0.00  0.00    -0.274 OA
ATOM      3  O   UNL     1      18.874  -9.540  -0.159  0.00  0.00    -0.488 OA
ATOM      5  N   UNL     1      21.685  -6.548   1.298  0.00  0.00    -0.300 N 
ATOM      7  N   UNL     1      21.241  -9.686   1.526  0.00  0.00    -0.304 NA
ATOM      9  C   UNL     1      19.544  -5.355  -0.281  0.00  0.00    +0.008 C 
ATOM     10  C   UNL     1      20.083  -6.797  -0.519  0.00  0.00    +0.032 C 
ATOM     11  C   UNL     1      19.822  -4.945   1.185  0.00  0.00    +0.023 C 
ATOM     12  C   UNL     1      21.568  -6.898  -0.122  0.00  0.00    +0.115 C 
ATOM     13  C   UNL     1      21.280  -5.171   1.595  0.00  0.00    +0.108 C 
ATOM     15  C   UNL     1      19.852  -7.319  -1.912  0.00  0.00    -0.023 C 
ATOM     16  C   UNL     1      21.917  -7.442   2.342  0.00  0.00    +0.229 C 
ATOM     18  C   UNL     1      19.162  -8.405  -2.300  0.00  0.00    +0.010 C 
ATOM     19  C   UNL     1      22.343  -8.859   2.007  0.00  0.00    +0.178 C 
ATOM     20  C   UNL     1      18.449  -9.477  -1.516  0.00  0.00    +0.256 C 
ATOM     21  C   UNL     1      20.069  -9.725   2.397  0.00  0.00    +0.120 C 
ATOM     22  C   UNL     1      19.022 -10.704   1.894  0.00  0.00    +0.010 A 
ATOM     24  C   UNL     1      18.430 -10.581   0.616  0.00  0.00    +0.125 A 
ATOM     25  C   UNL     1      17.638 -12.658   2.325  0.00  0.00    +0.030 A 
ATOM     26  C   UNL     1      18.612 -11.750   2.738  0.00  0.00    +0.031 A 
ATOM     29  C   UNL     1      17.448 -11.496   0.216  0.00  0.00    +0.048 A 
ATOM     30  C   UNL     1      17.057 -12.530   1.069  0.00  0.00    +0.027 A 
ATOM     35  H   UNL     1      21.588 -10.635   1.382  0.00  0.00    +0.123 HD
ENDROOT
BRANCH  25   8
ATOM      4  O   UNL     1      16.706 -15.769   4.996  0.00  0.00    -0.377 OA
ATOM      8  N   UNL     1      17.242 -13.694   3.178  0.00  0.00    -0.326 N 
ATOM     27  C   UNL     1      17.186 -13.421   4.620  0.00  0.00    +0.133 C 
ATOM     28  C   UNL     1      17.524 -15.087   2.815  0.00  0.00    +0.133 C 
ATOM     31  C   UNL     1      16.281 -14.441   5.302  0.00  0.00    +0.178 C 
ATOM     32  C   UNL     1      16.602 -16.019   3.594  0.00  0.00    +0.178 C 
ENDBRANCH  25   8
BRANCH   9  14
ATOM     14  C   UNL     1      20.094  -4.299  -1.248  0.00  0.00    +0.100 C 
BRANCH  14  17
ATOM      2  O   UNL     1      19.104  -2.202  -1.936  0.00  0.00    -0.276 OA
ATOM      6  N   UNL     1      17.884  -4.169  -2.150  0.00  0.00    -0.316 N 
ATOM     17  C   UNL     1      19.000  -3.418  -1.809  0.00  0.00    +0.213 C 
ATOM     34  H   UNL     1      17.900  -5.175  -2.012  0.00  0.00    +0.149 HD
BRANCH   6  23
ATOM     23  C   UNL     1      16.685  -3.589  -2.708  0.00  0.00    +0.101 C 
ATOM     33  C   UNL     1      15.875  -4.615  -3.472  0.00  0.00    +0.024 C 
ENDBRANCH   6  23
ENDBRANCH  14  17
ENDBRANCH   9  14
TORSDOF 4
ENDMDL
