MODEL 1
REMARK VINA RESULT:      -6.6      0.000      0.000
REMARK  Name = 26742846
REMARK  4 active torsions:
REMARK  status: ('A' for Active; 'I' for Inactive)
REMARK    1  A    between atoms: N_5  and  C_17
REMARK    2  A    between atoms: N_6  and  C_19
REMARK    3  A    between atoms: C_17  and  C_19
REMARK    4  A    between atoms: C_18  and  C_20
REMARK                            x       y       z     vdW  Elec       q    Type
REMARK                         _______ _______ _______ _____ _____    ______ ____
ROOT
ATOM      1  O   UNL     1      -5.865 -11.746  10.385  0.00  0.00    -0.276 OA
ATOM      2  O   UNL     1      -1.725 -10.426  16.386  0.00  0.00    -0.270 OA
ATOM      4  N   UNL     1      -2.763 -12.088  15.111  0.00  0.00    -0.297 N 
ATOM      5  N   UNL     1      -4.094 -10.305  10.795  0.00  0.00    -0.300 N 
ATOM      8  C   UNL     1      -2.084 -11.973  12.731  0.00  0.00    +0.011 C 
ATOM      9  C   UNL     1      -3.288 -12.884  12.385  0.00  0.00    +0.004 C 
ATOM     10  C   UNL     1      -4.423 -12.748  13.419  0.00  0.00    +0.023 C 
ATOM     11  C   UNL     1      -1.641 -12.235  14.184  0.00  0.00    +0.112 C 
ATOM     12  C   UNL     1      -2.321 -10.466  12.517  0.00  0.00    +0.024 C 
ATOM     13  C   UNL     1      -3.781 -12.752  10.938  0.00  0.00    +0.100 C 
ATOM     14  C   UNL     1      -3.901 -12.973  14.837  0.00  0.00    +0.108 C 
ATOM     15  C   UNL     1      -2.675 -10.105  11.078  0.00  0.00    +0.108 C 
ATOM     16  C   UNL     1      -4.681 -11.559  10.676  0.00  0.00    +0.216 C 
ATOM     18  C   UNL     1      -2.681 -11.167  16.158  0.00  0.00    +0.247 C 
ENDROOT
BRANCH  18  20
ATOM     20  C   UNL     1      -3.830 -11.042  17.062  0.00  0.00    +0.037 A 
ATOM     24  C   UNL     1      -3.841 -11.730  18.275  0.00  0.00    +0.013 A 
ATOM     25  C   UNL     1      -4.910 -10.234  16.709  0.00  0.00    +0.013 A 
ATOM     26  C   UNL     1      -4.933 -11.611  19.135  0.00  0.00    +0.001 A 
ATOM     27  C   UNL     1      -6.002 -10.114  17.569  0.00  0.00    +0.001 A 
ATOM     28  C   UNL     1      -6.013 -10.803  18.781  0.00  0.00    +0.000 A 
ENDBRANCH  18  20
BRANCH   5  17
ATOM     17  C   UNL     1      -4.905  -9.103  10.653  0.00  0.00    +0.126 C 
BRANCH  17  19
ATOM     19  C   UNL     1      -4.850  -8.538   9.243  0.00  0.00    +0.128 C 
BRANCH  19   6
ATOM      3  O   UNL     1      -5.088 -10.505   6.983  0.00  0.00    -0.253 OA
ATOM      6  N   UNL     1      -6.000  -8.912   8.467  0.00  0.00    -0.283 N 
ATOM      7  N   UNL     1      -7.357  -9.929   6.971  0.00  0.00    -0.298 N 
ATOM     21  C   UNL     1      -7.328  -8.396   8.749  0.00  0.00    +0.128 C 
ATOM     22  C   UNL     1      -8.211  -8.997   7.663  0.00  0.00    +0.124 C 
ATOM     23  C   UNL     1      -6.029  -9.858   7.423  0.00  0.00    +0.302 C 
ATOM     29  H   UNL     1      -7.664 -10.531   6.213  0.00  0.00    +0.150 HD
ENDBRANCH  19   6
ENDBRANCH  17  19
ENDBRANCH   5  17
TORSDOF 4
ENDMDL
MODEL 2
REMARK VINA RESULT:      -6.6      1.682      2.265
REMARK  Name = 26742846
REMARK  4 active torsions:
REMARK  status: ('A' for Active; 'I' for Inactive)
REMARK    1  A    between atoms: N_5  and  C_17
REMARK    2  A    between atoms: N_6  and  C_19
REMARK    3  A    between atoms: C_17  and  C_19
REMARK    4  A    between atoms: C_18  and  C_20
REMARK                            x       y       z     vdW  Elec       q    Type
REMARK                         _______ _______ _______ _____ _____    ______ ____
ROOT
ATOM      1  O   UNL     1      -5.763 -11.865  10.122  0.00  0.00    -0.276 OA
ATOM      2  O   UNL     1      -1.871 -10.217  16.207  0.00  0.00    -0.270 OA
ATOM      4  N   UNL     1      -2.808 -11.953  14.953  0.00  0.00    -0.297 N 
ATOM      5  N   UNL     1      -4.056 -10.350  10.542  0.00  0.00    -0.300 N 
ATOM      8  C   UNL     1      -2.056 -11.887  12.593  0.00  0.00    +0.011 C 
ATOM      9  C   UNL     1      -3.215 -12.850  12.239  0.00  0.00    +0.004 C 
ATOM     10  C   UNL     1      -4.388 -12.722  13.231  0.00  0.00    +0.023 C 
ATOM     11  C   UNL     1      -1.652 -12.089  14.068  0.00  0.00    +0.112 C 
ATOM     12  C   UNL     1      -2.337 -10.396  12.324  0.00  0.00    +0.024 C 
ATOM     13  C   UNL     1      -3.664 -12.780  10.773  0.00  0.00    +0.100 C 
ATOM     14  C   UNL     1      -3.906 -12.885  14.671  0.00  0.00    +0.108 C 
ATOM     15  C   UNL     1      -2.654 -10.093  10.864  0.00  0.00    +0.108 C 
ATOM     16  C   UNL     1      -4.596 -11.628  10.445  0.00  0.00    +0.216 C 
ATOM     18  C   UNL     1      -2.792 -10.998  15.972  0.00  0.00    +0.247 C 
ENDROOT
BRANCH  18  20
ATOM     20  C   UNL     1      -3.974 -10.885  16.835  0.00  0.00    +0.037 A 
ATOM     24  C   UNL     1      -4.000 -11.533  18.070  0.00  0.00    +0.013 A 
ATOM     25  C   UNL     1      -5.071 -10.130  16.420  0.00  0.00    +0.013 A 
ATOM     26  C   UNL     1      -5.123 -11.425  18.891  0.00  0.00    +0.001 A 
ATOM     27  C   UNL     1      -6.194 -10.022  17.240  0.00  0.00    +0.001 A 
ATOM     28  C   UNL     1      -6.220 -10.670  18.475  0.00  0.00    +0.000 A 
ENDBRANCH  18  20
BRANCH   5  17
ATOM     17  C   UNL     1      -4.902  -9.183  10.336  0.00  0.00    +0.126 C 
BRANCH  17  19
ATOM     19  C   UNL     1      -5.646  -8.784  11.601  0.00  0.00    +0.128 C 
BRANCH  19   6
ATOM      3  O   UNL     1      -7.436  -9.879  13.751  0.00  0.00    -0.253 OA
ATOM      6  N   UNL     1      -7.036  -9.142  11.545  0.00  0.00    -0.283 N 
ATOM      7  N   UNL     1      -9.114  -9.824  12.119  0.00  0.00    -0.298 N 
ATOM     21  C   UNL     1      -7.845  -8.933  10.357  0.00  0.00    +0.128 C 
ATOM     22  C   UNL     1      -9.210  -9.503  10.717  0.00  0.00    +0.124 C 
ATOM     23  C   UNL     1      -7.811  -9.643  12.609  0.00  0.00    +0.302 C 
ATOM     29  H   UNL     1      -9.883 -10.183  12.676  0.00  0.00    +0.150 HD
ENDBRANCH  19   6
ENDBRANCH  17  19
ENDBRANCH   5  17
TORSDOF 4
ENDMDL
MODEL 3
REMARK VINA RESULT:      -6.5     27.894     30.104
REMARK  Name = 26742846
REMARK  4 active torsions:
REMARK  status: ('A' for Active; 'I' for Inactive)
REMARK    1  A    between atoms: N_5  and  C_17
REMARK    2  A    between atoms: N_6  and  C_19
REMARK    3  A    between atoms: C_17  and  C_19
REMARK    4  A    between atoms: C_18  and  C_20
REMARK                            x       y       z     vdW  Elec       q    Type
REMARK                         _______ _______ _______ _____ _____    ______ ____
ROOT
ATOM      1  O   UNL     1      12.140  10.938  24.503  0.00  0.00    -0.276 OA
ATOM      2  O   UNL     1      14.620   8.690  17.894  0.00  0.00    -0.270 OA
ATOM      4  N   UNL     1      13.399   8.066  19.787  0.00  0.00    -0.297 N 
ATOM      5  N   UNL     1      12.300  11.983  22.438  0.00  0.00    -0.300 N 
ATOM      8  C   UNL     1      11.575   9.672  20.269  0.00  0.00    +0.011 C 
ATOM      9  C   UNL     1      11.461   9.057  21.685  0.00  0.00    +0.004 C 
ATOM     10  C   UNL     1      12.792   8.428  22.143  0.00  0.00    +0.023 C 
ATOM     11  C   UNL     1      12.138   8.619  19.293  0.00  0.00    +0.112 C 
ATOM     12  C   UNL     1      12.406  10.967  20.182  0.00  0.00    +0.024 C 
ATOM     13  C   UNL     1      10.855   9.999  22.733  0.00  0.00    +0.100 C 
ATOM     14  C   UNL     1      13.312   7.434  21.108  0.00  0.00    +0.108 C 
ATOM     15  C   UNL     1      11.861  12.097  21.049  0.00  0.00    +0.108 C 
ATOM     16  C   UNL     1      11.821  11.015  23.314  0.00  0.00    +0.216 C 
ATOM     18  C   UNL     1      14.550   8.159  19.002  0.00  0.00    +0.247 C 
ENDROOT
BRANCH  18  20
ATOM     20  C   UNL     1      15.798   7.600  19.534  0.00  0.00    +0.037 A 
ATOM     24  C   UNL     1      16.275   6.379  19.057  0.00  0.00    +0.013 A 
ATOM     25  C   UNL     1      16.508   8.290  20.516  0.00  0.00    +0.013 A 
ATOM     26  C   UNL     1      17.462   5.848  19.562  0.00  0.00    +0.001 A 
ATOM     27  C   UNL     1      17.695   7.759  21.021  0.00  0.00    +0.001 A 
ATOM     28  C   UNL     1      18.171   6.538  20.545  0.00  0.00    +0.000 A 
ENDBRANCH  18  20
BRANCH   5  17
ATOM     17  C   UNL     1      13.302  12.941  22.886  0.00  0.00    +0.126 C 
BRANCH  17  19
ATOM     19  C   UNL     1      12.679  14.249  23.344  0.00  0.00    +0.128 C 
BRANCH  19   6
ATOM      3  O   UNL     1      10.199  14.106  25.035  0.00  0.00    -0.253 OA
ATOM      6  N   UNL     1      12.536  14.308  24.773  0.00  0.00    -0.283 N 
ATOM      7  N   UNL     1      11.658  14.293  26.856  0.00  0.00    -0.298 N 
ATOM     21  C   UNL     1      13.679  14.376  25.665  0.00  0.00    +0.128 C 
ATOM     22  C   UNL     1      13.073  14.483  27.057  0.00  0.00    +0.124 C 
ATOM     23  C   UNL     1      11.328  14.222  25.493  0.00  0.00    +0.302 C 
ATOM     29  H   UNL     1      10.973  14.262  27.605  0.00  0.00    +0.150 HD
ENDBRANCH  19   6
ENDBRANCH  17  19
ENDBRANCH   5  17
TORSDOF 4
ENDMDL
MODEL 4
REMARK VINA RESULT:      -6.3     27.727     29.442
REMARK  Name = 26742846
REMARK  4 active torsions:
REMARK  status: ('A' for Active; 'I' for Inactive)
REMARK    1  A    between atoms: N_5  and  C_17
REMARK    2  A    between atoms: N_6  and  C_19
REMARK    3  A    between atoms: C_17  and  C_19
REMARK    4  A    between atoms: C_18  and  C_20
REMARK                            x       y       z     vdW  Elec       q    Type
REMARK                         _______ _______ _______ _____ _____    ______ ____
ROOT
ATOM      1  O   UNL     1      13.500  12.509  20.540  0.00  0.00    -0.276 OA
ATOM      2  O   UNL     1      16.307   5.928  18.614  0.00  0.00    -0.270 OA
ATOM      4  N   UNL     1      15.156   7.099  20.278  0.00  0.00    -0.297 N 
ATOM      5  N   UNL     1      13.546  11.337  18.538  0.00  0.00    -0.300 N 
ATOM      8  C   UNL     1      13.139   8.223  19.379  0.00  0.00    +0.011 C 
ATOM      9  C   UNL     1      13.091   9.080  20.668  0.00  0.00    +0.004 C 
ATOM     10  C   UNL     1      14.487   9.232  21.304  0.00  0.00    +0.023 C 
ATOM     11  C   UNL     1      13.840   6.882  19.679  0.00  0.00    +0.112 C 
ATOM     12  C   UNL     1      13.801   8.902  18.165  0.00  0.00    +0.024 C 
ATOM     13  C   UNL     1      12.361  10.419  20.504  0.00  0.00    +0.100 C 
ATOM     14  C   UNL     1      15.138   7.869  21.527  0.00  0.00    +0.108 C 
ATOM     15  C   UNL     1      13.109  10.193  17.741  0.00  0.00    +0.108 C 
ATOM     16  C   UNL     1      13.185  11.523  19.868  0.00  0.00    +0.216 C 
ATOM     18  C   UNL     1      16.294   6.574  19.661  0.00  0.00    +0.247 C 
ENDROOT
BRANCH  18  20
ATOM     20  C   UNL     1      17.598   6.820  20.289  0.00  0.00    +0.037 A 
ATOM     24  C   UNL     1      17.839   8.026  20.946  0.00  0.00    +0.013 A 
ATOM     25  C   UNL     1      18.595   5.847  20.228  0.00  0.00    +0.013 A 
ATOM     26  C   UNL     1      19.078   8.260  21.544  0.00  0.00    +0.001 A 
ATOM     27  C   UNL     1      19.834   6.080  20.825  0.00  0.00    +0.001 A 
ATOM     28  C   UNL     1      20.075   7.286  21.482  0.00  0.00    +0.000 A 
ENDBRANCH  18  20
BRANCH   5  17
ATOM     17  C   UNL     1      14.414  12.300  17.876  0.00  0.00    +0.126 C 
BRANCH  17  19
ATOM     19  C   UNL     1      14.242  12.282  16.366  0.00  0.00    +0.128 C 
BRANCH  19   6
ATOM      3  O   UNL     1      14.951  10.086  14.441  0.00  0.00    -0.253 OA
ATOM      6  N   UNL     1      15.480  12.021  15.684  0.00  0.00    -0.283 N 
ATOM      7  N   UNL     1      17.053  11.113  14.337  0.00  0.00    -0.298 N 
ATOM     21  C   UNL     1      16.627  12.906  15.791  0.00  0.00    +0.128 C 
ATOM     22  C   UNL     1      17.715  12.223  14.974  0.00  0.00    +0.124 C 
ATOM     23  C   UNL     1      15.729  10.968  14.783  0.00  0.00    +0.302 C 
ATOM     29  H   UNL     1      17.500  10.481  13.680  0.00  0.00    +0.150 HD
ENDBRANCH  19   6
ENDBRANCH  17  19
ENDBRANCH   5  17
TORSDOF 4
ENDMDL
MODEL 5
REMARK VINA RESULT:      -6.2      3.926      8.155
REMARK  Name = 26742846
REMARK  4 active torsions:
REMARK  status: ('A' for Active; 'I' for Inactive)
REMARK    1  A    between atoms: N_5  and  C_17
REMARK    2  A    between atoms: N_6  and  C_19
REMARK    3  A    between atoms: C_17  and  C_19
REMARK    4  A    between atoms: C_18  and  C_20
REMARK                            x       y       z     vdW  Elec       q    Type
REMARK                         _______ _______ _______ _____ _____    ______ ____
ROOT
ATOM      1  O   UNL     1      -6.927  -9.755  17.993  0.00  0.00    -0.276 OA
ATOM      2  O   UNL     1      -4.264 -13.208  12.003  0.00  0.00    -0.270 OA
ATOM      4  N   UNL     1      -3.698 -11.950  13.890  0.00  0.00    -0.297 N 
ATOM      5  N   UNL     1      -7.445 -11.774  16.974  0.00  0.00    -0.300 N 
ATOM      8  C   UNL     1      -4.591 -12.963  15.968  0.00  0.00    +0.011 C 
ATOM      9  C   UNL     1      -4.326 -11.620  16.689  0.00  0.00    +0.004 C 
ATOM     10  C   UNL     1      -4.353 -10.430  15.710  0.00  0.00    +0.023 C 
ATOM     11  C   UNL     1      -3.620 -13.110  14.779  0.00  0.00    +0.112 C 
ATOM     12  C   UNL     1      -6.041 -13.176  15.491  0.00  0.00    +0.024 C 
ATOM     13  C   UNL     1      -5.199 -11.390  17.930  0.00  0.00    +0.100 C 
ATOM     14  C   UNL     1      -3.405 -10.666  14.536  0.00  0.00    +0.108 C 
ATOM     15  C   UNL     1      -7.063 -13.140  16.622  0.00  0.00    +0.108 C 
ATOM     16  C   UNL     1      -6.602 -10.892  17.641  0.00  0.00    +0.216 C 
ATOM     18  C   UNL     1      -4.018 -12.130  12.543  0.00  0.00    +0.247 C 
ENDROOT
BRANCH  18  20
ATOM     20  C   UNL     1      -4.095 -10.942  11.685  0.00  0.00    +0.037 A 
ATOM     24  C   UNL     1      -5.319 -10.305  11.483  0.00  0.00    +0.013 A 
ATOM     25  C   UNL     1      -2.943 -10.449  11.072  0.00  0.00    +0.013 A 
ATOM     26  C   UNL     1      -5.392  -9.175  10.668  0.00  0.00    +0.001 A 
ATOM     27  C   UNL     1      -3.015  -9.319  10.257  0.00  0.00    +0.001 A 
ATOM     28  C   UNL     1      -4.240  -8.683  10.055  0.00  0.00    +0.000 A 
ENDBRANCH  18  20
BRANCH   5  17
ATOM     17  C   UNL     1      -8.778 -11.347  16.573  0.00  0.00    +0.126 C 
BRANCH  17  19
ATOM     19  C   UNL     1      -9.867 -12.035  17.379  0.00  0.00    +0.128 C 
BRANCH  19   6
ATOM      3  O   UNL     1      -8.721 -11.734  20.141  0.00  0.00    -0.253 OA
ATOM      6  N   UNL     1     -10.317 -11.226  18.479  0.00  0.00    -0.283 N 
ATOM      7  N   UNL     1     -10.463 -10.209  20.493  0.00  0.00    -0.298 N 
ATOM     21  C   UNL     1     -11.441 -10.313  18.362  0.00  0.00    +0.128 C 
ATOM     22  C   UNL     1     -11.601  -9.722  19.755  0.00  0.00    +0.124 C 
ATOM     23  C   UNL     1      -9.712 -11.133  19.747  0.00  0.00    +0.302 C 
ATOM     29  H   UNL     1     -10.252  -9.954  21.453  0.00  0.00    +0.150 HD
ENDBRANCH  19   6
ENDBRANCH  17  19
ENDBRANCH   5  17
TORSDOF 4
ENDMDL
MODEL 6
REMARK VINA RESULT:      -6.1     23.746     25.836
REMARK  Name = 26742846
REMARK  4 active torsions:
REMARK  status: ('A' for Active; 'I' for Inactive)
REMARK    1  A    between atoms: N_5  and  C_17
REMARK    2  A    between atoms: N_6  and  C_19
REMARK    3  A    between atoms: C_17  and  C_19
REMARK    4  A    between atoms: C_18  and  C_20
REMARK                            x       y       z     vdW  Elec       q    Type
REMARK                         _______ _______ _______ _____ _____    ______ ____
ROOT
ATOM      1  O   UNL     1      15.879   8.240   5.013  0.00  0.00    -0.276 OA
ATOM      2  O   UNL     1       8.531   7.298   5.125  0.00  0.00    -0.270 OA
ATOM      4  N   UNL     1      10.319   8.472   6.068  0.00  0.00    -0.297 N 
ATOM      5  N   UNL     1      14.300   7.936   3.340  0.00  0.00    -0.300 N 
ATOM      8  C   UNL     1      11.689   9.597   4.337  0.00  0.00    +0.011 C 
ATOM      9  C   UNL     1      12.806   9.775   5.394  0.00  0.00    +0.004 C 
ATOM     10  C   UNL     1      12.732   8.695   6.491  0.00  0.00    +0.023 C 
ATOM     11  C   UNL     1      10.321   9.516   5.042  0.00  0.00    +0.112 C 
ATOM     12  C   UNL     1      11.867   8.392   3.393  0.00  0.00    +0.024 C 
ATOM     13  C   UNL     1      14.214   9.927   4.801  0.00  0.00    +0.100 C 
ATOM     14  C   UNL     1      11.337   8.639   7.110  0.00  0.00    +0.108 C 
ATOM     15  C   UNL     1      13.157   8.441   2.582  0.00  0.00    +0.108 C 
ATOM     16  C   UNL     1      14.881   8.626   4.398  0.00  0.00    +0.216 C 
ATOM     18  C   UNL     1       9.384   7.437   6.001  0.00  0.00    +0.247 C 
ENDROOT
BRANCH  18  20
ATOM     20  C   UNL     1       9.419   6.404   7.043  0.00  0.00    +0.037 A 
ATOM     24  C   UNL     1       8.957   6.693   8.326  0.00  0.00    +0.013 A 
ATOM     25  C   UNL     1       9.912   5.133   6.749  0.00  0.00    +0.013 A 
ATOM     26  C   UNL     1       8.989   5.711   9.317  0.00  0.00    +0.001 A 
ATOM     27  C   UNL     1       9.944   4.151   7.738  0.00  0.00    +0.001 A 
ATOM     28  C   UNL     1       9.483   4.440   9.022  0.00  0.00    +0.000 A 
ENDBRANCH  18  20
BRANCH   5  17
ATOM     17  C   UNL     1      14.818   6.632   2.946  0.00  0.00    +0.126 C 
BRANCH  17  19
ATOM     19  C   UNL     1      14.249   6.168   1.615  0.00  0.00    +0.128 C 
BRANCH  19   6
ATOM      3  O   UNL     1      15.111   3.298   1.391  0.00  0.00    -0.253 OA
ATOM      6  N   UNL     1      13.477   4.963   1.749  0.00  0.00    -0.283 N 
ATOM      7  N   UNL     1      12.876   2.787   1.871  0.00  0.00    -0.298 N 
ATOM     21  C   UNL     1      12.072   4.979   2.115  0.00  0.00    +0.128 C 
ATOM     22  C   UNL     1      11.651   3.516   2.080  0.00  0.00    +0.124 C 
ATOM     23  C   UNL     1      13.963   3.646   1.639  0.00  0.00    +0.302 C 
ATOM     29  H   UNL     1      12.942   1.774   1.846  0.00  0.00    +0.150 HD
ENDBRANCH  19   6
ENDBRANCH  17  19
ENDBRANCH   5  17
TORSDOF 4
ENDMDL
MODEL 7
REMARK VINA RESULT:      -6.1      3.729      7.619
REMARK  Name = 26742846
REMARK  4 active torsions:
REMARK  status: ('A' for Active; 'I' for Inactive)
REMARK    1  A    between atoms: N_5  and  C_17
REMARK    2  A    between atoms: N_6  and  C_19
REMARK    3  A    between atoms: C_17  and  C_19
REMARK    4  A    between atoms: C_18  and  C_20
REMARK                            x       y       z     vdW  Elec       q    Type
REMARK                         _______ _______ _______ _____ _____    ______ ____
ROOT
ATOM      1  O   UNL     1      -6.285  -9.919  20.053  0.00  0.00    -0.276 OA
ATOM      2  O   UNL     1      -6.140 -13.422  13.526  0.00  0.00    -0.270 OA
ATOM      4  N   UNL     1      -4.836 -12.382  15.162  0.00  0.00    -0.297 N 
ATOM      5  N   UNL     1      -7.421 -11.765  19.226  0.00  0.00    -0.300 N 
ATOM      8  C   UNL     1      -5.240 -13.349  17.408  0.00  0.00    +0.011 C 
ATOM      9  C   UNL     1      -4.546 -12.109  18.023  0.00  0.00    +0.004 C 
ATOM     10  C   UNL     1      -4.653 -10.878  17.101  0.00  0.00    +0.023 C 
ATOM     11  C   UNL     1      -4.702 -13.586  15.982  0.00  0.00    +0.112 C 
ATOM     12  C   UNL     1      -6.780 -13.294  17.386  0.00  0.00    +0.024 C 
ATOM     13  C   UNL     1      -4.962 -11.809  19.469  0.00  0.00    +0.100 C 
ATOM     14  C   UNL     1      -4.148 -11.201  15.697  0.00  0.00    +0.108 C 
ATOM     15  C   UNL     1      -7.402 -13.154  18.771  0.00  0.00    +0.108 C 
ATOM     16  C   UNL     1      -6.280 -11.073  19.615  0.00  0.00    +0.216 C 
ATOM     18  C   UNL     1      -5.564 -12.431  13.972  0.00  0.00    +0.247 C 
ENDROOT
BRANCH  18  20
ATOM     20  C   UNL     1      -5.683 -11.200  13.181  0.00  0.00    +0.037 A 
ATOM     24  C   UNL     1      -4.698 -10.872  12.250  0.00  0.00    +0.013 A 
ATOM     25  C   UNL     1      -6.781 -10.360  13.360  0.00  0.00    +0.013 A 
ATOM     26  C   UNL     1      -4.810  -9.703  11.497  0.00  0.00    +0.001 A 
ATOM     27  C   UNL     1      -6.894  -9.191  12.607  0.00  0.00    +0.001 A 
ATOM     28  C   UNL     1      -5.909  -8.863  11.677  0.00  0.00    +0.000 A 
ENDBRANCH  18  20
BRANCH   5  17
ATOM     17  C   UNL     1      -8.719 -11.104  19.244  0.00  0.00    +0.126 C 
BRANCH  17  19
ATOM     19  C   UNL     1      -9.353 -11.049  17.864  0.00  0.00    +0.128 C 
BRANCH  19   6
ATOM      3  O   UNL     1      -7.451  -9.039  16.693  0.00  0.00    -0.253 OA
ATOM      6  N   UNL     1      -9.592  -9.699  17.433  0.00  0.00    -0.283 N 
ATOM      7  N   UNL     1      -9.314  -7.625  16.578  0.00  0.00    -0.298 N 
ATOM     21  C   UNL     1     -10.918  -9.105  17.441  0.00  0.00    +0.128 C 
ATOM     22  C   UNL     1     -10.698  -7.673  16.974  0.00  0.00    +0.124 C 
ATOM     23  C   UNL     1      -8.641  -8.820  16.881  0.00  0.00    +0.302 C 
ATOM     29  H   UNL     1      -8.863  -6.810  16.173  0.00  0.00    +0.150 HD
ENDBRANCH  19   6
ENDBRANCH  17  19
ENDBRANCH   5  17
TORSDOF 4
ENDMDL
MODEL 8
REMARK VINA RESULT:      -5.9     20.381     22.047
REMARK  Name = 26742846
REMARK  4 active torsions:
REMARK  status: ('A' for Active; 'I' for Inactive)
REMARK    1  A    between atoms: N_5  and  C_17
REMARK    2  A    between atoms: N_6  and  C_19
REMARK    3  A    between atoms: C_17  and  C_19
REMARK    4  A    between atoms: C_18  and  C_20
REMARK                            x       y       z     vdW  Elec       q    Type
REMARK                         _______ _______ _______ _____ _____    ______ ____
ROOT
ATOM      1  O   UNL     1     -10.461   8.046  16.041  0.00  0.00    -0.276 OA
ATOM      2  O   UNL     1     -14.844   9.928  21.711  0.00  0.00    -0.270 OA
ATOM      4  N   UNL     1     -12.781   9.003  21.119  0.00  0.00    -0.297 N 
ATOM      5  N   UNL     1     -11.833   9.875  16.437  0.00  0.00    -0.300 N 
ATOM      8  C   UNL     1     -11.505  10.499  19.611  0.00  0.00    +0.011 C 
ATOM      9  C   UNL     1     -10.592   9.300  19.259  0.00  0.00    +0.004 C 
ATOM     10  C   UNL     1     -11.321   7.954  19.439  0.00  0.00    +0.023 C 
ATOM     11  C   UNL     1     -12.103  10.296  21.018  0.00  0.00    +0.112 C 
ATOM     12  C   UNL     1     -12.630  10.785  18.598  0.00  0.00    +0.024 C 
ATOM     13  C   UNL     1      -9.892   9.421  17.899  0.00  0.00    +0.100 C 
ATOM     14  C   UNL     1     -11.927   7.843  20.837  0.00  0.00    +0.108 C 
ATOM     15  C   UNL     1     -12.120  11.092  17.194  0.00  0.00    +0.108 C 
ATOM     16  C   UNL     1     -10.749   9.047  16.704  0.00  0.00    +0.216 C 
ATOM     18  C   UNL     1     -14.130   8.954  21.474  0.00  0.00    +0.247 C 
ENDROOT
BRANCH  18  20
ATOM     20  C   UNL     1     -14.778   7.640  21.558  0.00  0.00    +0.037 A 
ATOM     24  C   UNL     1     -14.815   6.957  22.773  0.00  0.00    +0.013 A 
ATOM     25  C   UNL     1     -15.356   7.074  20.422  0.00  0.00    +0.013 A 
ATOM     26  C   UNL     1     -15.431   5.707  22.853  0.00  0.00    +0.001 A 
ATOM     27  C   UNL     1     -15.972   5.825  20.501  0.00  0.00    +0.001 A 
ATOM     28  C   UNL     1     -16.009   5.142  21.716  0.00  0.00    +0.000 A 
ENDBRANCH  18  20
BRANCH   5  17
ATOM     17  C   UNL     1     -12.762   9.539  15.367  0.00  0.00    +0.126 C 
BRANCH  17  19
ATOM     19  C   UNL     1     -13.863   8.602  15.838  0.00  0.00    +0.128 C 
BRANCH  19   6
ATOM      3  O   UNL     1     -16.372   6.961  15.641  0.00  0.00    -0.253 OA
ATOM      6  N   UNL     1     -14.307   7.724  14.791  0.00  0.00    -0.283 N 
ATOM      7  N   UNL     1     -15.550   6.298  13.551  0.00  0.00    -0.298 N 
ATOM     21  C   UNL     1     -13.570   7.559  13.551  0.00  0.00    +0.128 C 
ATOM     22  C   UNL     1     -14.354   6.510  12.775  0.00  0.00    +0.124 C 
ATOM     23  C   UNL     1     -15.512   6.994  14.771  0.00  0.00    +0.302 C 
ATOM     29  H   UNL     1     -16.309   5.683  13.276  0.00  0.00    +0.150 HD
ENDBRANCH  19   6
ENDBRANCH  17  19
ENDBRANCH   5  17
TORSDOF 4
ENDMDL
MODEL 9
REMARK VINA RESULT:      -5.9     27.912     30.031
REMARK  Name = 26742846
REMARK  4 active torsions:
REMARK  status: ('A' for Active; 'I' for Inactive)
REMARK    1  A    between atoms: N_5  and  C_17
REMARK    2  A    between atoms: N_6  and  C_19
REMARK    3  A    between atoms: C_17  and  C_19
REMARK    4  A    between atoms: C_18  and  C_20
REMARK                            x       y       z     vdW  Elec       q    Type
REMARK                         _______ _______ _______ _____ _____    ______ ____
ROOT
ATOM      1  O   UNL     1      13.228   6.957  18.455  0.00  0.00    -0.276 OA
ATOM      2  O   UNL     1      14.818  13.228  22.066  0.00  0.00    -0.270 OA
ATOM      4  N   UNL     1      13.571  12.292  20.324  0.00  0.00    -0.297 N 
ATOM      5  N   UNL     1      13.533   7.451  20.701  0.00  0.00    -0.300 N 
ATOM      8  C   UNL     1      12.194  10.386  21.104  0.00  0.00    +0.011 C 
ATOM      9  C   UNL     1      12.005   9.969  19.626  0.00  0.00    +0.004 C 
ATOM     10  C   UNL     1      13.172  10.451  18.742  0.00  0.00    +0.023 C 
ATOM     11  C   UNL     1      12.452  11.904  21.183  0.00  0.00    +0.112 C 
ATOM     12  C   UNL     1      13.299   9.626  21.863  0.00  0.00    +0.024 C 
ATOM     13  C   UNL     1      11.682   8.482  19.429  0.00  0.00    +0.100 C 
ATOM     14  C   UNL     1      13.400  11.952  18.907  0.00  0.00    +0.108 C 
ATOM     15  C   UNL     1      13.072   8.119  21.916  0.00  0.00    +0.108 C 
ATOM     16  C   UNL     1      12.883   7.556  19.477  0.00  0.00    +0.216 C 
ATOM     18  C   UNL     1      14.676  12.943  20.877  0.00  0.00    +0.247 C 
ENDROOT
BRANCH  18  20
ATOM     20  C   UNL     1      15.783  13.309  19.985  0.00  0.00    +0.037 A 
ATOM     24  C   UNL     1      16.728  12.352  19.619  0.00  0.00    +0.013 A 
ATOM     25  C   UNL     1      15.888  14.613  19.503  0.00  0.00    +0.013 A 
ATOM     26  C   UNL     1      17.780  12.699  18.770  0.00  0.00    +0.001 A 
ATOM     27  C   UNL     1      16.939  14.961  18.655  0.00  0.00    +0.001 A 
ATOM     28  C   UNL     1      17.885  14.004  18.289  0.00  0.00    +0.000 A 
ENDBRANCH  18  20
BRANCH   5  17
ATOM     17  C   UNL     1      14.750   6.658  20.815  0.00  0.00    +0.126 C 
BRANCH  17  19
ATOM     19  C   UNL     1      15.994   7.467  20.486  0.00  0.00    +0.128 C 
BRANCH  19   6
ATOM      3  O   UNL     1      16.358   5.694  18.087  0.00  0.00    -0.253 OA
ATOM      6  N   UNL     1      17.103   6.627  20.123  0.00  0.00    -0.283 N 
ATOM      7  N   UNL     1      18.458   5.207  19.002  0.00  0.00    -0.298 N 
ATOM     21  C   UNL     1      18.328   6.581  20.900  0.00  0.00    +0.128 C 
ATOM     22  C   UNL     1      19.186   5.535  20.201  0.00  0.00    +0.124 C 
ATOM     23  C   UNL     1      17.199   5.829  18.966  0.00  0.00    +0.302 C 
ATOM     29  H   UNL     1      18.791   4.565  18.288  0.00  0.00    +0.150 HD
ENDBRANCH  19   6
ENDBRANCH  17  19
ENDBRANCH   5  17
TORSDOF 4
ENDMDL
MODEL 10
REMARK VINA RESULT:      -5.9     27.764     30.212
REMARK  Name = 26742846
REMARK  4 active torsions:
REMARK  status: ('A' for Active; 'I' for Inactive)
REMARK    1  A    between atoms: N_5  and  C_17
REMARK    2  A    between atoms: N_6  and  C_19
REMARK    3  A    between atoms: C_17  and  C_19
REMARK    4  A    between atoms: C_18  and  C_20
REMARK                            x       y       z     vdW  Elec       q    Type
REMARK                         _______ _______ _______ _____ _____    ______ ____
ROOT
ATOM      1  O   UNL     1      16.319   5.779  19.217  0.00  0.00    -0.276 OA
ATOM      2  O   UNL     1      14.179  12.770  18.018  0.00  0.00    -0.270 OA
ATOM      4  N   UNL     1      13.591  10.523  17.756  0.00  0.00    -0.297 N 
ATOM      5  N   UNL     1      16.452   7.711  20.493  0.00  0.00    -0.300 N 
ATOM      8  C   UNL     1      13.675   9.297  19.908  0.00  0.00    +0.011 C 
ATOM      9  C   UNL     1      13.651   7.972  19.109  0.00  0.00    +0.004 C 
ATOM     10  C   UNL     1      14.232   8.149  17.692  0.00  0.00    +0.023 C 
ATOM     11  C   UNL     1      12.991  10.408  19.085  0.00  0.00    +0.112 C 
ATOM     12  C   UNL     1      15.072   9.764  20.361  0.00  0.00    +0.024 C 
ATOM     13  C   UNL     1      14.255   6.776  19.857  0.00  0.00    +0.100 C 
ATOM     14  C   UNL     1      13.541   9.294  16.956  0.00  0.00    +0.108 C 
ATOM     15  C   UNL     1      15.784   8.760  21.261  0.00  0.00    +0.108 C 
ATOM     16  C   UNL     1      15.770   6.702  19.825  0.00  0.00    +0.216 C 
ATOM     18  C   UNL     1      14.138  11.741  17.345  0.00  0.00    +0.247 C 
ENDROOT
BRANCH  18  20
ATOM     20  C   UNL     1      14.739  11.814  16.008  0.00  0.00    +0.037 A 
ATOM     24  C   UNL     1      13.939  12.089  14.899  0.00  0.00    +0.013 A 
ATOM     25  C   UNL     1      16.109  11.611  15.847  0.00  0.00    +0.013 A 
ATOM     26  C   UNL     1      14.510  12.160  13.628  0.00  0.00    +0.001 A 
ATOM     27  C   UNL     1      16.680  11.683  14.577  0.00  0.00    +0.001 A 
ATOM     28  C   UNL     1      15.880  11.956  13.467  0.00  0.00    +0.000 A 
ENDBRANCH  18  20
BRANCH   5  17
ATOM     17  C   UNL     1      17.906   7.771  20.437  0.00  0.00    +0.126 C 
BRANCH  17  19
ATOM     19  C   UNL     1      18.558   6.861  21.465  0.00  0.00    +0.128 C 
BRANCH  19   6
ATOM      3  O   UNL     1      19.217   4.459  19.785  0.00  0.00    -0.253 OA
ATOM      6  N   UNL     1      19.834   6.372  21.022  0.00  0.00    -0.283 N 
ATOM      7  N   UNL     1      21.443   5.150  20.007  0.00  0.00    -0.298 N 
ATOM     21  C   UNL     1      21.073   7.080  21.291  0.00  0.00    +0.128 C 
ATOM     22  C   UNL     1      22.159   6.189  20.705  0.00  0.00    +0.124 C 
ATOM     23  C   UNL     1      20.058   5.235  20.221  0.00  0.00    +0.302 C 
ATOM     29  H   UNL     1      21.887   4.415  19.465  0.00  0.00    +0.150 HD
ENDBRANCH  19   6
ENDBRANCH  17  19
ENDBRANCH   5  17
TORSDOF 4
ENDMDL
