MODEL 1
REMARK VINA RESULT:      -7.2      0.000      0.000
REMARK  Name = 25389057
REMARK  6 active torsions:
REMARK  status: ('A' for Active; 'I' for Inactive)
REMARK    1  A    between atoms: N_4  and  C_23
REMARK    2  A    between atoms: N_5  and  C_15
REMARK    3  A    between atoms: C_8  and  C_14
REMARK    4  A    between atoms: C_9  and  C_15
REMARK    5  A    between atoms: C_17  and  C_18
REMARK    6  A    between atoms: C_24  and  C_25
REMARK                            x       y       z     vdW  Elec       q    Type
REMARK                         _______ _______ _______ _____ _____    ______ ____
ROOT
ATOM      3  N   UNL     1      -6.403 -10.377  17.445  0.00  0.00    -0.297 NA
ATOM      7  C   UNL     1      -4.372 -11.969  17.092  0.00  0.00    +0.002 C 
ATOM      8  C   UNL     1      -4.118 -10.603  16.397  0.00  0.00    +0.055 C 
ATOM      9  C   UNL     1      -6.872 -11.701  16.956  0.00  0.00    +0.074 C 
ATOM     10  C   UNL     1      -5.677 -12.586  16.545  0.00  0.00    +0.024 C 
ATOM     11  C   UNL     1      -5.442  -9.790  16.477  0.00  0.00    +0.094 C 
ATOM     12  C   UNL     1      -4.603 -11.670  18.589  0.00  0.00    +0.019 C 
ATOM     13  C   UNL     1      -5.692 -10.593  18.728  0.00  0.00    +0.085 C 
ENDROOT
BRANCH   8  14
ATOM      4  N   UNL     1      -2.193 -10.483  14.746  0.00  0.00    -0.271 N 
ATOM      6  N   UNL     1      -1.877 -10.513  13.441  0.00  0.00    -0.176 NA
ATOM     14  C   UNL     1      -3.529 -10.609  14.993  0.00  0.00    +0.044 A 
ATOM     16  C   UNL     1      -4.128 -10.729  13.763  0.00  0.00    +0.048 A 
ATOM     18  C   UNL     1      -3.063 -10.663  12.845  0.00  0.00    +0.066 A 
ATOM     23  C   UNL     1      -1.141 -10.327  15.723  0.00  0.00    +0.172 C 
BRANCH  18  17
ATOM     17  C   UNL     1      -3.141 -10.745  11.337  0.00  0.00    +0.040 C 
ATOM     19  C   UNL     1      -4.579 -10.955  10.831  0.00  0.00    +0.010 C 
ATOM     20  C   UNL     1      -2.619  -9.494  10.601  0.00  0.00    +0.010 C 
ATOM     21  C   UNL     1      -4.652 -10.166   9.533  0.00  0.00    +0.001 C 
ATOM     22  C   UNL     1      -3.812  -8.938   9.831  0.00  0.00    +0.001 C 
ENDBRANCH  18  17
ENDBRANCH   8  14
BRANCH   9  15
ATOM     15  C   UNL     1      -7.902 -11.575  15.831  0.00  0.00    +0.123 C 
BRANCH  15   5
ATOM      1  O   UNL     1      -8.504  -9.449  13.998  0.00  0.00    -0.267 OA
ATOM      5  N   UNL     1      -8.779 -10.470  16.063  0.00  0.00    -0.307 N 
ATOM     24  C   UNL     1      -9.016  -9.478  15.114  0.00  0.00    +0.279 C 
ATOM     29  H   UNL     1      -9.242 -10.406  16.966  0.00  0.00    +0.149 HD
BRANCH  24  25
ATOM      2  O   UNL     1     -10.917  -8.023  14.651  0.00  0.00    -0.458 OA
ATOM     25  C   UNL     1      -9.935  -8.382  15.519  0.00  0.00    +0.189 A 
ATOM     26  C   UNL     1      -9.995  -7.616  16.660  0.00  0.00    +0.054 A 
ATOM     27  C   UNL     1     -11.084  -6.730  16.482  0.00  0.00    +0.042 A 
ATOM     28  C   UNL     1     -11.611  -7.017  15.244  0.00  0.00    +0.196 A 
ENDBRANCH  24  25
ENDBRANCH  15   5
ENDBRANCH   9  15
TORSDOF 5
ENDMDL
MODEL 2
REMARK VINA RESULT:      -6.8      2.179      2.295
REMARK  Name = 25389057
REMARK  6 active torsions:
REMARK  status: ('A' for Active; 'I' for Inactive)
REMARK    1  A    between atoms: N_4  and  C_23
REMARK    2  A    between atoms: N_5  and  C_15
REMARK    3  A    between atoms: C_8  and  C_14
REMARK    4  A    between atoms: C_9  and  C_15
REMARK    5  A    between atoms: C_17  and  C_18
REMARK    6  A    between atoms: C_24  and  C_25
REMARK                            x       y       z     vdW  Elec       q    Type
REMARK                         _______ _______ _______ _____ _____    ______ ____
ROOT
ATOM      3  N   UNL     1      -6.358 -10.668  18.393  0.00  0.00    -0.297 NA
ATOM      7  C   UNL     1      -4.458 -12.238  17.549  0.00  0.00    +0.002 C 
ATOM      8  C   UNL     1      -4.312 -10.823  16.924  0.00  0.00    +0.055 C 
ATOM      9  C   UNL     1      -6.935 -11.947  17.903  0.00  0.00    +0.074 C 
ATOM     10  C   UNL     1      -5.854 -12.804  17.211  0.00  0.00    +0.024 C 
ATOM     11  C   UNL     1      -5.582 -10.012  17.311  0.00  0.00    +0.094 C 
ATOM     12  C   UNL     1      -4.402 -12.055  19.082  0.00  0.00    +0.019 C 
ATOM     13  C   UNL     1      -5.426 -10.986  19.502  0.00  0.00    +0.085 C 
ENDROOT
BRANCH   8  14
ATOM      4  N   UNL     1      -2.720 -10.673  14.953  0.00  0.00    -0.271 N 
ATOM      6  N   UNL     1      -2.652 -10.586  13.614  0.00  0.00    -0.176 NA
ATOM     14  C   UNL     1      -3.993 -10.723  15.439  0.00  0.00    +0.044 A 
ATOM     16  C   UNL     1      -4.817 -10.664  14.341  0.00  0.00    +0.048 A 
ATOM     18  C   UNL     1      -3.936 -10.582  13.245  0.00  0.00    +0.066 A 
ATOM     23  C   UNL     1      -1.496 -10.701  15.720  0.00  0.00    +0.172 C 
BRANCH  18  17
ATOM     17  C   UNL     1      -4.297 -10.495  11.779  0.00  0.00    +0.040 C 
ATOM     19  C   UNL     1      -5.116  -9.235  11.447  0.00  0.00    +0.010 C 
ATOM     20  C   UNL     1      -3.087 -10.470  10.823  0.00  0.00    +0.010 C 
ATOM     21  C   UNL     1      -4.647  -8.823  10.060  0.00  0.00    +0.001 C 
ATOM     22  C   UNL     1      -3.161  -9.132  10.095  0.00  0.00    +0.001 C 
ENDBRANCH  18  17
ENDBRANCH   8  14
BRANCH   9  15
ATOM     15  C   UNL     1      -8.153 -11.730  17.002  0.00  0.00    +0.123 C 
BRANCH  15   5
ATOM      1  O   UNL     1      -9.450  -9.184  17.284  0.00  0.00    -0.267 OA
ATOM      5  N   UNL     1      -9.319 -11.448  17.779  0.00  0.00    -0.307 N 
ATOM     24  C   UNL     1      -9.886 -10.177  17.861  0.00  0.00    +0.279 C 
ATOM     29  H   UNL     1      -9.744 -12.209  18.300  0.00  0.00    +0.149 HD
BRANCH  24  25
ATOM      2  O   UNL     1     -12.285  -9.842  18.134  0.00  0.00    -0.458 OA
ATOM     25  C   UNL     1     -11.082 -10.042  18.733  0.00  0.00    +0.189 A 
ATOM     26  C   UNL     1     -11.224 -10.082  20.100  0.00  0.00    +0.054 A 
ATOM     27  C   UNL     1     -12.603  -9.896  20.358  0.00  0.00    +0.042 A 
ATOM     28  C   UNL     1     -13.205  -9.755  19.130  0.00  0.00    +0.196 A 
ENDBRANCH  24  25
ENDBRANCH  15   5
ENDBRANCH   9  15
TORSDOF 5
ENDMDL
MODEL 3
REMARK VINA RESULT:      -6.7     24.575     27.280
REMARK  Name = 25389057
REMARK  6 active torsions:
REMARK  status: ('A' for Active; 'I' for Inactive)
REMARK    1  A    between atoms: N_4  and  C_23
REMARK    2  A    between atoms: N_5  and  C_15
REMARK    3  A    between atoms: C_8  and  C_14
REMARK    4  A    between atoms: C_9  and  C_15
REMARK    5  A    between atoms: C_17  and  C_18
REMARK    6  A    between atoms: C_24  and  C_25
REMARK                            x       y       z     vdW  Elec       q    Type
REMARK                         _______ _______ _______ _____ _____    ______ ____
ROOT
ATOM      3  N   UNL     1      10.361   6.258   7.480  0.00  0.00    -0.297 NA
ATOM      7  C   UNL     1       9.611   7.791   5.513  0.00  0.00    +0.002 C 
ATOM      8  C   UNL     1       9.530   6.296   5.098  0.00  0.00    +0.055 C 
ATOM      9  C   UNL     1      11.368   7.328   7.256  0.00  0.00    +0.074 C 
ATOM     10  C   UNL     1      11.048   8.118   5.970  0.00  0.00    +0.024 C 
ATOM     11  C   UNL     1      10.179   5.463   6.240  0.00  0.00    +0.094 C 
ATOM     12  C   UNL     1       8.694   7.960   6.744  0.00  0.00    +0.019 C 
ATOM     13  C   UNL     1       9.070   6.911   7.804  0.00  0.00    +0.085 C 
ENDROOT
BRANCH   8  14
ATOM      4  N   UNL     1       9.719   6.564   2.580  0.00  0.00    -0.271 N 
ATOM      6  N   UNL     1      10.291   6.060   1.473  0.00  0.00    -0.176 NA
ATOM     14  C   UNL     1      10.057   5.902   3.725  0.00  0.00    +0.044 A 
ATOM     16  C   UNL     1      10.907   4.895   3.339  0.00  0.00    +0.048 A 
ATOM     18  C   UNL     1      11.015   5.041   1.943  0.00  0.00    +0.066 A 
ATOM     23  C   UNL     1       8.841   7.704   2.464  0.00  0.00    +0.172 C 
BRANCH  18  17
ATOM     17  C   UNL     1      11.830   4.196   0.990  0.00  0.00    +0.040 C 
ATOM     19  C   UNL     1      12.753   5.042   0.094  0.00  0.00    +0.010 C 
ATOM     20  C   UNL     1      12.747   3.163   1.675  0.00  0.00    +0.010 C 
ATOM     21  C   UNL     1      14.005   4.197  -0.078  0.00  0.00    +0.001 C 
ATOM     22  C   UNL     1      14.170   3.546   1.283  0.00  0.00    +0.001 C 
ENDBRANCH  18  17
ENDBRANCH   8  14
BRANCH   9  15
ATOM     15  C   UNL     1      12.800   6.789   7.253  0.00  0.00    +0.123 C 
BRANCH  15   5
ATOM      1  O   UNL     1      15.372   7.837   6.524  0.00  0.00    -0.267 OA
ATOM      5  N   UNL     1      13.361   6.838   5.938  0.00  0.00    -0.307 N 
ATOM     24  C   UNL     1      14.623   7.366   5.672  0.00  0.00    +0.279 C 
ATOM     29  H   UNL     1      12.807   6.478   5.166  0.00  0.00    +0.149 HD
BRANCH  24  25
ATOM      2  O   UNL     1      16.227   7.976   3.940  0.00  0.00    -0.458 OA
ATOM     25  C   UNL     1      15.051   7.369   4.249  0.00  0.00    +0.189 A 
ATOM     26  C   UNL     1      14.464   6.850   3.119  0.00  0.00    +0.054 A 
ATOM     27  C   UNL     1      15.335   7.158   2.046  0.00  0.00    +0.042 A 
ATOM     28  C   UNL     1      16.392   7.843   2.598  0.00  0.00    +0.196 A 
ENDBRANCH  24  25
ENDBRANCH  15   5
ENDBRANCH   9  15
TORSDOF 5
ENDMDL
MODEL 4
REMARK VINA RESULT:      -6.5      3.330      7.186
REMARK  Name = 25389057
REMARK  6 active torsions:
REMARK  status: ('A' for Active; 'I' for Inactive)
REMARK    1  A    between atoms: N_4  and  C_23
REMARK    2  A    between atoms: N_5  and  C_15
REMARK    3  A    between atoms: C_8  and  C_14
REMARK    4  A    between atoms: C_9  and  C_15
REMARK    5  A    between atoms: C_17  and  C_18
REMARK    6  A    between atoms: C_24  and  C_25
REMARK                            x       y       z     vdW  Elec       q    Type
REMARK                         _______ _______ _______ _____ _____    ______ ____
ROOT
ATOM      3  N   UNL     1      -5.686 -12.368  17.108  0.00  0.00    -0.297 NA
ATOM      7  C   UNL     1      -6.066 -11.040  19.316  0.00  0.00    +0.002 C 
ATOM      8  C   UNL     1      -7.189 -12.095  19.116  0.00  0.00    +0.055 C 
ATOM      9  C   UNL     1      -5.597 -10.907  16.846  0.00  0.00    +0.074 C 
ATOM     10  C   UNL     1      -6.022 -10.102  18.092  0.00  0.00    +0.024 C 
ATOM     11  C   UNL     1      -7.009 -12.699  17.695  0.00  0.00    +0.094 C 
ATOM     12  C   UNL     1      -4.730 -11.814  19.344  0.00  0.00    +0.019 C 
ATOM     13  C   UNL     1      -4.640 -12.715  18.100  0.00  0.00    +0.085 C 
ENDROOT
BRANCH   8  14
ATOM      4  N   UNL     1      -9.526 -12.469  20.034  0.00  0.00    -0.271 N 
ATOM      6  N   UNL     1     -10.742 -11.913  20.173  0.00  0.00    -0.176 NA
ATOM     14  C   UNL     1      -8.627 -11.673  19.387  0.00  0.00    +0.044 A 
ATOM     16  C   UNL     1      -9.301 -10.517  19.080  0.00  0.00    +0.048 A 
ATOM     18  C   UNL     1     -10.598 -10.721  19.588  0.00  0.00    +0.066 A 
ATOM     23  C   UNL     1      -9.294 -13.795  20.557  0.00  0.00    +0.172 C 
BRANCH  18  17
ATOM     17  C   UNL     1     -11.769  -9.765  19.533  0.00  0.00    +0.040 C 
ATOM     19  C   UNL     1     -12.650  -9.982  18.291  0.00  0.00    +0.010 C 
ATOM     20  C   UNL     1     -12.723  -9.852  20.742  0.00  0.00    +0.010 C 
ATOM     21  C   UNL     1     -14.067  -9.702  18.768  0.00  0.00    +0.001 C 
ATOM     22  C   UNL     1     -14.074 -10.273  20.174  0.00  0.00    +0.001 C 
ENDBRANCH  18  17
ENDBRANCH   8  14
BRANCH   9  15
ATOM     15  C   UNL     1      -6.384 -10.490  15.602  0.00  0.00    +0.123 C 
BRANCH  15   5
ATOM      1  O   UNL     1      -8.994 -10.387  14.409  0.00  0.00    -0.267 OA
ATOM      5  N   UNL     1      -7.445  -9.595  15.945  0.00  0.00    -0.307 N 
ATOM     24  C   UNL     1      -8.687  -9.613  15.313  0.00  0.00    +0.279 C 
ATOM     29  H   UNL     1      -7.278  -8.911  16.678  0.00  0.00    +0.149 HD
BRANCH  24  25
ATOM      2  O   UNL     1     -10.761  -8.376  14.982  0.00  0.00    -0.458 OA
ATOM     25  C   UNL     1      -9.675  -8.600  15.767  0.00  0.00    +0.189 A 
ATOM     26  C   UNL     1      -9.712  -7.800  16.884  0.00  0.00    +0.054 A 
ATOM     27  C   UNL     1     -10.899  -7.036  16.781  0.00  0.00    +0.042 A 
ATOM     28  C   UNL     1     -11.501  -7.423  15.607  0.00  0.00    +0.196 A 
ENDBRANCH  24  25
ENDBRANCH  15   5
ENDBRANCH   9  15
TORSDOF 5
ENDMDL
MODEL 5
REMARK VINA RESULT:      -6.4      2.170      7.089
REMARK  Name = 25389057
REMARK  6 active torsions:
REMARK  status: ('A' for Active; 'I' for Inactive)
REMARK    1  A    between atoms: N_4  and  C_23
REMARK    2  A    between atoms: N_5  and  C_15
REMARK    3  A    between atoms: C_8  and  C_14
REMARK    4  A    between atoms: C_9  and  C_15
REMARK    5  A    between atoms: C_17  and  C_18
REMARK    6  A    between atoms: C_24  and  C_25
REMARK                            x       y       z     vdW  Elec       q    Type
REMARK                         _______ _______ _______ _____ _____    ______ ____
ROOT
ATOM      3  N   UNL     1      -5.820 -12.847  16.992  0.00  0.00    -0.297 NA
ATOM      7  C   UNL     1      -5.776 -10.538  18.197  0.00  0.00    +0.002 C 
ATOM      8  C   UNL     1      -7.149 -11.235  18.407  0.00  0.00    +0.055 C 
ATOM      9  C   UNL     1      -5.341 -11.795  16.058  0.00  0.00    +0.074 C 
ATOM     10  C   UNL     1      -5.504 -10.394  16.685  0.00  0.00    +0.024 C 
ATOM     11  C   UNL     1      -7.171 -12.499  17.501  0.00  0.00    +0.094 C 
ATOM     12  C   UNL     1      -4.702 -11.492  18.763  0.00  0.00    +0.019 C 
ATOM     13  C   UNL     1      -4.889 -12.889  18.145  0.00  0.00    +0.085 C 
ENDROOT
BRANCH   8  14
ATOM      4  N   UNL     1      -9.546 -10.625  18.981  0.00  0.00    -0.271 N 
ATOM      6  N   UNL     1     -10.547  -9.774  18.703  0.00  0.00    -0.176 NA
ATOM     14  C   UNL     1      -8.411 -10.396  18.259  0.00  0.00    +0.044 A 
ATOM     16  C   UNL     1      -8.690  -9.321  17.451  0.00  0.00    +0.048 A 
ATOM     18  C   UNL     1     -10.019  -8.980  17.768  0.00  0.00    +0.066 A 
ATOM     23  C   UNL     1      -9.751 -11.656  19.971  0.00  0.00    +0.172 C 
BRANCH  18  17
ATOM     17  C   UNL     1     -10.847  -7.860  17.177  0.00  0.00    +0.040 C 
ATOM     19  C   UNL     1     -10.142  -7.162  16.001  0.00  0.00    +0.010 C 
ATOM     20  C   UNL     1     -12.223  -8.299  16.638  0.00  0.00    +0.010 C 
ATOM     21  C   UNL     1     -11.262  -6.802  15.037  0.00  0.00    +0.001 C 
ATOM     22  C   UNL     1     -12.201  -7.989  15.145  0.00  0.00    +0.001 C 
ENDBRANCH  18  17
ENDBRANCH   8  14
BRANCH   9  15
ATOM     15  C   UNL     1      -6.010 -11.886  14.685  0.00  0.00    +0.123 C 
BRANCH  15   5
ATOM      1  O   UNL     1      -6.444  -9.573  13.039  0.00  0.00    -0.267 OA
ATOM      5  N   UNL     1      -5.143 -11.392  13.661  0.00  0.00    -0.307 N 
ATOM     24  C   UNL     1      -5.432 -10.257  12.906  0.00  0.00    +0.279 C 
ATOM     29  H   UNL     1      -4.284 -11.901  13.473  0.00  0.00    +0.149 HD
BRANCH  24  25
ATOM      2  O   UNL     1      -3.163 -10.324  12.017  0.00  0.00    -0.458 OA
ATOM     25  C   UNL     1      -4.441  -9.889  11.861  0.00  0.00    +0.189 A 
ATOM     26  C   UNL     1      -4.564  -9.157  10.703  0.00  0.00    +0.054 A 
ATOM     27  C   UNL     1      -3.280  -9.142  10.109  0.00  0.00    +0.042 A 
ATOM     28  C   UNL     1      -2.463  -9.864  10.946  0.00  0.00    +0.196 A 
ENDBRANCH  24  25
ENDBRANCH  15   5
ENDBRANCH   9  15
TORSDOF 5
ENDMDL
MODEL 6
REMARK VINA RESULT:      -6.3     25.382     27.486
REMARK  Name = 25389057
REMARK  6 active torsions:
REMARK  status: ('A' for Active; 'I' for Inactive)
REMARK    1  A    between atoms: N_4  and  C_23
REMARK    2  A    between atoms: N_5  and  C_15
REMARK    3  A    between atoms: C_8  and  C_14
REMARK    4  A    between atoms: C_9  and  C_15
REMARK    5  A    between atoms: C_17  and  C_18
REMARK    6  A    between atoms: C_24  and  C_25
REMARK                            x       y       z     vdW  Elec       q    Type
REMARK                         _______ _______ _______ _____ _____    ______ ____
ROOT
ATOM      3  N   UNL     1      18.423  -3.568  22.964  0.00  0.00    -0.297 NA
ATOM      7  C   UNL     1      16.781  -2.153  24.408  0.00  0.00    +0.002 C 
ATOM      8  C   UNL     1      18.222  -2.066  24.981  0.00  0.00    +0.055 C 
ATOM      9  C   UNL     1      17.229  -4.380  23.321  0.00  0.00    +0.074 C 
ATOM     10  C   UNL     1      16.346  -3.632  24.342  0.00  0.00    +0.024 C 
ATOM     11  C   UNL     1      19.095  -3.086  24.197  0.00  0.00    +0.094 C 
ATOM     12  C   UNL     1      16.848  -1.634  22.955  0.00  0.00    +0.019 C 
ATOM     13  C   UNL     1      17.957  -2.387  22.200  0.00  0.00    +0.085 C 
ENDROOT
BRANCH   8  14
ATOM      4  N   UNL     1      19.543  -1.801  27.133  0.00  0.00    -0.271 N 
ATOM      6  N   UNL     1      19.505  -1.990  28.463  0.00  0.00    -0.176 NA
ATOM     14  C   UNL     1      18.405  -2.187  26.488  0.00  0.00    +0.044 A 
ATOM     16  C   UNL     1      17.563  -2.663  27.464  0.00  0.00    +0.048 A 
ATOM     18  C   UNL     1      18.293  -2.517  28.659  0.00  0.00    +0.066 A 
ATOM     23  C   UNL     1      20.730  -1.235  26.535  0.00  0.00    +0.172 C 
BRANCH  18  17
ATOM     17  C   UNL     1      17.849  -2.881  30.058  0.00  0.00    +0.040 C 
ATOM     19  C   UNL     1      16.830  -1.882  30.633  0.00  0.00    +0.010 C 
ATOM     20  C   UNL     1      17.187  -4.269  30.178  0.00  0.00    +0.010 C 
ATOM     21  C   UNL     1      15.886  -2.731  31.470  0.00  0.00    +0.001 C 
ATOM     22  C   UNL     1      15.764  -4.008  30.660  0.00  0.00    +0.001 C 
ENDBRANCH  18  17
ENDBRANCH   8  14
BRANCH   9  15
ATOM     15  C   UNL     1      17.601  -5.782  23.807  0.00  0.00    +0.123 C 
BRANCH  15   5
ATOM      1  O   UNL     1      17.044  -8.372  24.914  0.00  0.00    -0.267 OA
ATOM      5  N   UNL     1      17.005  -6.057  25.077  0.00  0.00    -0.307 N 
ATOM     24  C   UNL     1      16.769  -7.350  25.539  0.00  0.00    +0.279 C 
ATOM     29  H   UNL     1      16.735  -5.271  25.661  0.00  0.00    +0.149 HD
BRANCH  24  25
ATOM      2  O   UNL     1      16.052  -8.700  27.438  0.00  0.00    -0.458 OA
ATOM     25  C   UNL     1      16.117  -7.468  26.870  0.00  0.00    +0.189 A 
ATOM     26  C   UNL     1      15.535  -6.527  27.687  0.00  0.00    +0.054 A 
ATOM     27  C   UNL     1      15.084  -7.226  28.832  0.00  0.00    +0.042 A 
ATOM     28  C   UNL     1      15.421  -8.544  28.632  0.00  0.00    +0.196 A 
ENDBRANCH  24  25
ENDBRANCH  15   5
ENDBRANCH   9  15
TORSDOF 5
ENDMDL
MODEL 7
REMARK VINA RESULT:      -6.3     28.221     31.907
REMARK  Name = 25389057
REMARK  6 active torsions:
REMARK  status: ('A' for Active; 'I' for Inactive)
REMARK    1  A    between atoms: N_4  and  C_23
REMARK    2  A    between atoms: N_5  and  C_15
REMARK    3  A    between atoms: C_8  and  C_14
REMARK    4  A    between atoms: C_9  and  C_15
REMARK    5  A    between atoms: C_17  and  C_18
REMARK    6  A    between atoms: C_24  and  C_25
REMARK                            x       y       z     vdW  Elec       q    Type
REMARK                         _______ _______ _______ _____ _____    ______ ____
ROOT
ATOM      3  N   UNL     1      21.259   6.397  22.745  0.00  0.00    -0.297 NA
ATOM      7  C   UNL     1      20.770   8.422  21.182  0.00  0.00    +0.002 C 
ATOM      8  C   UNL     1      19.503   8.049  22.000  0.00  0.00    +0.055 C 
ATOM      9  C   UNL     1      21.708   6.092  21.361  0.00  0.00    +0.074 C 
ATOM     10  C   UNL     1      21.242   7.190  20.382  0.00  0.00    +0.024 C 
ATOM     11  C   UNL     1      19.810   6.721  22.750  0.00  0.00    +0.094 C 
ATOM     12  C   UNL     1      21.879   8.752  22.205  0.00  0.00    +0.019 C 
ATOM     13  C   UNL     1      22.001   7.593  23.210  0.00  0.00    +0.085 C 
ENDROOT
BRANCH   8  14
ATOM      4  N   UNL     1      17.445   9.126  20.975  0.00  0.00    -0.271 N 
ATOM      6  N   UNL     1      16.293   8.874  20.332  0.00  0.00    -0.176 NA
ATOM     14  C   UNL     1      18.165   8.007  21.275  0.00  0.00    +0.044 A 
ATOM     16  C   UNL     1      17.431   6.949  20.796  0.00  0.00    +0.048 A 
ATOM     18  C   UNL     1      16.289   7.543  20.226  0.00  0.00    +0.066 A 
ATOM     23  C   UNL     1      17.800  10.493  21.276  0.00  0.00    +0.172 C 
BRANCH  18  17
ATOM     17  C   UNL     1      15.133   6.846  19.544  0.00  0.00    +0.040 C 
ATOM     19  C   UNL     1      13.911   6.692  20.467  0.00  0.00    +0.010 C 
ATOM     20  C   UNL     1      14.614   7.557  18.278  0.00  0.00    +0.010 C 
ATOM     21  C   UNL     1      12.710   6.857  19.548  0.00  0.00    +0.001 C 
ATOM     22  C   UNL     1      13.166   7.931  18.577  0.00  0.00    +0.001 C 
ENDBRANCH  18  17
ENDBRANCH   8  14
BRANCH   9  15
ATOM     15  C   UNL     1      21.275   4.698  20.902  0.00  0.00    +0.123 C 
BRANCH  15   5
ATOM      1  O   UNL     1      22.026   3.239  23.258  0.00  0.00    -0.267 OA
ATOM      5  N   UNL     1      22.351   3.765  21.021  0.00  0.00    -0.307 N 
ATOM     24  C   UNL     1      22.648   3.097  22.208  0.00  0.00    +0.279 C 
ATOM     29  H   UNL     1      22.928   3.590  20.203  0.00  0.00    +0.149 HD
BRANCH  24  25
ATOM      2  O   UNL     1      24.760   2.317  23.142  0.00  0.00    -0.458 OA
ATOM     25  C   UNL     1      23.815   2.178  22.175  0.00  0.00    +0.189 A 
ATOM     26  C   UNL     1      24.150   1.158  21.316  0.00  0.00    +0.054 A 
ATOM     27  C   UNL     1      25.379   0.636  21.785  0.00  0.00    +0.042 A 
ATOM     28  C   UNL     1      25.708   1.375  22.897  0.00  0.00    +0.196 A 
ENDBRANCH  24  25
ENDBRANCH  15   5
ENDBRANCH   9  15
TORSDOF 5
ENDMDL
MODEL 8
REMARK VINA RESULT:      -6.3      2.124      5.488
REMARK  Name = 25389057
REMARK  6 active torsions:
REMARK  status: ('A' for Active; 'I' for Inactive)
REMARK    1  A    between atoms: N_4  and  C_23
REMARK    2  A    between atoms: N_5  and  C_15
REMARK    3  A    between atoms: C_8  and  C_14
REMARK    4  A    between atoms: C_9  and  C_15
REMARK    5  A    between atoms: C_17  and  C_18
REMARK    6  A    between atoms: C_24  and  C_25
REMARK                            x       y       z     vdW  Elec       q    Type
REMARK                         _______ _______ _______ _____ _____    ______ ____
ROOT
ATOM      3  N   UNL     1      -4.771 -12.346  11.198  0.00  0.00    -0.297 NA
ATOM      7  C   UNL     1      -3.793 -10.164  12.230  0.00  0.00    +0.002 C 
ATOM      8  C   UNL     1      -3.323 -11.406  13.037  0.00  0.00    +0.055 C 
ATOM      9  C   UNL     1      -5.854 -11.347  11.397  0.00  0.00    +0.074 C 
ATOM     10  C   UNL     1      -5.335 -10.132  12.194  0.00  0.00    +0.024 C 
ATOM     11  C   UNL     1      -4.102 -12.636  12.491  0.00  0.00    +0.094 C 
ATOM     12  C   UNL     1      -3.309 -10.370  10.778  0.00  0.00    +0.019 C 
ATOM     13  C   UNL     1      -3.768 -11.752  10.282  0.00  0.00    +0.085 C 
ENDROOT
BRANCH   8  14
ATOM      4  N   UNL     1      -2.409 -10.679  15.291  0.00  0.00    -0.271 N 
ATOM      6  N   UNL     1      -2.621 -10.727  16.617  0.00  0.00    -0.176 NA
ATOM     14  C   UNL     1      -3.357 -11.329  14.558  0.00  0.00    +0.044 A 
ATOM     16  C   UNL     1      -4.251 -11.840  15.467  0.00  0.00    +0.048 A 
ATOM     18  C   UNL     1      -3.747 -11.438  16.719  0.00  0.00    +0.066 A 
ATOM     23  C   UNL     1      -1.251  -9.977  14.787  0.00  0.00    +0.172 C 
BRANCH  18  17
ATOM     17  C   UNL     1      -4.336 -11.723  18.082  0.00  0.00    +0.040 C 
ATOM     19  C   UNL     1      -5.261 -10.596  18.572  0.00  0.00    +0.010 C 
ATOM     20  C   UNL     1      -5.175 -13.015  18.159  0.00  0.00    +0.010 C 
ATOM     21  C   UNL     1      -6.364 -11.307  19.341  0.00  0.00    +0.001 C 
ATOM     22  C   UNL     1      -6.586 -12.571  18.530  0.00  0.00    +0.001 C 
ENDBRANCH  18  17
ENDBRANCH   8  14
BRANCH   9  15
ATOM     15  C   UNL     1      -7.101 -11.960  12.039  0.00  0.00    +0.123 C 
BRANCH  15   5
ATOM      1  O   UNL     1      -7.517 -12.998  14.683  0.00  0.00    -0.267 OA
ATOM      5  N   UNL     1      -7.497 -11.218  13.195  0.00  0.00    -0.307 N 
ATOM     24  C   UNL     1      -7.677 -11.803  14.447  0.00  0.00    +0.279 C 
ATOM     29  H   UNL     1      -7.662 -10.220  13.092  0.00  0.00    +0.149 HD
BRANCH  24  25
ATOM      2  O   UNL     1      -7.396  -9.768  15.759  0.00  0.00    -0.458 OA
ATOM     25  C   UNL     1      -8.116 -10.900  15.542  0.00  0.00    +0.189 A 
ATOM     26  C   UNL     1      -9.163 -10.983  16.429  0.00  0.00    +0.054 A 
ATOM     27  C   UNL     1      -9.083  -9.828  17.243  0.00  0.00    +0.042 A 
ATOM     28  C   UNL     1      -7.991  -9.122  16.796  0.00  0.00    +0.196 A 
ENDBRANCH  24  25
ENDBRANCH  15   5
ENDBRANCH   9  15
TORSDOF 5
ENDMDL
MODEL 9
REMARK VINA RESULT:      -6.2      3.232      8.206
REMARK  Name = 25389057
REMARK  6 active torsions:
REMARK  status: ('A' for Active; 'I' for Inactive)
REMARK    1  A    between atoms: N_4  and  C_23
REMARK    2  A    between atoms: N_5  and  C_15
REMARK    3  A    between atoms: C_8  and  C_14
REMARK    4  A    between atoms: C_9  and  C_15
REMARK    5  A    between atoms: C_17  and  C_18
REMARK    6  A    between atoms: C_24  and  C_25
REMARK                            x       y       z     vdW  Elec       q    Type
REMARK                         _______ _______ _______ _____ _____    ______ ____
ROOT
ATOM      3  N   UNL     1      -5.402 -12.224  17.334  0.00  0.00    -0.297 NA
ATOM      7  C   UNL     1      -5.944 -11.293  19.705  0.00  0.00    +0.002 C 
ATOM      8  C   UNL     1      -7.077 -12.240  19.221  0.00  0.00    +0.055 C 
ATOM      9  C   UNL     1      -5.243 -10.746  17.348  0.00  0.00    +0.074 C 
ATOM     10  C   UNL     1      -5.757 -10.156  18.678  0.00  0.00    +0.024 C 
ATOM     11  C   UNL     1      -6.784 -12.591  17.735  0.00  0.00    +0.094 C 
ATOM     12  C   UNL     1      -4.641 -12.122  19.706  0.00  0.00    +0.019 C 
ATOM     13  C   UNL     1      -4.465 -12.792  18.333  0.00  0.00    +0.085 C 
ENDROOT
BRANCH   8  14
ATOM      4  N   UNL     1      -9.445 -12.586  20.067  0.00  0.00    -0.271 N 
ATOM      6  N   UNL     1     -10.660 -12.019  20.159  0.00  0.00    -0.176 NA
ATOM     14  C   UNL     1      -8.519 -11.805  19.439  0.00  0.00    +0.044 A 
ATOM     16  C   UNL     1      -9.175 -10.648  19.095  0.00  0.00    +0.048 A 
ATOM     18  C   UNL     1     -10.489 -10.836  19.563  0.00  0.00    +0.066 A 
ATOM     23  C   UNL     1      -9.240 -13.907  20.614  0.00  0.00    +0.172 C 
BRANCH  18  17
ATOM     17  C   UNL     1     -11.650  -9.873  19.458  0.00  0.00    +0.040 C 
ATOM     19  C   UNL     1     -12.612 -10.231  18.311  0.00  0.00    +0.010 C 
ATOM     20  C   UNL     1     -12.526  -9.786  20.725  0.00  0.00    +0.010 C 
ATOM     21  C   UNL     1     -13.992  -9.865  18.835  0.00  0.00    +0.001 C 
ATOM     22  C   UNL     1     -13.915 -10.250  20.301  0.00  0.00    +0.001 C 
ENDBRANCH  18  17
ENDBRANCH   8  14
BRANCH   9  15
ATOM     15  C   UNL     1      -5.898 -10.077  16.137  0.00  0.00    +0.123 C 
BRANCH  15   5
ATOM      1  O   UNL     1      -5.554 -11.831  13.890  0.00  0.00    -0.267 OA
ATOM      5  N   UNL     1      -4.959  -9.923  15.070  0.00  0.00    -0.307 N 
ATOM     24  C   UNL     1      -4.858 -10.826  14.013  0.00  0.00    +0.279 C 
ATOM     29  H   UNL     1      -4.334  -9.123  15.093  0.00  0.00    +0.149 HD
BRANCH  24  25
ATOM      2  O   UNL     1      -4.221 -10.148  11.760  0.00  0.00    -0.458 OA
ATOM     25  C   UNL     1      -3.813 -10.538  12.996  0.00  0.00    +0.189 A 
ATOM     26  C   UNL     1      -2.441 -10.590  13.059  0.00  0.00    +0.054 A 
ATOM     27  C   UNL     1      -1.974 -10.206  11.779  0.00  0.00    +0.042 A 
ATOM     28  C   UNL     1      -3.095  -9.948  11.025  0.00  0.00    +0.196 A 
ENDBRANCH  24  25
ENDBRANCH  15   5
ENDBRANCH   9  15
TORSDOF 5
ENDMDL
MODEL 10
REMARK VINA RESULT:      -6.1      1.921      5.244
REMARK  Name = 25389057
REMARK  6 active torsions:
REMARK  status: ('A' for Active; 'I' for Inactive)
REMARK    1  A    between atoms: N_4  and  C_23
REMARK    2  A    between atoms: N_5  and  C_15
REMARK    3  A    between atoms: C_8  and  C_14
REMARK    4  A    between atoms: C_9  and  C_15
REMARK    5  A    between atoms: C_17  and  C_18
REMARK    6  A    between atoms: C_24  and  C_25
REMARK                            x       y       z     vdW  Elec       q    Type
REMARK                         _______ _______ _______ _____ _____    ______ ____
ROOT
ATOM      3  N   UNL     1      -6.396 -11.525  11.122  0.00  0.00    -0.297 NA
ATOM      7  C   UNL     1      -5.023  -9.474  11.954  0.00  0.00    +0.002 C 
ATOM      8  C   UNL     1      -4.610 -10.755  12.730  0.00  0.00    +0.055 C 
ATOM      9  C   UNL     1      -7.309 -10.392  11.431  0.00  0.00    +0.074 C 
ATOM     10  C   UNL     1      -6.540  -9.244  12.118  0.00  0.00    +0.024 C 
ATOM     11  C   UNL     1      -5.603 -11.882  12.325  0.00  0.00    +0.094 C 
ATOM     12  C   UNL     1      -4.766  -9.758  10.458  0.00  0.00    +0.019 C 
ATOM     13  C   UNL     1      -5.457 -11.075  10.066  0.00  0.00    +0.085 C 
ENDROOT
BRANCH   8  14
ATOM      4  N   UNL     1      -3.210 -10.628  14.843  0.00  0.00    -0.271 N 
ATOM      6  N   UNL     1      -3.269 -10.537  16.183  0.00  0.00    -0.176 NA
ATOM     14  C   UNL     1      -4.432 -10.656  14.238  0.00  0.00    +0.044 A 
ATOM     16  C   UNL     1      -5.355 -10.580  15.253  0.00  0.00    +0.048 A 
ATOM     18  C   UNL     1      -4.582 -10.509  16.427  0.00  0.00    +0.066 A 
ATOM     23  C   UNL     1      -1.920 -10.685  14.197  0.00  0.00    +0.172 C 
BRANCH  18  17
ATOM     17  C   UNL     1      -5.079 -10.407  17.852  0.00  0.00    +0.040 C 
ATOM     19  C   UNL     1      -6.597 -10.169  17.931  0.00  0.00    +0.010 C 
ATOM     20  C   UNL     1      -4.807 -11.656  18.714  0.00  0.00    +0.010 C 
ATOM     21  C   UNL     1      -7.046 -10.940  19.163  0.00  0.00    +0.001 C 
ATOM     22  C   UNL     1      -6.178 -12.185  19.123  0.00  0.00    +0.001 C 
ENDBRANCH  18  17
ENDBRANCH   8  14
BRANCH   9  15
ATOM     15  C   UNL     1      -8.526 -10.831  12.247  0.00  0.00    +0.123 C 
BRANCH  15   5
ATOM      1  O   UNL     1     -10.925 -10.552  13.801  0.00  0.00    -0.267 OA
ATOM      5  N   UNL     1      -8.715  -9.981  13.381  0.00  0.00    -0.307 N 
ATOM     24  C   UNL     1      -9.918  -9.906  14.081  0.00  0.00    +0.279 C 
ATOM     29  H   UNL     1      -7.936  -9.401  13.681  0.00  0.00    +0.149 HD
BRANCH  24  25
ATOM      2  O   UNL     1     -10.396  -7.690  14.977  0.00  0.00    -0.458 OA
ATOM     25  C   UNL     1      -9.960  -8.954  15.221  0.00  0.00    +0.189 A 
ATOM     26  C   UNL     1      -9.630  -9.103  16.547  0.00  0.00    +0.054 A 
ATOM     27  C   UNL     1      -9.879  -7.851  17.158  0.00  0.00    +0.042 A 
ATOM     28  C   UNL     1     -10.344  -7.026  16.161  0.00  0.00    +0.196 A 
ENDBRANCH  24  25
ENDBRANCH  15   5
ENDBRANCH   9  15
TORSDOF 5
ENDMDL
