REMARK  Name = 26743040
REMARK  13 active torsions:
REMARK  status: ('A' for Active; 'I' for Inactive)
REMARK    1  A    between atoms: O_3  and  C_21
REMARK    2  A    between atoms: O_3  and  C_28
REMARK    3  A    between atoms: O_4  and  C_25
REMARK    4  A    between atoms: O_4  and  C_29
REMARK    5  A    between atoms: O_5  and  C_27
REMARK    6  A    between atoms: O_5  and  C_30
REMARK    7  A    between atoms: N_7  and  C_20
REMARK    8  A    between atoms: C_9  and  C_15
REMARK    9  A    between atoms: C_10  and  C_14
REMARK   10  A    between atoms: C_14  and  C_16
REMARK   11  A    between atoms: C_15  and  C_17
REMARK   12  A    between atoms: C_19  and  C_21
REMARK   13  A    between atoms: C_20  and  C_22
REMARK                            x       y       z     vdW  Elec       q    Type
REMARK                         _______ _______ _______ _____ _____    ______ ____
ROOT
ATOM      6  N   UNL     1      -1.245   1.937   0.601  0.00  0.00    -0.316 NA
ATOM      9  C   UNL     1      -0.702  -0.783  -0.408  0.00  0.00    +0.004 C 
ATOM     10  C   UNL     1      -2.135  -0.249  -0.171  0.00  0.00    +0.012 C 
ATOM     11  C   UNL     1       0.244   0.407  -0.642  0.00  0.00    +0.019 C 
ATOM     12  C   UNL     1      -2.163   0.841   0.913  0.00  0.00    +0.085 C 
ATOM     13  C   UNL     1       0.131   1.467   0.453  0.00  0.00    +0.081 C 
ATOM     31  H   UNL     1      -1.285   2.633   1.344  0.00  0.00    +0.122 HD
ENDROOT
BRANCH  10  14
ATOM     14  C   UNL     1      -3.140  -1.355   0.153  0.00  0.00    +0.064 C 
BRANCH  14  16
ATOM      2  O   UNL     1      -6.356  -0.626  -1.290  0.00  0.00    -0.357 OA
ATOM      8  N   UNL     1      -5.066  -1.138  -1.356  0.00  0.00    -0.083 NA
ATOM     16  C   UNL     1      -4.546  -0.921  -0.145  0.00  0.00    +0.084 A 
ATOM     18  C   UNL     1      -5.452  -0.282   0.719  0.00  0.00    +0.073 A 
ATOM     19  C   UNL     1      -6.574  -0.119  -0.050  0.00  0.00    +0.163 A 
BRANCH  19  21
ATOM     21  C   UNL     1      -7.897   0.467   0.195  0.00  0.00    +0.236 C 
BRANCH  21   3
ATOM      3  O   UNL     1      -8.000   1.744  -0.440  0.00  0.00    -0.375 OA
ATOM     28  C   UNL     1      -9.273   2.328  -0.215  0.00  0.00    +0.194 C 
ENDBRANCH  21   3
ENDBRANCH  19  21
ENDBRANCH  14  16
ENDBRANCH  10  14
BRANCH   9  15
ATOM     15  C   UNL     1      -0.177  -1.683   0.717  0.00  0.00    +0.099 C 
BRANCH  15  17
ATOM      1  O   UNL     1       1.499  -2.900  -0.533  0.00  0.00    -0.276 OA
ATOM      7  N   UNL     1       2.114  -1.777   1.407  0.00  0.00    -0.311 N 
ATOM     17  C   UNL     1       1.218  -2.199   0.435  0.00  0.00    +0.214 C 
ATOM     32  H   UNL     1       1.793  -1.181   2.164  0.00  0.00    +0.149 HD
BRANCH   7  20
ATOM     20  C   UNL     1       3.516  -2.124   1.390  0.00  0.00    +0.139 C 
BRANCH  20  22
ATOM     22  C   UNL     1       4.335  -1.117   0.636  0.00  0.00    -0.027 A 
ATOM     23  C   UNL     1       4.355   0.215   1.049  0.00  0.00    +0.054 A 
ATOM     24  C   UNL     1       5.078  -1.513  -0.476  0.00  0.00    +0.009 A 
ATOM     25  C   UNL     1       5.117   1.151   0.350  0.00  0.00    +0.162 A 
ATOM     26  C   UNL     1       5.840  -0.577  -1.175  0.00  0.00    +0.050 A 
ATOM     27  C   UNL     1       5.860   0.755  -0.762  0.00  0.00    +0.162 A 
BRANCH  25   4
ATOM      4  O   UNL     1       5.130   2.449   0.764  0.00  0.00    -0.491 OA
ATOM     29  C   UNL     1       4.343   2.771   1.910  0.00  0.00    +0.277 C 
ENDBRANCH  25   4
BRANCH  27   5
ATOM      5  O   UNL     1       6.609   1.659  -1.453  0.00  0.00    -0.491 OA
ATOM     30  C   UNL     1       7.338   1.172  -2.578  0.00  0.00    +0.277 C 
ENDBRANCH  27   5
ENDBRANCH  20  22
ENDBRANCH   7  20
ENDBRANCH  15  17
ENDBRANCH   9  15
TORSDOF 10
