MODEL 1
REMARK VINA RESULT:      -7.4      0.000      0.000
REMARK  Name = 40777229
REMARK  6 active torsions:
REMARK  status: ('A' for Active; 'I' for Inactive)
REMARK    1  A    between atoms: N_5  and  C_16
REMARK    2  A    between atoms: N_8  and  C_26
REMARK    3  A    between atoms: C_10  and  C_17
REMARK    4  A    between atoms: C_11  and  C_16
REMARK    5  A    between atoms: C_19  and  C_22
REMARK    6  A    between atoms: C_20  and  C_23
REMARK                            x       y       z     vdW  Elec       q    Type
REMARK                         _______ _______ _______ _____ _____    ______ ____
ROOT
ATOM      4  N   UNL     1      -5.753 -10.577   9.693  0.00  0.00    -0.297 NA
ATOM      9  C   UNL     1      -3.741  -9.279  10.716  0.00  0.00    +0.002 C 
ATOM     10  C   UNL     1      -3.635 -10.794  11.045  0.00  0.00    +0.055 C 
ATOM     11  C   UNL     1      -6.243  -9.398  10.455  0.00  0.00    +0.074 C 
ATOM     12  C   UNL     1      -5.088  -8.737  11.238  0.00  0.00    +0.024 C 
ATOM     13  C   UNL     1      -3.769  -9.159   9.177  0.00  0.00    +0.019 C 
ATOM     14  C   UNL     1      -4.960 -11.463  10.581  0.00  0.00    +0.094 C 
ATOM     15  C   UNL     1      -4.862 -10.084   8.616  0.00  0.00    +0.085 C 
ENDROOT
BRANCH  10  17
ATOM      6  N   UNL     1      -2.419 -10.363  13.123  0.00  0.00    -0.237 NA
ATOM      7  N   UNL     1      -2.520 -11.867  15.004  0.00  0.00    -0.232 NA
ATOM     17  C   UNL     1      -3.249 -11.196  12.461  0.00  0.00    +0.050 A 
ATOM     18  C   UNL     1      -3.749 -12.366  12.996  0.00  0.00    +0.052 A 
ATOM     19  C   UNL     1      -3.347 -12.653  14.285  0.00  0.00    +0.076 A 
ATOM     20  C   UNL     1      -2.100 -10.754  14.372  0.00  0.00    +0.127 A 
ATOM     23  C   UNL     1      -1.183  -9.859  15.135  0.00  0.00    +0.088 C 
BRANCH  19  22
ATOM      1 BR   UNL     1      -1.629 -15.281  13.679  0.00  0.00    -0.050 Br
ATOM     22  C   UNL     1      -3.797 -13.847  14.957  0.00  0.00    +0.014 A 
ATOM     24  C   UNL     1      -3.153 -15.074  14.797  0.00  0.00    +0.027 A 
ATOM     25  C   UNL     1      -4.912 -13.749  15.789  0.00  0.00    +0.011 A 
ATOM     27  C   UNL     1      -3.624 -16.203  15.466  0.00  0.00    +0.016 A 
ATOM     28  C   UNL     1      -5.384 -14.878  16.459  0.00  0.00    +0.001 A 
ATOM     29  C   UNL     1      -4.739 -16.105  16.298  0.00  0.00    +0.001 A 
ENDBRANCH  19  22
ENDBRANCH  10  17
BRANCH  11  16
ATOM     16  C   UNL     1      -7.425  -9.742  11.364  0.00  0.00    +0.124 C 
BRANCH  16   5
ATOM      3  O   UNL     1      -6.943 -11.346  13.688  0.00  0.00    -0.253 OA
ATOM      5  N   UNL     1      -7.191  -9.263  12.717  0.00  0.00    -0.298 N 
ATOM      8  N   UNL     1      -6.774  -9.380  14.962  0.00  0.00    -0.269 N 
ATOM     21  C   UNL     1      -6.965 -10.121  13.792  0.00  0.00    +0.304 C 
ATOM     35  H   UNL     1      -7.201  -8.261  12.881  0.00  0.00    +0.150 HD
ATOM     36  H   UNL     1      -6.825  -8.368  14.875  0.00  0.00    +0.156 HD
BRANCH   8  26
ATOM      2 CL   UNL     1      -5.699 -11.418  20.421  0.00  0.00    -0.084 Cl
ATOM     26  C   UNL     1      -6.518  -9.866  16.266  0.00  0.00    +0.035 A 
ATOM     30  C   UNL     1      -7.572 -10.056  17.159  0.00  0.00    +0.025 A 
ATOM     31  C   UNL     1      -5.211 -10.156  16.657  0.00  0.00    +0.025 A 
ATOM     32  C   UNL     1      -7.320 -10.536  18.444  0.00  0.00    +0.022 A 
ATOM     33  C   UNL     1      -4.957 -10.635  17.943  0.00  0.00    +0.022 A 
ATOM     34  C   UNL     1      -6.012 -10.825  18.836  0.00  0.00    +0.041 A 
ENDBRANCH   8  26
ENDBRANCH  16   5
ENDBRANCH  11  16
TORSDOF 5
ENDMDL
MODEL 2
REMARK VINA RESULT:      -7.1      2.227      3.139
REMARK  Name = 40777229
REMARK  6 active torsions:
REMARK  status: ('A' for Active; 'I' for Inactive)
REMARK    1  A    between atoms: N_5  and  C_16
REMARK    2  A    between atoms: N_8  and  C_26
REMARK    3  A    between atoms: C_10  and  C_17
REMARK    4  A    between atoms: C_11  and  C_16
REMARK    5  A    between atoms: C_19  and  C_22
REMARK    6  A    between atoms: C_20  and  C_23
REMARK                            x       y       z     vdW  Elec       q    Type
REMARK                         _______ _______ _______ _____ _____    ______ ____
ROOT
ATOM      4  N   UNL     1      -5.993 -11.378  10.862  0.00  0.00    -0.297 NA
ATOM      9  C   UNL     1      -3.450 -11.087  11.345  0.00  0.00    +0.002 C 
ATOM     10  C   UNL     1      -4.137 -11.870  12.498  0.00  0.00    +0.055 C 
ATOM     11  C   UNL     1      -5.601  -9.954  10.684  0.00  0.00    +0.074 C 
ATOM     12  C   UNL     1      -4.152  -9.725  11.165  0.00  0.00    +0.024 C 
ATOM     13  C   UNL     1      -3.693 -11.896  10.052  0.00  0.00    +0.019 C 
ATOM     14  C   UNL     1      -5.671 -11.826  12.239  0.00  0.00    +0.094 C 
ATOM     15  C   UNL     1      -5.197 -12.190   9.912  0.00  0.00    +0.085 C 
ENDROOT
BRANCH  10  17
ATOM      6  N   UNL     1      -2.542 -11.008  14.140  0.00  0.00    -0.237 NA
ATOM      7  N   UNL     1      -3.087 -10.814  16.479  0.00  0.00    -0.232 NA
ATOM     17  C   UNL     1      -3.783 -11.497  13.930  0.00  0.00    +0.050 A 
ATOM     18  C   UNL     1      -4.717 -11.671  14.930  0.00  0.00    +0.052 A 
ATOM     19  C   UNL     1      -4.310 -11.308  16.198  0.00  0.00    +0.076 A 
ATOM     20  C   UNL     1      -2.266 -10.692  15.419  0.00  0.00    +0.127 A 
ATOM     23  C   UNL     1      -0.903 -10.149  15.690  0.00  0.00    +0.088 C 
BRANCH  19  22
ATOM      1 BR   UNL     1      -5.322 -14.284  16.784  0.00  0.00    -0.050 Br
ATOM     22  C   UNL     1      -5.193 -11.442  17.331  0.00  0.00    +0.014 A 
ATOM     24  C   UNL     1      -5.719 -12.675  17.716  0.00  0.00    +0.027 A 
ATOM     25  C   UNL     1      -5.517 -10.291  18.049  0.00  0.00    +0.011 A 
ATOM     27  C   UNL     1      -6.569 -12.758  18.818  0.00  0.00    +0.016 A 
ATOM     28  C   UNL     1      -6.367 -10.373  19.152  0.00  0.00    +0.001 A 
ATOM     29  C   UNL     1      -6.893 -11.607  19.537  0.00  0.00    +0.001 A 
ENDBRANCH  19  22
ENDBRANCH  10  17
BRANCH  11  16
ATOM     16  C   UNL     1      -6.583  -8.992  11.355  0.00  0.00    +0.124 C 
BRANCH  16   5
ATOM      3  O   UNL     1      -8.866  -9.581  12.982  0.00  0.00    -0.253 OA
ATOM      5  N   UNL     1      -6.596  -9.188  12.796  0.00  0.00    -0.298 N 
ATOM      8  N   UNL     1      -7.467  -9.608  14.867  0.00  0.00    -0.269 N 
ATOM     21  C   UNL     1      -7.760  -9.473  13.507  0.00  0.00    +0.304 C 
ATOM     35  H   UNL     1      -5.719  -9.107  13.300  0.00  0.00    +0.150 HD
ATOM     36  H   UNL     1      -6.494  -9.486  15.139  0.00  0.00    +0.156 HD
BRANCH   8  26
ATOM      2 CL   UNL     1     -11.218 -10.814  19.293  0.00  0.00    -0.084 Cl
ATOM     26  C   UNL     1      -8.362  -9.896  15.925  0.00  0.00    +0.035 A 
ATOM     30  C   UNL     1      -8.822  -8.868  16.748  0.00  0.00    +0.025 A 
ATOM     31  C   UNL     1      -8.785 -11.207  16.142  0.00  0.00    +0.025 A 
ATOM     32  C   UNL     1      -9.705  -9.152  17.790  0.00  0.00    +0.022 A 
ATOM     33  C   UNL     1      -9.668 -11.491  17.185  0.00  0.00    +0.022 A 
ATOM     34  C   UNL     1     -10.128 -10.463  18.008  0.00  0.00    +0.041 A 
ENDBRANCH   8  26
ENDBRANCH  16   5
ENDBRANCH  11  16
TORSDOF 5
ENDMDL
MODEL 3
REMARK VINA RESULT:      -6.7      4.530      8.217
REMARK  Name = 40777229
REMARK  6 active torsions:
REMARK  status: ('A' for Active; 'I' for Inactive)
REMARK    1  A    between atoms: N_5  and  C_16
REMARK    2  A    between atoms: N_8  and  C_26
REMARK    3  A    between atoms: C_10  and  C_17
REMARK    4  A    between atoms: C_11  and  C_16
REMARK    5  A    between atoms: C_19  and  C_22
REMARK    6  A    between atoms: C_20  and  C_23
REMARK                            x       y       z     vdW  Elec       q    Type
REMARK                         _______ _______ _______ _____ _____    ______ ____
ROOT
ATOM      4  N   UNL     1      -5.655  -9.263  10.339  0.00  0.00    -0.297 NA
ATOM      9  C   UNL     1      -6.859 -10.280   8.265  0.00  0.00    +0.002 C 
ATOM     10  C   UNL     1      -6.695  -8.743   8.100  0.00  0.00    +0.055 C 
ATOM     11  C   UNL     1      -6.781 -10.129  10.779  0.00  0.00    +0.074 C 
ATOM     12  C   UNL     1      -7.631 -10.572   9.569  0.00  0.00    +0.024 C 
ATOM     13  C   UNL     1      -5.440 -10.863   8.439  0.00  0.00    +0.019 C 
ATOM     14  C   UNL     1      -6.158  -8.187   9.450  0.00  0.00    +0.094 C 
ATOM     15  C   UNL     1      -4.713 -10.103   9.562  0.00  0.00    +0.085 C 
ENDROOT
BRANCH  10  17
ATOM      6  N   UNL     1      -8.138  -8.039   6.256  0.00  0.00    -0.237 NA
ATOM      7  N   UNL     1      -9.993  -6.536   6.579  0.00  0.00    -0.232 NA
ATOM     17  C   UNL     1      -7.880  -7.946   7.577  0.00  0.00    +0.050 A 
ATOM     18  C   UNL     1      -8.623  -7.179   8.450  0.00  0.00    +0.052 A 
ATOM     19  C   UNL     1      -9.679  -6.489   7.890  0.00  0.00    +0.076 A 
ATOM     20  C   UNL     1      -9.193  -7.319   5.831  0.00  0.00    +0.127 A 
ATOM     23  C   UNL     1      -9.508  -7.396   4.374  0.00  0.00    +0.088 C 
BRANCH  19  22
ATOM      1 BR   UNL     1     -12.153  -7.982   9.258  0.00  0.00    -0.050 Br
ATOM     22  C   UNL     1     -10.532  -5.649   8.695  0.00  0.00    +0.014 A 
ATOM     24  C   UNL     1     -11.652  -6.151   9.358  0.00  0.00    +0.027 A 
ATOM     25  C   UNL     1     -10.208  -4.296   8.801  0.00  0.00    +0.011 A 
ATOM     27  C   UNL     1     -12.448  -5.302  10.125  0.00  0.00    +0.016 A 
ATOM     28  C   UNL     1     -11.004  -3.446   9.569  0.00  0.00    +0.001 A 
ATOM     29  C   UNL     1     -12.124  -3.949  10.231  0.00  0.00    +0.001 A 
ENDBRANCH  19  22
ENDBRANCH  10  17
BRANCH  11  16
ATOM     16  C   UNL     1      -7.635  -9.468  11.864  0.00  0.00    +0.124 C 
BRANCH  16   5
ATOM      3  O   UNL     1      -6.805 -11.332  13.874  0.00  0.00    -0.253 OA
ATOM      5  N   UNL     1      -6.835  -9.176  13.042  0.00  0.00    -0.298 N 
ATOM      8  N   UNL     1      -5.714  -9.579  14.993  0.00  0.00    -0.269 N 
ATOM     21  C   UNL     1      -6.478 -10.151  13.972  0.00  0.00    +0.304 C 
ATOM     35  H   UNL     1      -6.534  -8.218  13.193  0.00  0.00    +0.150 HD
ATOM     36  H   UNL     1      -5.533  -8.581  14.924  0.00  0.00    +0.156 HD
BRANCH   8  26
ATOM      2 CL   UNL     1      -3.381 -12.265  19.732  0.00  0.00    -0.084 Cl
ATOM     26  C   UNL     1      -5.157 -10.221  16.124  0.00  0.00    +0.035 A 
ATOM     30  C   UNL     1      -3.870 -10.754  16.060  0.00  0.00    +0.025 A 
ATOM     31  C   UNL     1      -5.895 -10.320  17.304  0.00  0.00    +0.025 A 
ATOM     32  C   UNL     1      -3.320 -11.387  17.175  0.00  0.00    +0.022 A 
ATOM     33  C   UNL     1      -5.346 -10.953  18.419  0.00  0.00    +0.022 A 
ATOM     34  C   UNL     1      -4.058 -11.486  18.355  0.00  0.00    +0.041 A 
ENDBRANCH   8  26
ENDBRANCH  16   5
ENDBRANCH  11  16
TORSDOF 5
ENDMDL
MODEL 4
REMARK VINA RESULT:      -6.6      4.464      7.054
REMARK  Name = 40777229
REMARK  6 active torsions:
REMARK  status: ('A' for Active; 'I' for Inactive)
REMARK    1  A    between atoms: N_5  and  C_16
REMARK    2  A    between atoms: N_8  and  C_26
REMARK    3  A    between atoms: C_10  and  C_17
REMARK    4  A    between atoms: C_11  and  C_16
REMARK    5  A    between atoms: C_19  and  C_22
REMARK    6  A    between atoms: C_20  and  C_23
REMARK                            x       y       z     vdW  Elec       q    Type
REMARK                         _______ _______ _______ _____ _____    ______ ____
ROOT
ATOM      4  N   UNL     1      -5.656 -11.197  10.760  0.00  0.00    -0.297 NA
ATOM      9  C   UNL     1      -3.204 -11.738  11.450  0.00  0.00    +0.002 C 
ATOM     10  C   UNL     1      -4.167 -11.956  12.649  0.00  0.00    +0.055 C 
ATOM     11  C   UNL     1      -4.757 -10.081  10.360  0.00  0.00    +0.074 C 
ATOM     12  C   UNL     1      -3.342 -10.288  10.942  0.00  0.00    +0.024 C 
ATOM     13  C   UNL     1      -3.691 -12.664  10.315  0.00  0.00    +0.019 C 
ATOM     14  C   UNL     1      -5.566 -11.424  12.224  0.00  0.00    +0.094 C 
ATOM     15  C   UNL     1      -5.191 -12.424  10.072  0.00  0.00    +0.085 C 
ENDROOT
BRANCH  10  17
ATOM      6  N   UNL     1      -2.500 -10.920  14.108  0.00  0.00    -0.237 NA
ATOM      7  N   UNL     1      -2.924 -10.491  16.441  0.00  0.00    -0.232 NA
ATOM     17  C   UNL     1      -3.743 -11.437  14.015  0.00  0.00    +0.050 A 
ATOM     18  C   UNL     1      -4.622 -11.514  15.076  0.00  0.00    +0.052 A 
ATOM     19  C   UNL     1      -4.153 -11.020  16.277  0.00  0.00    +0.076 A 
ATOM     20  C   UNL     1      -2.160 -10.472  15.332  0.00  0.00    +0.127 A 
ATOM     23  C   UNL     1      -0.792  -9.895  15.473  0.00  0.00    +0.088 C 
BRANCH  19  22
ATOM      1 BR   UNL     1      -7.018  -9.632  15.974  0.00  0.00    -0.050 Br
ATOM     22  C   UNL     1      -4.974 -11.044  17.463  0.00  0.00    +0.014 A 
ATOM     24  C   UNL     1      -6.250 -10.481  17.492  0.00  0.00    +0.027 A 
ATOM     25  C   UNL     1      -4.456 -11.655  18.605  0.00  0.00    +0.011 A 
ATOM     27  C   UNL     1      -7.008 -10.528  18.661  0.00  0.00    +0.016 A 
ATOM     28  C   UNL     1      -5.214 -11.703  19.775  0.00  0.00    +0.001 A 
ATOM     29  C   UNL     1      -6.490 -11.139  19.804  0.00  0.00    +0.001 A 
ENDBRANCH  19  22
ENDBRANCH  10  17
BRANCH  11  16
ATOM     16  C   UNL     1      -5.330  -8.711  10.728  0.00  0.00    +0.124 C 
BRANCH  16   5
ATOM      3  O   UNL     1      -7.836  -9.016   9.374  0.00  0.00    -0.253 OA
ATOM      5  N   UNL     1      -5.767  -7.998   9.539  0.00  0.00    -0.298 N 
ATOM      8  N   UNL     1      -7.152  -7.390   7.825  0.00  0.00    -0.269 N 
ATOM     21  C   UNL     1      -7.010  -8.213   8.946  0.00  0.00    +0.304 C 
ATOM     35  H   UNL     1      -5.135  -7.322   9.124  0.00  0.00    +0.150 HD
ATOM     36  H   UNL     1      -6.369  -6.779   7.605  0.00  0.00    +0.156 HD
BRANCH   8  26
ATOM      2 CL   UNL     1     -11.782  -7.014   4.147  0.00  0.00    -0.084 Cl
ATOM     26  C   UNL     1      -8.258  -7.300   6.947  0.00  0.00    +0.035 A 
ATOM     30  C   UNL     1      -9.456  -6.739   7.389  0.00  0.00    +0.025 A 
ATOM     31  C   UNL     1      -8.150  -7.774   5.639  0.00  0.00    +0.025 A 
ATOM     32  C   UNL     1     -10.546  -6.650   6.524  0.00  0.00    +0.022 A 
ATOM     33  C   UNL     1      -9.241  -7.686   4.773  0.00  0.00    +0.022 A 
ATOM     34  C   UNL     1     -10.438  -7.123   5.216  0.00  0.00    +0.041 A 
ENDBRANCH   8  26
ENDBRANCH  16   5
ENDBRANCH  11  16
TORSDOF 5
ENDMDL
MODEL 5
REMARK VINA RESULT:      -6.4     23.959     27.353
REMARK  Name = 40777229
REMARK  6 active torsions:
REMARK  status: ('A' for Active; 'I' for Inactive)
REMARK    1  A    between atoms: N_5  and  C_16
REMARK    2  A    between atoms: N_8  and  C_26
REMARK    3  A    between atoms: C_10  and  C_17
REMARK    4  A    between atoms: C_11  and  C_16
REMARK    5  A    between atoms: C_19  and  C_22
REMARK    6  A    between atoms: C_20  and  C_23
REMARK                            x       y       z     vdW  Elec       q    Type
REMARK                         _______ _______ _______ _____ _____    ______ ____
ROOT
ATOM      4  N   UNL     1       9.410   5.085   6.360  0.00  0.00    -0.297 NA
ATOM      9  C   UNL     1      10.749   7.248   6.917  0.00  0.00    +0.002 C 
ATOM     10  C   UNL     1       9.228   7.557   6.829  0.00  0.00    +0.055 C 
ATOM     11  C   UNL     1      10.541   5.242   5.408  0.00  0.00    +0.074 C 
ATOM     12  C   UNL     1      11.218   6.617   5.589  0.00  0.00    +0.024 C 
ATOM     13  C   UNL     1      10.923   6.176   8.014  0.00  0.00    +0.019 C 
ATOM     14  C   UNL     1       8.525   6.274   6.300  0.00  0.00    +0.094 C 
ATOM     15  C   UNL     1       9.976   4.998   7.727  0.00  0.00    +0.085 C 
ENDROOT
BRANCH  10  17
ATOM      6  N   UNL     1       9.290   9.982   6.519  0.00  0.00    -0.237 NA
ATOM      7  N   UNL     1       8.040  11.085   4.778  0.00  0.00    -0.232 NA
ATOM     17  C   UNL     1       8.791   8.807   6.080  0.00  0.00    +0.050 A 
ATOM     18  C   UNL     1       7.924   8.693   5.013  0.00  0.00    +0.052 A 
ATOM     19  C   UNL     1       7.581   9.877   4.393  0.00  0.00    +0.076 A 
ATOM     20  C   UNL     1       8.878  11.065   5.832  0.00  0.00    +0.127 A 
ATOM     23  C   UNL     1       9.408  12.382   6.288  0.00  0.00    +0.088 C 
BRANCH  19  22
ATOM      1 BR   UNL     1       8.868   8.960   1.613  0.00  0.00    -0.050 Br
ATOM     22  C   UNL     1       6.680   9.894   3.266  0.00  0.00    +0.014 A 
ATOM     24  C   UNL     1       7.090   9.521   1.986  0.00  0.00    +0.027 A 
ATOM     25  C   UNL     1       5.363  10.298   3.486  0.00  0.00    +0.011 A 
ATOM     27  C   UNL     1       6.184   9.553   0.926  0.00  0.00    +0.016 A 
ATOM     28  C   UNL     1       4.457  10.331   2.426  0.00  0.00    +0.001 A 
ATOM     29  C   UNL     1       4.868   9.958   1.146  0.00  0.00    +0.001 A 
ENDBRANCH  19  22
ENDBRANCH  10  17
BRANCH  11  16
ATOM     16  C   UNL     1      10.119   5.001   3.957  0.00  0.00    +0.124 C 
BRANCH  16   5
ATOM      3  O   UNL     1      11.863   5.977   1.905  0.00  0.00    -0.253 OA
ATOM      5  N   UNL     1      11.131   4.240   3.244  0.00  0.00    -0.298 N 
ATOM      8  N   UNL     1      12.813   3.835   1.749  0.00  0.00    -0.269 N 
ATOM     21  C   UNL     1      11.938   4.801   2.255  0.00  0.00    +0.304 C 
ATOM     35  H   UNL     1      11.246   3.259   3.475  0.00  0.00    +0.150 HD
ATOM     36  H   UNL     1      12.745   2.902   2.150  0.00  0.00    +0.156 HD
BRANCH   8  26
ATOM      2 CL   UNL     1      16.910   4.497  -2.480  0.00  0.00    -0.084 Cl
ATOM     26  C   UNL     1      13.791   3.992   0.738  0.00  0.00    +0.035 A 
ATOM     30  C   UNL     1      13.400   4.177  -0.587  0.00  0.00    +0.025 A 
ATOM     31  C   UNL     1      15.146   3.963   1.070  0.00  0.00    +0.025 A 
ATOM     32  C   UNL     1      14.364   4.333  -1.583  0.00  0.00    +0.022 A 
ATOM     33  C   UNL     1      16.110   4.118   0.074  0.00  0.00    +0.022 A 
ATOM     34  C   UNL     1      15.719   4.304  -1.252  0.00  0.00    +0.041 A 
ENDBRANCH   8  26
ENDBRANCH  16   5
ENDBRANCH  11  16
TORSDOF 5
ENDMDL
MODEL 6
REMARK VINA RESULT:      -6.4      3.905      7.041
REMARK  Name = 40777229
REMARK  6 active torsions:
REMARK  status: ('A' for Active; 'I' for Inactive)
REMARK    1  A    between atoms: N_5  and  C_16
REMARK    2  A    between atoms: N_8  and  C_26
REMARK    3  A    between atoms: C_10  and  C_17
REMARK    4  A    between atoms: C_11  and  C_16
REMARK    5  A    between atoms: C_19  and  C_22
REMARK    6  A    between atoms: C_20  and  C_23
REMARK                            x       y       z     vdW  Elec       q    Type
REMARK                         _______ _______ _______ _____ _____    ______ ____
ROOT
ATOM      4  N   UNL     1      -6.937 -10.445  18.452  0.00  0.00    -0.297 NA
ATOM      9  C   UNL     1      -5.046 -12.234  18.381  0.00  0.00    +0.002 C 
ATOM     10  C   UNL     1      -4.843 -11.183  17.255  0.00  0.00    +0.055 C 
ATOM     11  C   UNL     1      -7.527 -11.810  18.483  0.00  0.00    +0.074 C 
ATOM     12  C   UNL     1      -6.441 -12.878  18.232  0.00  0.00    +0.024 C 
ATOM     13  C   UNL     1      -5.044 -11.461  19.717  0.00  0.00    +0.019 C 
ATOM     14  C   UNL     1      -6.107 -10.276  17.234  0.00  0.00    +0.094 C 
ATOM     15  C   UNL     1      -6.056 -10.305  19.636  0.00  0.00    +0.085 C 
ENDROOT
BRANCH  10  17
ATOM      6  N   UNL     1      -4.211 -12.999  15.744  0.00  0.00    -0.237 NA
ATOM      7  N   UNL     1      -3.783 -12.631  13.402  0.00  0.00    -0.232 NA
ATOM     17  C   UNL     1      -4.466 -11.680  15.867  0.00  0.00    +0.050 A 
ATOM     18  C   UNL     1      -4.402 -10.786  14.818  0.00  0.00    +0.052 A 
ATOM     19  C   UNL     1      -4.052 -11.323  13.596  0.00  0.00    +0.076 A 
ATOM     20  C   UNL     1      -3.880 -13.400  14.502  0.00  0.00    +0.127 A 
ATOM     23  C   UNL     1      -3.589 -14.853  14.328  0.00  0.00    +0.088 C 
BRANCH  19  22
ATOM      1 BR   UNL     1      -6.807 -10.058  12.577  0.00  0.00    -0.050 Br
ATOM     22  C   UNL     1      -3.947 -10.494  12.420  0.00  0.00    +0.014 A 
ATOM     24  C   UNL     1      -5.059  -9.870  11.853  0.00  0.00    +0.027 A 
ATOM     25  C   UNL     1      -2.686 -10.324  11.849  0.00  0.00    +0.011 A 
ATOM     27  C   UNL     1      -4.910  -9.077  10.715  0.00  0.00    +0.016 A 
ATOM     28  C   UNL     1      -2.536  -9.531  10.711  0.00  0.00    +0.001 A 
ATOM     29  C   UNL     1      -3.648  -8.907  10.144  0.00  0.00    +0.001 A 
ENDBRANCH  19  22
ENDBRANCH  10  17
BRANCH  11  16
ATOM     16  C   UNL     1      -8.704 -11.957  17.516  0.00  0.00    +0.124 C 
BRANCH  16   5
ATOM      3  O   UNL     1      -9.472 -10.132  15.445  0.00  0.00    -0.253 OA
ATOM      5  N   UNL     1      -9.620 -10.835  17.643  0.00  0.00    -0.298 N 
ATOM      8  N   UNL     1     -10.836  -9.011  16.993  0.00  0.00    -0.269 N 
ATOM     21  C   UNL     1      -9.936  -9.996  16.575  0.00  0.00    +0.304 C 
ATOM     35  H   UNL     1     -10.038 -10.656  18.550  0.00  0.00    +0.150 HD
ATOM     36  H   UNL     1     -11.122  -9.039  17.969  0.00  0.00    +0.156 HD
BRANCH   8  26
ATOM      2 CL   UNL     1     -13.216  -4.653  13.762  0.00  0.00    -0.084 Cl
ATOM     26  C   UNL     1     -11.404  -7.970  16.222  0.00  0.00    +0.035 A 
ATOM     30  C   UNL     1     -10.662  -6.822  15.947  0.00  0.00    +0.025 A 
ATOM     31  C   UNL     1     -12.706  -8.093  15.737  0.00  0.00    +0.025 A 
ATOM     32  C   UNL     1     -11.222  -5.795  15.186  0.00  0.00    +0.022 A 
ATOM     33  C   UNL     1     -13.267  -7.066  14.977  0.00  0.00    +0.022 A 
ATOM     34  C   UNL     1     -12.524  -5.918  14.701  0.00  0.00    +0.041 A 
ENDBRANCH   8  26
ENDBRANCH  16   5
ENDBRANCH  11  16
TORSDOF 5
ENDMDL
MODEL 7
REMARK VINA RESULT:      -6.4     27.006     30.056
REMARK  Name = 40777229
REMARK  6 active torsions:
REMARK  status: ('A' for Active; 'I' for Inactive)
REMARK    1  A    between atoms: N_5  and  C_16
REMARK    2  A    between atoms: N_8  and  C_26
REMARK    3  A    between atoms: C_10  and  C_17
REMARK    4  A    between atoms: C_11  and  C_16
REMARK    5  A    between atoms: C_19  and  C_22
REMARK    6  A    between atoms: C_20  and  C_23
REMARK                            x       y       z     vdW  Elec       q    Type
REMARK                         _______ _______ _______ _____ _____    ______ ____
ROOT
ATOM      4  N   UNL     1      17.528  -3.412  32.191  0.00  0.00    -0.297 NA
ATOM      9  C   UNL     1      16.270  -3.212  29.920  0.00  0.00    +0.002 C 
ATOM     10  C   UNL     1      17.759  -3.591  29.686  0.00  0.00    +0.055 C 
ATOM     11  C   UNL     1      16.780  -2.128  32.136  0.00  0.00    +0.074 C 
ATOM     12  C   UNL     1      16.199  -1.897  30.724  0.00  0.00    +0.024 C 
ATOM     13  C   UNL     1      15.663  -4.319  30.808  0.00  0.00    +0.019 C 
ATOM     14  C   UNL     1      18.483  -3.493  31.059  0.00  0.00    +0.094 C 
ATOM     15  C   UNL     1      16.549  -4.515  32.051  0.00  0.00    +0.085 C 
ENDROOT
BRANCH  10  17
ATOM      6  N   UNL     1      19.670  -2.266  28.931  0.00  0.00    -0.237 NA
ATOM      7  N   UNL     1      19.923  -1.567  26.638  0.00  0.00    -0.232 NA
ATOM     17  C   UNL     1      18.518  -2.873  28.579  0.00  0.00    +0.050 A 
ATOM     18  C   UNL     1      18.010  -2.871  27.296  0.00  0.00    +0.052 A 
ATOM     19  C   UNL     1      18.764  -2.196  26.357  0.00  0.00    +0.076 A 
ATOM     20  C   UNL     1      20.312  -1.641  27.925  0.00  0.00    +0.127 A 
ATOM     23  C   UNL     1      21.591  -0.956  28.276  0.00  0.00    +0.088 C 
BRANCH  19  22
ATOM      1 BR   UNL     1      19.988  -4.437  24.432  0.00  0.00    -0.050 Br
ATOM     22  C   UNL     1      18.341  -2.118  24.980  0.00  0.00    +0.014 A 
ATOM     24  C   UNL     1      18.787  -3.023  24.017  0.00  0.00    +0.027 A 
ATOM     25  C   UNL     1      17.460  -1.097  24.623  0.00  0.00    +0.011 A 
ATOM     27  C   UNL     1      18.352  -2.908  22.697  0.00  0.00    +0.016 A 
ATOM     28  C   UNL     1      17.024  -0.982  23.302  0.00  0.00    +0.001 A 
ATOM     29  C   UNL     1      17.470  -1.888  22.339  0.00  0.00    +0.001 A 
ENDBRANCH  19  22
ENDBRANCH  10  17
BRANCH  11  16
ATOM     16  C   UNL     1      17.623  -0.941  32.607  0.00  0.00    +0.124 C 
BRANCH  16   5
ATOM      3  O   UNL     1      18.721   1.702  32.728  0.00  0.00    -0.253 OA
ATOM      5  N   UNL     1      16.901   0.308  32.428  0.00  0.00    -0.298 N 
ATOM      8  N   UNL     1      16.582   2.568  32.294  0.00  0.00    -0.269 N 
ATOM     21  C   UNL     1      17.521   1.554  32.505  0.00  0.00    +0.304 C 
ATOM     35  H   UNL     1      15.903   0.265  32.247  0.00  0.00    +0.150 HD
ATOM     36  H   UNL     1      15.623   2.274  32.122  0.00  0.00    +0.156 HD
BRANCH   8  26
ATOM      2 CL   UNL     1      17.492   8.423  32.271  0.00  0.00    -0.084 Cl
ATOM     26  C   UNL     1      16.799   3.966  32.289  0.00  0.00    +0.035 A 
ATOM     30  C   UNL     1      17.054   4.636  33.485  0.00  0.00    +0.025 A 
ATOM     31  C   UNL     1      16.757   4.674  31.087  0.00  0.00    +0.025 A 
ATOM     32  C   UNL     1      17.269   6.015  33.480  0.00  0.00    +0.022 A 
ATOM     33  C   UNL     1      16.971   6.052  31.082  0.00  0.00    +0.022 A 
ATOM     34  C   UNL     1      17.227   6.722  32.278  0.00  0.00    +0.041 A 
ENDBRANCH   8  26
ENDBRANCH  16   5
ENDBRANCH  11  16
TORSDOF 5
ENDMDL
MODEL 8
REMARK VINA RESULT:      -6.3     24.181     27.405
REMARK  Name = 40777229
REMARK  6 active torsions:
REMARK  status: ('A' for Active; 'I' for Inactive)
REMARK    1  A    between atoms: N_5  and  C_16
REMARK    2  A    between atoms: N_8  and  C_26
REMARK    3  A    between atoms: C_10  and  C_17
REMARK    4  A    between atoms: C_11  and  C_16
REMARK    5  A    between atoms: C_19  and  C_22
REMARK    6  A    between atoms: C_20  and  C_23
REMARK                            x       y       z     vdW  Elec       q    Type
REMARK                         _______ _______ _______ _____ _____    ______ ____
ROOT
ATOM      4  N   UNL     1      14.760   9.860   5.897  0.00  0.00    -0.297 NA
ATOM      9  C   UNL     1      12.783  10.661   4.403  0.00  0.00    +0.002 C 
ATOM     10  C   UNL     1      12.271  10.261   5.814  0.00  0.00    +0.055 C 
ATOM     11  C   UNL     1      14.797   9.159   4.585  0.00  0.00    +0.074 C 
ATOM     12  C   UNL     1      13.522   9.464   3.770  0.00  0.00    +0.024 C 
ATOM     13  C   UNL     1      13.826  11.780   4.610  0.00  0.00    +0.019 C 
ATOM     14  C   UNL     1      13.463   9.609   6.572  0.00  0.00    +0.094 C 
ATOM     15  C   UNL     1      14.872  11.315   5.637  0.00  0.00    +0.085 C 
ENDROOT
BRANCH  10  17
ATOM      6  N   UNL     1       9.912   9.908   5.272  0.00  0.00    -0.237 NA
ATOM      7  N   UNL     1       8.693   7.977   6.042  0.00  0.00    -0.232 NA
ATOM     17  C   UNL     1      11.001   9.427   5.908  0.00  0.00    +0.050 A 
ATOM     18  C   UNL     1      11.013   8.246   6.621  0.00  0.00    +0.052 A 
ATOM     19  C   UNL     1       9.819   7.556   6.654  0.00  0.00    +0.076 A 
ATOM     20  C   UNL     1       8.809   9.143   5.379  0.00  0.00    +0.127 A 
ATOM     23  C   UNL     1       7.584   9.643   4.690  0.00  0.00    +0.088 C 
BRANCH  19  22
ATOM      1 BR   UNL     1      10.193   4.929   4.869  0.00  0.00    -0.050 Br
ATOM     22  C   UNL     1       9.699   6.308   7.368  0.00  0.00    +0.014 A 
ATOM     24  C   UNL     1       9.837   5.074   6.731  0.00  0.00    +0.027 A 
ATOM     25  C   UNL     1       9.437   6.359   8.737  0.00  0.00    +0.011 A 
ATOM     27  C   UNL     1       9.713   3.893   7.461  0.00  0.00    +0.016 A 
ATOM     28  C   UNL     1       9.312   5.178   9.468  0.00  0.00    +0.001 A 
ATOM     29  C   UNL     1       9.451   3.945   8.830  0.00  0.00    +0.001 A 
ENDBRANCH  19  22
ENDBRANCH  10  17
BRANCH  11  16
ATOM     16  C   UNL     1      15.031   7.654   4.736  0.00  0.00    +0.124 C 
BRANCH  16   5
ATOM      3  O   UNL     1      15.079   6.367   2.178  0.00  0.00    -0.253 OA
ATOM      5  N   UNL     1      13.950   6.900   4.123  0.00  0.00    -0.298 N 
ATOM      8  N   UNL     1      12.872   5.652   2.539  0.00  0.00    -0.269 N 
ATOM     21  C   UNL     1      14.063   6.305   2.867  0.00  0.00    +0.304 C 
ATOM     35  H   UNL     1      13.076   6.812   4.631  0.00  0.00    +0.150 HD
ATOM     36  H   UNL     1      12.122   5.698   3.225  0.00  0.00    +0.156 HD
BRANCH   8  26
ATOM      2 CL   UNL     1      11.628   2.621  -2.398  0.00  0.00    -0.084 Cl
ATOM     26  C   UNL     1      12.574   4.928   1.360  0.00  0.00    +0.035 A 
ATOM     30  C   UNL     1      11.534   5.345   0.531  0.00  0.00    +0.025 A 
ATOM     31  C   UNL     1      13.322   3.798   1.029  0.00  0.00    +0.025 A 
ATOM     32  C   UNL     1      11.240   4.631  -0.632  0.00  0.00    +0.022 A 
ATOM     33  C   UNL     1      13.029   3.084  -0.133  0.00  0.00    +0.022 A 
ATOM     34  C   UNL     1      11.988   3.501  -0.964  0.00  0.00    +0.041 A 
ENDBRANCH   8  26
ENDBRANCH  16   5
ENDBRANCH  11  16
TORSDOF 5
ENDMDL
MODEL 9
REMARK VINA RESULT:      -6.3      3.708      6.505
REMARK  Name = 40777229
REMARK  6 active torsions:
REMARK  status: ('A' for Active; 'I' for Inactive)
REMARK    1  A    between atoms: N_5  and  C_16
REMARK    2  A    between atoms: N_8  and  C_26
REMARK    3  A    between atoms: C_10  and  C_17
REMARK    4  A    between atoms: C_11  and  C_16
REMARK    5  A    between atoms: C_19  and  C_22
REMARK    6  A    between atoms: C_20  and  C_23
REMARK                            x       y       z     vdW  Elec       q    Type
REMARK                         _______ _______ _______ _____ _____    ______ ____
ROOT
ATOM      4  N   UNL     1      -7.651 -10.714  17.707  0.00  0.00    -0.297 NA
ATOM      9  C   UNL     1      -5.481 -12.129  17.974  0.00  0.00    +0.002 C 
ATOM     10  C   UNL     1      -5.151 -10.736  17.371  0.00  0.00    +0.055 C 
ATOM     11  C   UNL     1      -7.848 -12.063  17.114  0.00  0.00    +0.074 C 
ATOM     12  C   UNL     1      -6.515 -12.841  17.077  0.00  0.00    +0.024 C 
ATOM     13  C   UNL     1      -6.162 -11.875  19.336  0.00  0.00    +0.019 C 
ATOM     14  C   UNL     1      -6.503 -10.035  17.057  0.00  0.00    +0.094 C 
ATOM     15  C   UNL     1      -7.330 -10.891  19.143  0.00  0.00    +0.085 C 
ENDROOT
BRANCH  10  17
ATOM      6  N   UNL     1      -2.877 -10.495  16.505  0.00  0.00    -0.237 NA
ATOM      7  N   UNL     1      -2.390 -10.544  14.145  0.00  0.00    -0.232 NA
ATOM     17  C   UNL     1      -4.180 -10.671  16.202  0.00  0.00    +0.050 A 
ATOM     18  C   UNL     1      -4.658 -10.790  14.913  0.00  0.00    +0.052 A 
ATOM     19  C   UNL     1      -3.708 -10.719  13.914  0.00  0.00    +0.076 A 
ATOM     20  C   UNL     1      -2.049 -10.441  15.443  0.00  0.00    +0.127 A 
ATOM     23  C   UNL     1      -0.600 -10.246  15.739  0.00  0.00    +0.088 C 
BRANCH  19  22
ATOM      1 BR   UNL     1      -2.773 -13.412  12.466  0.00  0.00    -0.050 Br
ATOM     22  C   UNL     1      -4.078 -10.827  12.524  0.00  0.00    +0.014 A 
ATOM     24  C   UNL     1      -3.744 -11.941  11.754  0.00  0.00    +0.027 A 
ATOM     25  C   UNL     1      -4.792  -9.773  11.953  0.00  0.00    +0.011 A 
ATOM     27  C   UNL     1      -4.123 -12.002  10.414  0.00  0.00    +0.016 A 
ATOM     28  C   UNL     1      -5.172  -9.834  10.612  0.00  0.00    +0.001 A 
ATOM     29  C   UNL     1      -4.838 -10.948   9.842  0.00  0.00    +0.001 A 
ENDBRANCH  19  22
ENDBRANCH  10  17
BRANCH  11  16
ATOM     16  C   UNL     1      -8.511 -12.003  15.737  0.00  0.00    +0.124 C 
BRANCH  16   5
ATOM      3  O   UNL     1      -8.799  -9.473  14.425  0.00  0.00    -0.253 OA
ATOM      5  N   UNL     1      -9.680 -11.138  15.764  0.00  0.00    -0.298 N 
ATOM      8  N   UNL     1     -10.972  -9.311  15.300  0.00  0.00    -0.269 N 
ATOM     21  C   UNL     1      -9.730  -9.918  15.093  0.00  0.00    +0.304 C 
ATOM     35  H   UNL     1     -10.487 -11.438  16.302  0.00  0.00    +0.150 HD
ATOM     36  H   UNL     1     -11.636  -9.815  15.883  0.00  0.00    +0.156 HD
BRANCH   8  26
ATOM      2 CL   UNL     1     -12.877  -4.111  13.193  0.00  0.00    -0.084 Cl
ATOM     26  C   UNL     1     -11.427  -8.069  14.796  0.00  0.00    +0.035 A 
ATOM     30  C   UNL     1     -12.009  -8.001  13.530  0.00  0.00    +0.025 A 
ATOM     31  C   UNL     1     -11.293  -6.913  15.566  0.00  0.00    +0.025 A 
ATOM     32  C   UNL     1     -12.458  -6.777  13.034  0.00  0.00    +0.022 A 
ATOM     33  C   UNL     1     -11.741  -5.689  15.069  0.00  0.00    +0.022 A 
ATOM     34  C   UNL     1     -12.324  -5.621  13.804  0.00  0.00    +0.041 A 
ENDBRANCH   8  26
ENDBRANCH  16   5
ENDBRANCH  11  16
TORSDOF 5
ENDMDL
MODEL 10
REMARK VINA RESULT:      -6.2     27.593     30.100
REMARK  Name = 40777229
REMARK  6 active torsions:
REMARK  status: ('A' for Active; 'I' for Inactive)
REMARK    1  A    between atoms: N_5  and  C_16
REMARK    2  A    between atoms: N_8  and  C_26
REMARK    3  A    between atoms: C_10  and  C_17
REMARK    4  A    between atoms: C_11  and  C_16
REMARK    5  A    between atoms: C_19  and  C_22
REMARK    6  A    between atoms: C_20  and  C_23
REMARK                            x       y       z     vdW  Elec       q    Type
REMARK                         _______ _______ _______ _____ _____    ______ ____
ROOT
ATOM      4  N   UNL     1      10.693  12.666  22.575  0.00  0.00    -0.297 NA
ATOM      9  C   UNL     1      13.206  12.941  23.202  0.00  0.00    +0.002 C 
ATOM     10  C   UNL     1      13.009  13.082  21.667  0.00  0.00    +0.055 C 
ATOM     11  C   UNL     1      11.124  11.545  23.452  0.00  0.00    +0.074 C 
ATOM     12  C   UNL     1      12.653  11.577  23.663  0.00  0.00    +0.024 C 
ATOM     13  C   UNL     1      12.334  14.031  23.864  0.00  0.00    +0.019 C 
ATOM     14  C   UNL     1      11.532  12.708  21.352  0.00  0.00    +0.094 C 
ATOM     15  C   UNL     1      10.898  13.930  23.321  0.00  0.00    +0.085 C 
ENDROOT
BRANCH  10  17
ATOM      6  N   UNL     1      14.978  11.668  21.343  0.00  0.00    -0.237 NA
ATOM      7  N   UNL     1      15.790  11.080  19.152  0.00  0.00    -0.232 NA
ATOM     17  C   UNL     1      13.993  12.373  20.748  0.00  0.00    +0.050 A 
ATOM     18  C   UNL     1      13.843  12.476  19.380  0.00  0.00    +0.052 A 
ATOM     19  C   UNL     1      14.780  11.802  18.624  0.00  0.00    +0.076 A 
ATOM     20  C   UNL     1      15.829  11.056  20.497  0.00  0.00    +0.127 A 
ATOM     23  C   UNL     1      16.933  10.269  21.119  0.00  0.00    +0.088 C 
BRANCH  19  22
ATOM      1 BR   UNL     1      12.935   9.565  17.275  0.00  0.00    -0.050 Br
ATOM     22  C   UNL     1      14.736  11.832  17.182  0.00  0.00    +0.014 A 
ATOM     24  C   UNL     1      13.976  10.923  16.446  0.00  0.00    +0.027 A 
ATOM     25  C   UNL     1      15.483  12.810  16.525  0.00  0.00    +0.011 A 
ATOM     27  C   UNL     1      13.964  10.990  15.053  0.00  0.00    +0.016 A 
ATOM     28  C   UNL     1      15.471  12.877  15.131  0.00  0.00    +0.001 A 
ATOM     29  C   UNL     1      14.711  11.968  14.396  0.00  0.00    +0.001 A 
ENDBRANCH  19  22
ENDBRANCH  10  17
BRANCH  11  16
ATOM     16  C   UNL     1      10.648  10.185  22.935  0.00  0.00    +0.124 C 
BRANCH  16   5
ATOM      3  O   UNL     1      12.330   9.448  20.737  0.00  0.00    -0.253 OA
ATOM      5  N   UNL     1      11.732   9.217  22.958  0.00  0.00    -0.298 N 
ATOM      8  N   UNL     1      13.462   7.957  22.154  0.00  0.00    -0.269 N 
ATOM     21  C   UNL     1      12.501   8.920  21.833  0.00  0.00    +0.304 C 
ATOM     35  H   UNL     1      11.928   8.734  23.829  0.00  0.00    +0.150 HD
ATOM     36  H   UNL     1      13.469   7.620  23.114  0.00  0.00    +0.156 HD
BRANCH   8  26
ATOM      2 CL   UNL     1      17.544   5.562  18.589  0.00  0.00    -0.084 Cl
ATOM     26  C   UNL     1      14.436   7.384  21.302  0.00  0.00    +0.035 A 
ATOM     30  C   UNL     1      14.136   7.142  19.962  0.00  0.00    +0.025 A 
ATOM     31  C   UNL     1      15.698   7.063  21.803  0.00  0.00    +0.025 A 
ATOM     32  C   UNL     1      15.096   6.579  19.122  0.00  0.00    +0.022 A 
ATOM     33  C   UNL     1      16.659   6.498  20.964  0.00  0.00    +0.022 A 
ATOM     34  C   UNL     1      16.358   6.257  19.624  0.00  0.00    +0.041 A 
ENDBRANCH   8  26
ENDBRANCH  16   5
ENDBRANCH  11  16
TORSDOF 5
ENDMDL
