MODEL 1
REMARK VINA RESULT:      -6.4      0.000      0.000
REMARK  Name = 45361461
REMARK  12 active torsions:
REMARK  status: ('A' for Active; 'I' for Inactive)
REMARK    1  A    between atoms: O_1  and  C_10
REMARK    2  A    between atoms: N_4  and  C_14
REMARK    3  A    between atoms: N_5  and  C_29
REMARK    4  A    between atoms: N_5  and  C_30
REMARK    5  A    between atoms: C_7  and  C_17
REMARK    6  A    between atoms: C_9  and  C_19
REMARK    7  A    between atoms: C_13  and  C_18
REMARK    8  A    between atoms: C_18  and  C_20
REMARK    9  A    between atoms: C_18  and  C_21
REMARK   10  A    between atoms: C_22  and  C_23
REMARK   11  A    between atoms: C_29  and  C_31
REMARK   12  A    between atoms: C_31  and  C_32
REMARK                            x       y       z     vdW  Elec       q    Type
REMARK                         _______ _______ _______ _____ _____    ______ ____
ROOT
ATOM      7  C   UNL     1      -3.747 -10.598  10.460  0.00  0.00    -0.027 C 
ATOM      8  C   UNL     1      -5.070 -10.283  11.235  0.00  0.00    +0.028 C 
ATOM      9  C   UNL     1      -5.840  -9.091  10.563  0.00  0.00    +0.012 C 
ATOM     10  C   UNL     1      -4.807 -10.135  12.761  0.00  0.00    +0.122 C 
ATOM     11  C   UNL     1      -3.071 -11.845  11.078  0.00  0.00    +0.007 C 
ATOM     12  C   UNL     1      -4.090 -10.928   8.989  0.00  0.00    +0.009 C 
ATOM     13  C   UNL     1      -4.039 -11.339  13.353  0.00  0.00    +0.029 C 
ATOM     14  C   UNL     1      -6.114  -9.402   9.064  0.00  0.00    +0.076 C 
ATOM     15  C   UNL     1      -2.778 -11.688  12.563  0.00  0.00    +0.007 C 
ATOM     16  C   UNL     1      -4.862  -9.818   8.292  0.00  0.00    +0.023 C 
ATOM     17  C   UNL     1      -2.742  -9.419  10.497  0.00  0.00    +0.011 C 
ATOM     19  C   UNL     1      -7.168  -8.746  11.259  0.00  0.00    +0.010 C 
ENDROOT
BRANCH  14   4
ATOM      3  O   UNL     1      -8.219  -9.473   7.067  0.00  0.00    -0.276 OA
ATOM      4  N   UNL     1      -6.720  -8.277   8.385  0.00  0.00    -0.312 N 
ATOM     22  C   UNL     1      -7.723  -8.414   7.443  0.00  0.00    +0.216 C 
ATOM     33  H   UNL     1      -6.348  -7.352   8.582  0.00  0.00    +0.149 HD
BRANCH  22  23
ATOM     23  C   UNL     1      -8.188  -7.089   6.914  0.00  0.00    +0.075 C 
ATOM     24  C   UNL     1      -9.390  -7.260   5.982  0.00  0.00    +0.013 C 
ATOM     25  C   UNL     1      -8.470  -6.129   8.071  0.00  0.00    +0.013 C 
ATOM     26  C   UNL     1     -10.699  -7.532   6.721  0.00  0.00    +0.001 C 
ATOM     27  C   UNL     1      -9.783  -6.430   8.793  0.00  0.00    +0.001 C 
ATOM     28  C   UNL     1     -10.954  -6.508   7.820  0.00  0.00    +0.000 C 
ENDBRANCH  22  23
ENDBRANCH  14   4
BRANCH  10   1
ATOM      1  O   UNL     1      -6.054 -10.065  13.455  0.00  0.00    -0.391 OA
ATOM     34  H   UNL     1      -5.928 -10.447  14.340  0.00  0.00    +0.210 HD
ENDBRANCH  10   1
BRANCH  13  18
ATOM     18  C   UNL     1      -3.676 -11.115  14.826  0.00  0.00    +0.078 C 
ATOM     20  C   UNL     1      -2.169 -10.889  14.950  0.00  0.00    +0.017 C 
BRANCH  18  21
ATOM      2  O   UNL     1      -4.057 -13.453  15.171  0.00  0.00    -0.275 OA
ATOM      5  N   UNL     1      -4.609 -12.077  16.947  0.00  0.00    -0.303 N 
ATOM     21  C   UNL     1      -4.121 -12.319  15.659  0.00  0.00    +0.219 C 
ATOM     30  C   UNL     1      -5.062 -13.201  17.759  0.00  0.00    +0.132 C 
BRANCH   5  29
ATOM     29  C   UNL     1      -4.686 -10.776  17.609  0.00  0.00    +0.122 C 
BRANCH  29  31
ATOM     31  C   UNL     1      -6.104 -10.427  18.046  0.00  0.00    +0.137 C 
BRANCH  31  32
ATOM      6  N   UNL     1      -7.582  -9.623  16.024  0.00  0.00    -0.197 NA
ATOM     32  C   UNL     1      -6.930  -9.978  16.916  0.00  0.00    +0.064 C 
ENDBRANCH  31  32
ENDBRANCH  29  31
ENDBRANCH   5  29
ENDBRANCH  18  21
ENDBRANCH  13  18
TORSDOF 8
ENDMDL
MODEL 2
REMARK VINA RESULT:      -6.3      3.585      8.608
REMARK  Name = 45361461
REMARK  12 active torsions:
REMARK  status: ('A' for Active; 'I' for Inactive)
REMARK    1  A    between atoms: O_1  and  C_10
REMARK    2  A    between atoms: N_4  and  C_14
REMARK    3  A    between atoms: N_5  and  C_29
REMARK    4  A    between atoms: N_5  and  C_30
REMARK    5  A    between atoms: C_7  and  C_17
REMARK    6  A    between atoms: C_9  and  C_19
REMARK    7  A    between atoms: C_13  and  C_18
REMARK    8  A    between atoms: C_18  and  C_20
REMARK    9  A    between atoms: C_18  and  C_21
REMARK   10  A    between atoms: C_22  and  C_23
REMARK   11  A    between atoms: C_29  and  C_31
REMARK   12  A    between atoms: C_31  and  C_32
REMARK                            x       y       z     vdW  Elec       q    Type
REMARK                         _______ _______ _______ _____ _____    ______ ____
ROOT
ATOM      7  C   UNL     1      -4.744 -11.572  17.671  0.00  0.00    -0.027 C 
ATOM      8  C   UNL     1      -5.607 -10.530  16.884  0.00  0.00    +0.028 C 
ATOM      9  C   UNL     1      -7.096 -10.549  17.382  0.00  0.00    +0.012 C 
ATOM     10  C   UNL     1      -5.412 -10.683  15.349  0.00  0.00    +0.122 C 
ATOM     11  C   UNL     1      -3.264 -11.450  17.237  0.00  0.00    +0.007 C 
ATOM     12  C   UNL     1      -4.820 -11.251  19.182  0.00  0.00    +0.009 C 
ATOM     13  C   UNL     1      -3.923 -10.664  14.932  0.00  0.00    +0.029 C 
ATOM     14  C   UNL     1      -7.155 -10.300  18.916  0.00  0.00    +0.076 C 
ATOM     15  C   UNL     1      -3.066 -11.637  15.739  0.00  0.00    +0.007 C 
ATOM     16  C   UNL     1      -6.244 -11.229  19.717  0.00  0.00    +0.023 C 
ATOM     17  C   UNL     1      -5.212 -13.030  17.435  0.00  0.00    +0.011 C 
ATOM     19  C   UNL     1      -7.996  -9.525  16.668  0.00  0.00    +0.010 C 
ENDROOT
BRANCH  14   4
ATOM      3  O   UNL     1      -8.801 -12.690  18.987  0.00  0.00    -0.276 OA
ATOM      4  N   UNL     1      -8.503 -10.425  19.428  0.00  0.00    -0.312 N 
ATOM     22  C   UNL     1      -9.208 -11.614  19.417  0.00  0.00    +0.216 C 
ATOM     33  H   UNL     1      -8.959  -9.581  19.762  0.00  0.00    +0.149 HD
BRANCH  22  23
ATOM     23  C   UNL     1     -10.571 -11.470  20.030  0.00  0.00    +0.075 C 
ATOM     24  C   UNL     1     -11.060 -10.022  19.951  0.00  0.00    +0.013 C 
ATOM     25  C   UNL     1     -11.545 -12.458  19.386  0.00  0.00    +0.013 C 
ATOM     26  C   UNL     1     -11.539  -9.616  18.558  0.00  0.00    +0.001 C 
ATOM     27  C   UNL     1     -12.002 -12.027  17.992  0.00  0.00    +0.001 C 
ATOM     28  C   UNL     1     -12.553 -10.606  17.995  0.00  0.00    +0.000 C 
ENDBRANCH  22  23
ENDBRANCH  14   4
BRANCH  10   1
ATOM      1  O   UNL     1      -6.038  -9.588  14.677  0.00  0.00    -0.391 OA
ATOM     34  H   UNL     1      -7.001  -9.706  14.742  0.00  0.00    +0.210 HD
ENDBRANCH  10   1
BRANCH  13  18
ATOM     18  C   UNL     1      -3.747 -10.946  13.435  0.00  0.00    +0.078 C 
ATOM     20  C   UNL     1      -3.693 -12.457  13.204  0.00  0.00    +0.017 C 
BRANCH  18  21
ATOM      2  O   UNL     1      -1.548 -10.044  13.712  0.00  0.00    -0.275 OA
ATOM      5  N   UNL     1      -2.424  -9.905  11.575  0.00  0.00    -0.303 N 
ATOM     21  C   UNL     1      -2.474 -10.267  12.925  0.00  0.00    +0.219 C 
ATOM     30  C   UNL     1      -1.233  -9.236  11.062  0.00  0.00    +0.132 C 
BRANCH   5  29
ATOM     29  C   UNL     1      -3.457 -10.163  10.573  0.00  0.00    +0.122 C 
BRANCH  29  31
ATOM     31  C   UNL     1      -4.297  -8.928  10.270  0.00  0.00    +0.137 C 
BRANCH  31  32
ATOM      6  N   UNL     1      -6.387  -8.749  11.856  0.00  0.00    -0.197 NA
ATOM     32  C   UNL     1      -5.465  -8.828  11.157  0.00  0.00    +0.064 C 
ENDBRANCH  31  32
ENDBRANCH  29  31
ENDBRANCH   5  29
ENDBRANCH  18  21
ENDBRANCH  13  18
TORSDOF 8
ENDMDL
MODEL 3
REMARK VINA RESULT:      -6.0      1.872      8.808
REMARK  Name = 45361461
REMARK  12 active torsions:
REMARK  status: ('A' for Active; 'I' for Inactive)
REMARK    1  A    between atoms: O_1  and  C_10
REMARK    2  A    between atoms: N_4  and  C_14
REMARK    3  A    between atoms: N_5  and  C_29
REMARK    4  A    between atoms: N_5  and  C_30
REMARK    5  A    between atoms: C_7  and  C_17
REMARK    6  A    between atoms: C_9  and  C_19
REMARK    7  A    between atoms: C_13  and  C_18
REMARK    8  A    between atoms: C_18  and  C_20
REMARK    9  A    between atoms: C_18  and  C_21
REMARK   10  A    between atoms: C_22  and  C_23
REMARK   11  A    between atoms: C_29  and  C_31
REMARK   12  A    between atoms: C_31  and  C_32
REMARK                            x       y       z     vdW  Elec       q    Type
REMARK                         _______ _______ _______ _____ _____    ______ ____
ROOT
ATOM      7  C   UNL     1      -3.607 -10.319  11.318  0.00  0.00    -0.027 C 
ATOM      8  C   UNL     1      -4.939  -9.896  12.024  0.00  0.00    +0.028 C 
ATOM      9  C   UNL     1      -5.192 -10.768  13.306  0.00  0.00    +0.012 C 
ATOM     10  C   UNL     1      -6.118  -9.835  11.012  0.00  0.00    +0.122 C 
ATOM     11  C   UNL     1      -3.330  -9.370  10.129  0.00  0.00    +0.007 C 
ATOM     12  C   UNL     1      -2.437 -10.174  12.319  0.00  0.00    +0.009 C 
ATOM     13  C   UNL     1      -5.796  -8.967   9.774  0.00  0.00    +0.029 C 
ATOM     14  C   UNL     1      -3.977 -10.675  14.271  0.00  0.00    +0.076 C 
ATOM     15  C   UNL     1      -4.467  -9.337   9.117  0.00  0.00    +0.007 C 
ATOM     16  C   UNL     1      -2.640 -10.978  13.594  0.00  0.00    +0.023 C 
ATOM     17  C   UNL     1      -3.651 -11.776  10.792  0.00  0.00    +0.011 C 
ATOM     19  C   UNL     1      -6.473 -10.385  14.067  0.00  0.00    +0.010 C 
ENDROOT
BRANCH  14   4
ATOM      3  O   UNL     1      -4.352  -9.922  17.049  0.00  0.00    -0.276 OA
ATOM      4  N   UNL     1      -4.126 -11.557  15.409  0.00  0.00    -0.312 N 
ATOM     22  C   UNL     1      -4.301 -11.099  16.701  0.00  0.00    +0.216 C 
ATOM     33  H   UNL     1      -4.048 -12.556  15.242  0.00  0.00    +0.149 HD
BRANCH  22  23
ATOM     23  C   UNL     1      -4.454 -12.223  17.685  0.00  0.00    +0.075 C 
ATOM     24  C   UNL     1      -4.520 -11.694  19.119  0.00  0.00    +0.013 C 
ATOM     25  C   UNL     1      -5.664 -13.084  17.316  0.00  0.00    +0.013 C 
ATOM     26  C   UNL     1      -5.868 -11.070  19.477  0.00  0.00    +0.001 C 
ATOM     27  C   UNL     1      -6.997 -12.431  17.682  0.00  0.00    +0.001 C 
ATOM     28  C   UNL     1      -7.030 -12.000  19.144  0.00  0.00    +0.000 C 
ENDBRANCH  22  23
ENDBRANCH  14   4
BRANCH  10   1
ATOM      1  O   UNL     1      -7.256  -9.242  11.641  0.00  0.00    -0.391 OA
ATOM     34  H   UNL     1      -8.032  -9.793  11.441  0.00  0.00    +0.210 HD
ENDBRANCH  10   1
BRANCH  13  18
ATOM     18  C   UNL     1      -6.918  -9.025   8.730  0.00  0.00    +0.078 C 
ATOM     20  C   UNL     1      -6.328  -9.395   7.368  0.00  0.00    +0.017 C 
BRANCH  18  21
ATOM      2  O   UNL     1      -6.987  -6.647   8.464  0.00  0.00    -0.275 OA
ATOM      5  N   UNL     1      -9.023  -7.668   8.869  0.00  0.00    -0.303 N 
ATOM     21  C   UNL     1      -7.639  -7.677   8.668  0.00  0.00    +0.219 C 
ATOM     30  C   UNL     1      -9.737  -6.397   8.839  0.00  0.00    +0.132 C 
BRANCH   5  29
ATOM     29  C   UNL     1      -9.871  -8.840   9.081  0.00  0.00    +0.122 C 
BRANCH  29  31
ATOM     31  C   UNL     1     -10.823  -9.088   7.917  0.00  0.00    +0.137 C 
BRANCH  31  32
ATOM      6  N   UNL     1      -9.568 -10.048   5.814  0.00  0.00    -0.197 NA
ATOM     32  C   UNL     1     -10.121  -9.625   6.741  0.00  0.00    +0.064 C 
ENDBRANCH  31  32
ENDBRANCH  29  31
ENDBRANCH   5  29
ENDBRANCH  18  21
ENDBRANCH  13  18
TORSDOF 8
ENDMDL
MODEL 4
REMARK VINA RESULT:      -6.0     23.594     26.338
REMARK  Name = 45361461
REMARK  12 active torsions:
REMARK  status: ('A' for Active; 'I' for Inactive)
REMARK    1  A    between atoms: O_1  and  C_10
REMARK    2  A    between atoms: N_4  and  C_14
REMARK    3  A    between atoms: N_5  and  C_29
REMARK    4  A    between atoms: N_5  and  C_30
REMARK    5  A    between atoms: C_7  and  C_17
REMARK    6  A    between atoms: C_9  and  C_19
REMARK    7  A    between atoms: C_13  and  C_18
REMARK    8  A    between atoms: C_18  and  C_20
REMARK    9  A    between atoms: C_18  and  C_21
REMARK   10  A    between atoms: C_22  and  C_23
REMARK   11  A    between atoms: C_29  and  C_31
REMARK   12  A    between atoms: C_31  and  C_32
REMARK                            x       y       z     vdW  Elec       q    Type
REMARK                         _______ _______ _______ _____ _____    ______ ____
ROOT
ATOM      7  C   UNL     1       9.474   6.027   6.030  0.00  0.00    -0.027 C 
ATOM      8  C   UNL     1      10.514   7.095   5.555  0.00  0.00    +0.028 C 
ATOM      9  C   UNL     1      10.080   8.536   6.006  0.00  0.00    +0.012 C 
ATOM     10  C   UNL     1      10.834   6.936   4.041  0.00  0.00    +0.122 C 
ATOM     11  C   UNL     1       9.986   4.612   5.670  0.00  0.00    +0.007 C 
ATOM     12  C   UNL     1       9.341   6.102   7.569  0.00  0.00    +0.009 C 
ATOM     13  C   UNL     1      11.246   5.493   3.668  0.00  0.00    +0.029 C 
ATOM     14  C   UNL     1       9.876   8.580   7.546  0.00  0.00    +0.076 C 
ATOM     15  C   UNL     1      10.263   4.441   4.183  0.00  0.00    +0.007 C 
ATOM     16  C   UNL     1       8.947   7.484   8.068  0.00  0.00    +0.023 C 
ATOM     17  C   UNL     1       8.078   6.229   5.387  0.00  0.00    +0.011 C 
ATOM     19  C   UNL     1      11.075   9.635   5.595  0.00  0.00    +0.010 C 
ENDROOT
BRANCH  14   4
ATOM      3  O   UNL     1      11.307  10.652   8.990  0.00  0.00    -0.276 OA
ATOM      4  N   UNL     1       9.364   9.862   7.983  0.00  0.00    -0.312 N 
ATOM     22  C   UNL     1      10.130  10.786   8.669  0.00  0.00    +0.216 C 
ATOM     33  H   UNL     1       8.382  10.058   7.815  0.00  0.00    +0.149 HD
BRANCH  22  23
ATOM     23  C   UNL     1       9.362  12.038   8.980  0.00  0.00    +0.075 C 
ATOM     24  C   UNL     1       8.513  11.865  10.241  0.00  0.00    +0.013 C 
ATOM     25  C   UNL     1      10.315  13.232   9.068  0.00  0.00    +0.013 C 
ATOM     26  C   UNL     1       9.324  11.929  11.534  0.00  0.00    +0.001 C 
ATOM     27  C   UNL     1      11.115  13.265  10.370  0.00  0.00    +0.001 C 
ATOM     28  C   UNL     1      10.207  13.171  11.590  0.00  0.00    +0.000 C 
ENDBRANCH  22  23
ENDBRANCH  14   4
BRANCH  10   1
ATOM      1  O   UNL     1      11.935   7.777   3.695  0.00  0.00    -0.391 OA
ATOM     34  H   UNL     1      12.091   8.389   4.434  0.00  0.00    +0.210 HD
ENDBRANCH  10   1
BRANCH  13  18
ATOM     18  C   UNL     1      11.429   5.325   2.155  0.00  0.00    +0.078 C 
ATOM     20  C   UNL     1      10.128   4.810   1.538  0.00  0.00    +0.017 C 
BRANCH  18  21
ATOM      2  O   UNL     1      12.407   3.148   1.978  0.00  0.00    -0.275 OA
ATOM      5  N   UNL     1      13.826   4.920   1.533  0.00  0.00    -0.303 N 
ATOM     21  C   UNL     1      12.588   4.366   1.876  0.00  0.00    +0.219 C 
ATOM     30  C   UNL     1      14.957   4.034   1.282  0.00  0.00    +0.132 C 
BRANCH   5  29
ATOM     29  C   UNL     1      14.115   6.343   1.358  0.00  0.00    +0.122 C 
BRANCH  29  31
ATOM     31  C   UNL     1      15.379   6.775   2.089  0.00  0.00    +0.137 C 
BRANCH  31  32
ATOM      6  N   UNL     1      14.917   7.290   4.627  0.00  0.00    -0.197 NA
ATOM     32  C   UNL     1      15.121   7.063   3.508  0.00  0.00    +0.064 C 
ENDBRANCH  31  32
ENDBRANCH  29  31
ENDBRANCH   5  29
ENDBRANCH  18  21
ENDBRANCH  13  18
TORSDOF 8
ENDMDL
MODEL 5
REMARK VINA RESULT:      -5.9     19.952     21.782
REMARK  Name = 45361461
REMARK  12 active torsions:
REMARK  status: ('A' for Active; 'I' for Inactive)
REMARK    1  A    between atoms: O_1  and  C_10
REMARK    2  A    between atoms: N_4  and  C_14
REMARK    3  A    between atoms: N_5  and  C_29
REMARK    4  A    between atoms: N_5  and  C_30
REMARK    5  A    between atoms: C_7  and  C_17
REMARK    6  A    between atoms: C_9  and  C_19
REMARK    7  A    between atoms: C_13  and  C_18
REMARK    8  A    between atoms: C_18  and  C_20
REMARK    9  A    between atoms: C_18  and  C_21
REMARK   10  A    between atoms: C_22  and  C_23
REMARK   11  A    between atoms: C_29  and  C_31
REMARK   12  A    between atoms: C_31  and  C_32
REMARK                            x       y       z     vdW  Elec       q    Type
REMARK                         _______ _______ _______ _____ _____    ______ ____
ROOT
ATOM      7  C   UNL     1     -16.846   5.831  22.212  0.00  0.00    -0.027 C 
ATOM      8  C   UNL     1     -15.590   5.344  23.009  0.00  0.00    +0.028 C 
ATOM      9  C   UNL     1     -14.290   5.478  22.138  0.00  0.00    +0.012 C 
ATOM     10  C   UNL     1     -15.831   3.943  23.640  0.00  0.00    +0.122 C 
ATOM     11  C   UNL     1     -18.088   5.792  23.133  0.00  0.00    +0.007 C 
ATOM     12  C   UNL     1     -16.629   7.299  21.776  0.00  0.00    +0.009 C 
ATOM     13  C   UNL     1     -17.131   3.882  24.476  0.00  0.00    +0.029 C 
ATOM     14  C   UNL     1     -14.122   6.941  21.641  0.00  0.00    +0.076 C 
ATOM     15  C   UNL     1     -18.349   4.413  23.722  0.00  0.00    +0.007 C 
ATOM     16  C   UNL     1     -15.367   7.494  20.949  0.00  0.00    +0.023 C 
ATOM     17  C   UNL     1     -17.129   4.963  20.960  0.00  0.00    +0.011 C 
ATOM     19  C   UNL     1     -13.010   5.042  22.872  0.00  0.00    +0.010 C 
ENDROOT
BRANCH  14   4
ATOM      3  O   UNL     1     -12.317   9.202  21.400  0.00  0.00    -0.276 OA
ATOM      4  N   UNL     1     -12.997   7.077  20.741  0.00  0.00    -0.312 N 
ATOM     22  C   UNL     1     -12.192   8.200  20.701  0.00  0.00    +0.216 C 
ATOM     33  H   UNL     1     -12.832   6.324  20.078  0.00  0.00    +0.149 HD
BRANCH  22  23
ATOM     23  C   UNL     1     -11.085   8.069  19.695  0.00  0.00    +0.075 C 
ATOM     24  C   UNL     1     -11.592   7.433  18.399  0.00  0.00    +0.013 C 
ATOM     25  C   UNL     1     -10.418   9.426  19.467  0.00  0.00    +0.013 C 
ATOM     26  C   UNL     1     -12.400   8.393  17.526  0.00  0.00    +0.001 C 
ATOM     27  C   UNL     1     -11.252  10.365  18.595  0.00  0.00    +0.001 C 
ATOM     28  C   UNL     1     -11.656   9.701  17.283  0.00  0.00    +0.000 C 
ENDBRANCH  22  23
ENDBRANCH  14   4
BRANCH  10   1
ATOM      1  O   UNL     1     -14.759   3.629  24.529  0.00  0.00    -0.391 OA
ATOM     34  H   UNL     1     -14.922   2.744  24.897  0.00  0.00    +0.210 HD
ENDBRANCH  10   1
BRANCH  13  18
ATOM     18  C   UNL     1     -17.418   2.462  24.980  0.00  0.00    +0.078 C 
ATOM     20  C   UNL     1     -18.173   1.682  23.902  0.00  0.00    +0.017 C 
BRANCH  18  21
ATOM      2  O   UNL     1     -19.457   2.441  26.233  0.00  0.00    -0.275 OA
ATOM      5  N   UNL     1     -17.523   2.702  27.475  0.00  0.00    -0.303 N 
ATOM     21  C   UNL     1     -18.225   2.526  26.278  0.00  0.00    +0.219 C 
ATOM     30  C   UNL     1     -18.264   2.789  28.728  0.00  0.00    +0.132 C 
BRANCH   5  29
ATOM     29  C   UNL     1     -16.069   2.777  27.619  0.00  0.00    +0.122 C 
BRANCH  29  31
ATOM     31  C   UNL     1     -15.645   3.245  29.005  0.00  0.00    +0.137 C 
BRANCH  31  32
ATOM      6  N   UNL     1     -13.875   1.626  30.086  0.00  0.00    -0.197 NA
ATOM     32  C   UNL     1     -14.656   2.340  29.610  0.00  0.00    +0.064 C 
ENDBRANCH  31  32
ENDBRANCH  29  31
ENDBRANCH   5  29
ENDBRANCH  18  21
ENDBRANCH  13  18
TORSDOF 8
ENDMDL
MODEL 6
REMARK VINA RESULT:      -5.9     24.029     26.609
REMARK  Name = 45361461
REMARK  12 active torsions:
REMARK  status: ('A' for Active; 'I' for Inactive)
REMARK    1  A    between atoms: O_1  and  C_10
REMARK    2  A    between atoms: N_4  and  C_14
REMARK    3  A    between atoms: N_5  and  C_29
REMARK    4  A    between atoms: N_5  and  C_30
REMARK    5  A    between atoms: C_7  and  C_17
REMARK    6  A    between atoms: C_9  and  C_19
REMARK    7  A    between atoms: C_13  and  C_18
REMARK    8  A    between atoms: C_18  and  C_20
REMARK    9  A    between atoms: C_18  and  C_21
REMARK   10  A    between atoms: C_22  and  C_23
REMARK   11  A    between atoms: C_29  and  C_31
REMARK   12  A    between atoms: C_31  and  C_32
REMARK                            x       y       z     vdW  Elec       q    Type
REMARK                         _______ _______ _______ _____ _____    ______ ____
ROOT
ATOM      7  C   UNL     1       9.765   6.501   6.334  0.00  0.00    -0.027 C 
ATOM      8  C   UNL     1      10.624   7.426   5.407  0.00  0.00    +0.028 C 
ATOM      9  C   UNL     1      11.659   6.582   4.581  0.00  0.00    +0.012 C 
ATOM     10  C   UNL     1      11.218   8.624   6.201  0.00  0.00    +0.122 C 
ATOM     11  C   UNL     1       8.683   7.346   7.046  0.00  0.00    +0.007 C 
ATOM     12  C   UNL     1       9.042   5.446   5.464  0.00  0.00    +0.009 C 
ATOM     13  C   UNL     1      10.144   9.403   6.995  0.00  0.00    +0.029 C 
ATOM     14  C   UNL     1      10.929   5.476   3.769  0.00  0.00    +0.076 C 
ATOM     15  C   UNL     1       9.265   8.497   7.855  0.00  0.00    +0.007 C 
ATOM     16  C   UNL     1       9.996   4.614   4.619  0.00  0.00    +0.023 C 
ATOM     17  C   UNL     1      10.618   5.779   7.407  0.00  0.00    +0.011 C 
ATOM     19  C   UNL     1      12.518   7.427   3.625  0.00  0.00    +0.010 C 
ENDROOT
BRANCH  14   4
ATOM      3  O   UNL     1      10.704   4.413   1.077  0.00  0.00    -0.276 OA
ATOM      4  N   UNL     1      11.862   4.606   3.086  0.00  0.00    -0.312 N 
ATOM     22  C   UNL     1      11.665   4.150   1.796  0.00  0.00    +0.216 C 
ATOM     33  H   UNL     1      12.671   4.283   3.608  0.00  0.00    +0.149 HD
BRANCH  22  23
ATOM     23  C   UNL     1      12.796   3.285   1.321  0.00  0.00    +0.075 C 
ATOM     24  C   UNL     1      12.793   3.162  -0.204  0.00  0.00    +0.013 C 
ATOM     25  C   UNL     1      14.125   3.808   1.869  0.00  0.00    +0.013 C 
ATOM     26  C   UNL     1      13.321   4.407  -0.916  0.00  0.00    +0.001 C 
ATOM     27  C   UNL     1      14.624   5.056   1.141  0.00  0.00    +0.001 C 
ATOM     28  C   UNL     1      14.675   4.843  -0.368  0.00  0.00    +0.000 C 
ENDBRANCH  22  23
ENDBRANCH  14   4
BRANCH  10   1
ATOM      1  O   UNL     1      11.808   9.554   5.291  0.00  0.00    -0.391 OA
ATOM     34  H   UNL     1      12.482  10.062   5.774  0.00  0.00    +0.210 HD
ENDBRANCH  10   1
BRANCH  13  18
ATOM     18  C   UNL     1      10.766  10.497   7.872  0.00  0.00    +0.078 C 
ATOM     20  C   UNL     1       9.905  10.700   9.120  0.00  0.00    +0.017 C 
BRANCH  18  21
ATOM      2  O   UNL     1      10.033  12.073   6.228  0.00  0.00    -0.275 OA
ATOM      5  N   UNL     1      11.998  12.612   7.324  0.00  0.00    -0.303 N 
ATOM     21  C   UNL     1      10.890  11.795   7.073  0.00  0.00    +0.219 C 
ATOM     30  C   UNL     1      12.158  13.846   6.563  0.00  0.00    +0.132 C 
BRANCH   5  29
ATOM     29  C   UNL     1      13.035  12.375   8.327  0.00  0.00    +0.122 C 
BRANCH  29  31
ATOM     31  C   UNL     1      14.417  12.209   7.707  0.00  0.00    +0.137 C 
BRANCH  31  32
ATOM      6  N   UNL     1      14.631   9.950   6.377  0.00  0.00    -0.197 NA
ATOM     32  C   UNL     1      14.537  10.947   6.964  0.00  0.00    +0.064 C 
ENDBRANCH  31  32
ENDBRANCH  29  31
ENDBRANCH   5  29
ENDBRANCH  18  21
ENDBRANCH  13  18
TORSDOF 8
ENDMDL
MODEL 7
REMARK VINA RESULT:      -5.8     23.542     26.594
REMARK  Name = 45361461
REMARK  12 active torsions:
REMARK  status: ('A' for Active; 'I' for Inactive)
REMARK    1  A    between atoms: O_1  and  C_10
REMARK    2  A    between atoms: N_4  and  C_14
REMARK    3  A    between atoms: N_5  and  C_29
REMARK    4  A    between atoms: N_5  and  C_30
REMARK    5  A    between atoms: C_7  and  C_17
REMARK    6  A    between atoms: C_9  and  C_19
REMARK    7  A    between atoms: C_13  and  C_18
REMARK    8  A    between atoms: C_18  and  C_20
REMARK    9  A    between atoms: C_18  and  C_21
REMARK   10  A    between atoms: C_22  and  C_23
REMARK   11  A    between atoms: C_29  and  C_31
REMARK   12  A    between atoms: C_31  and  C_32
REMARK                            x       y       z     vdW  Elec       q    Type
REMARK                         _______ _______ _______ _____ _____    ______ ____
ROOT
ATOM      7  C   UNL     1      13.685   4.934   0.663  0.00  0.00    -0.027 C 
ATOM      8  C   UNL     1      12.131   5.099   0.751  0.00  0.00    +0.028 C 
ATOM      9  C   UNL     1      11.658   5.145   2.248  0.00  0.00    +0.012 C 
ATOM     10  C   UNL     1      11.402   4.060  -0.148  0.00  0.00    +0.122 C 
ATOM     11  C   UNL     1      14.128   5.005  -0.817  0.00  0.00    +0.007 C 
ATOM     12  C   UNL     1      14.360   6.106   1.414  0.00  0.00    +0.009 C 
ATOM     13  C   UNL     1      11.923   4.064  -1.604  0.00  0.00    +0.029 C 
ATOM     14  C   UNL     1      12.399   6.279   3.013  0.00  0.00    +0.076 C 
ATOM     15  C   UNL     1      13.445   3.964  -1.693  0.00  0.00    +0.007 C 
ATOM     16  C   UNL     1      13.919   6.217   2.865  0.00  0.00    +0.023 C 
ATOM     17  C   UNL     1      14.175   3.593   1.265  0.00  0.00    +0.011 C 
ATOM     19  C   UNL     1      10.140   5.336   2.409  0.00  0.00    +0.010 C 
ENDROOT
BRANCH  14   4
ATOM      3  O   UNL     1      11.643   8.552   4.652  0.00  0.00    -0.276 OA
ATOM      4  N   UNL     1      12.074   6.277   4.423  0.00  0.00    -0.312 N 
ATOM     22  C   UNL     1      11.723   7.419   5.119  0.00  0.00    +0.216 C 
ATOM     33  H   UNL     1      12.159   5.397   4.923  0.00  0.00    +0.149 HD
BRANCH  22  23
ATOM     23  C   UNL     1      11.412   7.132   6.559  0.00  0.00    +0.075 C 
ATOM     24  C   UNL     1      10.841   8.368   7.256  0.00  0.00    +0.013 C 
ATOM     25  C   UNL     1      10.492   5.915   6.666  0.00  0.00    +0.013 C 
ATOM     26  C   UNL     1       9.382   8.649   6.898  0.00  0.00    +0.001 C 
ATOM     27  C   UNL     1       9.041   6.226   6.297  0.00  0.00    +0.001 C 
ATOM     28  C   UNL     1       8.505   7.417   7.084  0.00  0.00    +0.000 C 
ENDBRANCH  22  23
ENDBRANCH  14   4
BRANCH  10   1
ATOM      1  O   UNL     1      10.011   4.376  -0.211  0.00  0.00    -0.391 OA
ATOM     34  H   UNL     1       9.771   4.495  -1.146  0.00  0.00    +0.210 HD
ENDBRANCH  10   1
BRANCH  13  18
ATOM     18  C   UNL     1      11.286   2.946  -2.440  0.00  0.00    +0.078 C 
ATOM     20  C   UNL     1      12.048   1.640  -2.209  0.00  0.00    +0.017 C 
BRANCH  18  21
ATOM      2  O   UNL     1      12.285   3.065  -4.612  0.00  0.00    -0.275 OA
ATOM      5  N   UNL     1      10.181   4.008  -4.426  0.00  0.00    -0.303 N 
ATOM     21  C   UNL     1      11.298   3.335  -3.920  0.00  0.00    +0.219 C 
ATOM     30  C   UNL     1      10.169   4.412  -5.828  0.00  0.00    +0.132 C 
BRANCH   5  29
ATOM     29  C   UNL     1       8.962   4.333  -3.687  0.00  0.00    +0.122 C 
BRANCH  29  31
ATOM     31  C   UNL     1       8.633   5.821  -3.732  0.00  0.00    +0.137 C 
BRANCH  31  32
ATOM      6  N   UNL     1       9.546   7.091  -1.619  0.00  0.00    -0.197 NA
ATOM     32  C   UNL     1       9.143   6.531  -2.551  0.00  0.00    +0.064 C 
ENDBRANCH  31  32
ENDBRANCH  29  31
ENDBRANCH   5  29
ENDBRANCH  18  21
ENDBRANCH  13  18
TORSDOF 8
ENDMDL
MODEL 8
REMARK VINA RESULT:      -5.8      2.171      8.805
REMARK  Name = 45361461
REMARK  12 active torsions:
REMARK  status: ('A' for Active; 'I' for Inactive)
REMARK    1  A    between atoms: O_1  and  C_10
REMARK    2  A    between atoms: N_4  and  C_14
REMARK    3  A    between atoms: N_5  and  C_29
REMARK    4  A    between atoms: N_5  and  C_30
REMARK    5  A    between atoms: C_7  and  C_17
REMARK    6  A    between atoms: C_9  and  C_19
REMARK    7  A    between atoms: C_13  and  C_18
REMARK    8  A    between atoms: C_18  and  C_20
REMARK    9  A    between atoms: C_18  and  C_21
REMARK   10  A    between atoms: C_22  and  C_23
REMARK   11  A    between atoms: C_29  and  C_31
REMARK   12  A    between atoms: C_31  and  C_32
REMARK                            x       y       z     vdW  Elec       q    Type
REMARK                         _______ _______ _______ _____ _____    ______ ____
ROOT
ATOM      7  C   UNL     1      -3.276 -10.363  11.520  0.00  0.00    -0.027 C 
ATOM      8  C   UNL     1      -4.644  -9.930  12.145  0.00  0.00    +0.028 C 
ATOM      9  C   UNL     1      -4.995 -10.818  13.391  0.00  0.00    +0.012 C 
ATOM     10  C   UNL     1      -5.753  -9.832  11.059  0.00  0.00    +0.122 C 
ATOM     11  C   UNL     1      -2.907  -9.399  10.368  0.00  0.00    +0.007 C 
ATOM     12  C   UNL     1      -2.172 -10.254  12.597  0.00  0.00    +0.009 C 
ATOM     13  C   UNL     1      -5.337  -8.949   9.860  0.00  0.00    +0.029 C 
ATOM     14  C   UNL     1      -3.844 -10.762  14.435  0.00  0.00    +0.076 C 
ATOM     15  C   UNL     1      -3.974  -9.330   9.284  0.00  0.00    +0.007 C 
ATOM     16  C   UNL     1      -2.470 -11.076  13.843  0.00  0.00    +0.023 C 
ATOM     17  C   UNL     1      -3.308 -11.810  10.966  0.00  0.00    +0.011 C 
ATOM     19  C   UNL     1      -6.317 -10.427  14.074  0.00  0.00    +0.010 C 
ENDROOT
BRANCH  14   4
ATOM      3  O   UNL     1      -4.263 -10.053  17.219  0.00  0.00    -0.276 OA
ATOM      4  N   UNL     1      -4.081 -11.659  15.545  0.00  0.00    -0.312 N 
ATOM     22  C   UNL     1      -4.270 -11.222  16.843  0.00  0.00    +0.216 C 
ATOM     33  H   UNL     1      -4.056 -12.657  15.356  0.00  0.00    +0.149 HD
BRANCH  22  23
ATOM     23  C   UNL     1      -4.521 -12.357  17.793  0.00  0.00    +0.075 C 
ATOM     24  C   UNL     1      -4.559 -11.865  19.241  0.00  0.00    +0.013 C 
ATOM     25  C   UNL     1      -5.791 -13.110  17.391  0.00  0.00    +0.013 C 
ATOM     26  C   UNL     1      -5.857 -11.148  19.607  0.00  0.00    +0.001 C 
ATOM     27  C   UNL     1      -7.072 -12.365  17.765  0.00  0.00    +0.001 C 
ATOM     28  C   UNL     1      -7.085 -11.974  19.238  0.00  0.00    +0.000 C 
ENDBRANCH  22  23
ENDBRANCH  14   4
BRANCH  10   1
ATOM      1  O   UNL     1      -6.921  -9.231  11.623  0.00  0.00    -0.391 OA
ATOM     34  H   UNL     1      -7.019  -9.558  12.533  0.00  0.00    +0.210 HD
ENDBRANCH  10   1
BRANCH  13  18
ATOM     18  C   UNL     1      -6.389  -8.971   8.744  0.00  0.00    +0.078 C 
ATOM     20  C   UNL     1      -7.451  -7.907   9.023  0.00  0.00    +0.017 C 
BRANCH  18  21
ATOM      2  O   UNL     1      -7.867 -10.704   9.481  0.00  0.00    -0.275 OA
ATOM      5  N   UNL     1      -6.579 -11.209   7.626  0.00  0.00    -0.303 N 
ATOM     21  C   UNL     1      -7.017 -10.363   8.651  0.00  0.00    +0.219 C 
ATOM     30  C   UNL     1      -7.142 -12.551   7.523  0.00  0.00    +0.132 C 
BRANCH   5  29
ATOM     29  C   UNL     1      -5.607 -10.873   6.586  0.00  0.00    +0.122 C 
BRANCH  29  31
ATOM     31  C   UNL     1      -6.265 -10.614   5.236  0.00  0.00    +0.137 C 
BRANCH  31  32
ATOM      6  N   UNL     1      -7.279  -8.191   5.089  0.00  0.00    -0.197 NA
ATOM     32  C   UNL     1      -6.832  -9.260   5.154  0.00  0.00    +0.064 C 
ENDBRANCH  31  32
ENDBRANCH  29  31
ENDBRANCH   5  29
ENDBRANCH  18  21
ENDBRANCH  13  18
TORSDOF 8
ENDMDL
MODEL 9
REMARK VINA RESULT:      -5.8     21.868     25.433
REMARK  Name = 45361461
REMARK  12 active torsions:
REMARK  status: ('A' for Active; 'I' for Inactive)
REMARK    1  A    between atoms: O_1  and  C_10
REMARK    2  A    between atoms: N_4  and  C_14
REMARK    3  A    between atoms: N_5  and  C_29
REMARK    4  A    between atoms: N_5  and  C_30
REMARK    5  A    between atoms: C_7  and  C_17
REMARK    6  A    between atoms: C_9  and  C_19
REMARK    7  A    between atoms: C_13  and  C_18
REMARK    8  A    between atoms: C_18  and  C_20
REMARK    9  A    between atoms: C_18  and  C_21
REMARK   10  A    between atoms: C_22  and  C_23
REMARK   11  A    between atoms: C_29  and  C_31
REMARK   12  A    between atoms: C_31  and  C_32
REMARK                            x       y       z     vdW  Elec       q    Type
REMARK                         _______ _______ _______ _____ _____    ______ ____
ROOT
ATOM      7  C   UNL     1     -14.931   1.754  31.172  0.00  0.00    -0.027 C 
ATOM      8  C   UNL     1     -15.672   3.081  30.799  0.00  0.00    +0.028 C 
ATOM      9  C   UNL     1     -15.682   3.297  29.243  0.00  0.00    +0.012 C 
ATOM     10  C   UNL     1     -15.139   4.278  31.637  0.00  0.00    +0.122 C 
ATOM     11  C   UNL     1     -15.037   1.515  32.697  0.00  0.00    +0.007 C 
ATOM     12  C   UNL     1     -15.627   0.570  30.460  0.00  0.00    +0.009 C 
ATOM     13  C   UNL     1     -15.151   3.993  33.157  0.00  0.00    +0.029 C 
ATOM     14  C   UNL     1     -16.315   2.068  28.532  0.00  0.00    +0.076 C 
ATOM     15  C   UNL     1     -14.481   2.669  33.520  0.00  0.00    +0.007 C 
ATOM     16  C   UNL     1     -15.689   0.737  28.949  0.00  0.00    +0.023 C 
ATOM     17  C   UNL     1     -13.433   1.778  30.776  0.00  0.00    +0.011 C 
ATOM     19  C   UNL     1     -16.421   4.572  28.804  0.00  0.00    +0.010 C 
ENDROOT
BRANCH  14   4
ATOM      3  O   UNL     1     -18.376   1.416  26.596  0.00  0.00    -0.276 OA
ATOM      4  N   UNL     1     -16.236   2.181  27.092  0.00  0.00    -0.312 N 
ATOM     22  C   UNL     1     -17.278   1.843  26.249  0.00  0.00    +0.216 C 
ATOM     33  H   UNL     1     -15.350   2.478  26.692  0.00  0.00    +0.149 HD
BRANCH  22  23
ATOM     23  C   UNL     1     -16.940   2.080  24.806  0.00  0.00    +0.075 C 
ATOM     24  C   UNL     1     -18.189   2.440  24.000  0.00  0.00    +0.013 C 
ATOM     25  C   UNL     1     -15.837   3.134  24.690  0.00  0.00    +0.013 C 
ATOM     26  C   UNL     1     -18.665   3.875  24.222  0.00  0.00    +0.001 C 
ATOM     27  C   UNL     1     -16.343   4.558  24.923  0.00  0.00    +0.001 C 
ATOM     28  C   UNL     1     -17.536   4.883  24.032  0.00  0.00    +0.000 C 
ENDBRANCH  22  23
ENDBRANCH  14   4
BRANCH  10   1
ATOM      1  O   UNL     1     -15.977   5.417  31.429  0.00  0.00    -0.391 OA
ATOM     34  H   UNL     1     -16.707   5.151  30.844  0.00  0.00    +0.210 HD
ENDBRANCH  10   1
BRANCH  13  18
ATOM     18  C   UNL     1     -14.503   5.131  33.955  0.00  0.00    +0.078 C 
ATOM     20  C   UNL     1     -14.263   4.672  35.394  0.00  0.00    +0.017 C 
BRANCH  18  21
ATOM      2  O   UNL     1     -16.619   6.242  34.069  0.00  0.00    -0.275 OA
ATOM      5  N   UNL     1     -14.792   7.608  33.683  0.00  0.00    -0.303 N 
ATOM     21  C   UNL     1     -15.400   6.370  33.916  0.00  0.00    +0.219 C 
ATOM     30  C   UNL     1     -15.622   8.806  33.618  0.00  0.00    +0.132 C 
BRANCH   5  29
ATOM     29  C   UNL     1     -13.359   7.850  33.527  0.00  0.00    +0.122 C 
BRANCH  29  31
ATOM     31  C   UNL     1     -13.009   8.413  32.155  0.00  0.00    +0.137 C 
BRANCH  31  32
ATOM      6  N   UNL     1     -10.514   9.237  32.041  0.00  0.00    -0.197 NA
ATOM     32  C   UNL     1     -11.614   8.874  32.092  0.00  0.00    +0.064 C 
ENDBRANCH  31  32
ENDBRANCH  29  31
ENDBRANCH   5  29
ENDBRANCH  18  21
ENDBRANCH  13  18
TORSDOF 8
ENDMDL
MODEL 10
REMARK VINA RESULT:      -5.6     19.197     22.219
REMARK  Name = 45361461
REMARK  12 active torsions:
REMARK  status: ('A' for Active; 'I' for Inactive)
REMARK    1  A    between atoms: O_1  and  C_10
REMARK    2  A    between atoms: N_4  and  C_14
REMARK    3  A    between atoms: N_5  and  C_29
REMARK    4  A    between atoms: N_5  and  C_30
REMARK    5  A    between atoms: C_7  and  C_17
REMARK    6  A    between atoms: C_9  and  C_19
REMARK    7  A    between atoms: C_13  and  C_18
REMARK    8  A    between atoms: C_18  and  C_20
REMARK    9  A    between atoms: C_18  and  C_21
REMARK   10  A    between atoms: C_22  and  C_23
REMARK   11  A    between atoms: C_29  and  C_31
REMARK   12  A    between atoms: C_31  and  C_32
REMARK                            x       y       z     vdW  Elec       q    Type
REMARK                         _______ _______ _______ _____ _____    ______ ____
ROOT
ATOM      7  C   UNL     1     -12.637   8.371  20.531  0.00  0.00    -0.027 C 
ATOM      8  C   UNL     1     -13.820   8.241  19.514  0.00  0.00    +0.028 C 
ATOM      9  C   UNL     1     -14.861   7.171  20.002  0.00  0.00    +0.012 C 
ATOM     10  C   UNL     1     -13.296   8.050  18.062  0.00  0.00    +0.122 C 
ATOM     11  C   UNL     1     -11.691   9.508  20.079  0.00  0.00    +0.007 C 
ATOM     12  C   UNL     1     -13.204   8.753  21.918  0.00  0.00    +0.009 C 
ATOM     13  C   UNL     1     -12.270   9.133  17.652  0.00  0.00    +0.029 C 
ATOM     14  C   UNL     1     -15.368   7.524  21.429  0.00  0.00    +0.076 C 
ATOM     15  C   UNL     1     -11.146   9.305  18.672  0.00  0.00    +0.007 C 
ATOM     16  C   UNL     1     -14.240   7.764  22.432  0.00  0.00    +0.023 C 
ATOM     17  C   UNL     1     -11.816   7.063  20.658  0.00  0.00    +0.011 C 
ATOM     19  C   UNL     1     -16.067   7.013  19.061  0.00  0.00    +0.010 C 
ENDROOT
BRANCH  14   4
ATOM      3  O   UNL     1     -14.720   4.738  21.924  0.00  0.00    -0.276 OA
ATOM      4  N   UNL     1     -16.241   6.499  21.957  0.00  0.00    -0.312 N 
ATOM     22  C   UNL     1     -15.837   5.192  22.158  0.00  0.00    +0.216 C 
ATOM     33  H   UNL     1     -17.208   6.752  22.138  0.00  0.00    +0.149 HD
BRANCH  22  23
ATOM     23  C   UNL     1     -16.932   4.343  22.737  0.00  0.00    +0.075 C 
ATOM     24  C   UNL     1     -16.357   3.120  23.456  0.00  0.00    +0.013 C 
ATOM     25  C   UNL     1     -17.833   5.189  23.639  0.00  0.00    +0.013 C 
ATOM     26  C   UNL     1     -15.755   3.444  24.822  0.00  0.00    +0.001 C 
ATOM     27  C   UNL     1     -17.201   5.500  24.995  0.00  0.00    +0.001 C 
ATOM     28  C   UNL     1     -16.723   4.234  25.696  0.00  0.00    +0.000 C 
ENDBRANCH  22  23
ENDBRANCH  14   4
BRANCH  10   1
ATOM      1  O   UNL     1     -14.386   8.152  17.144  0.00  0.00    -0.391 OA
ATOM     34  H   UNL     1     -14.052   7.943  16.255  0.00  0.00    +0.210 HD
ENDBRANCH  10   1
BRANCH  13  18
ATOM     18  C   UNL     1     -11.669   8.854  16.269  0.00  0.00    +0.078 C 
ATOM     20  C   UNL     1     -10.409   8.000  16.424  0.00  0.00    +0.017 C 
BRANCH  18  21
ATOM      2  O   UNL     1     -10.321  10.787  15.852  0.00  0.00    -0.275 OA
ATOM      5  N   UNL     1     -12.277  10.648  14.624  0.00  0.00    -0.303 N 
ATOM     21  C   UNL     1     -11.355  10.175  15.564  0.00  0.00    +0.219 C 
ATOM     30  C   UNL     1     -12.018  11.915  13.950  0.00  0.00    +0.132 C 
BRANCH   5  29
ATOM     29  C   UNL     1     -13.502   9.970  14.201  0.00  0.00    +0.122 C 
BRANCH  29  31
ATOM     31  C   UNL     1     -13.317   9.189  12.906  0.00  0.00    +0.137 C 
BRANCH  31  32
ATOM      6  N   UNL     1     -13.679   6.608  13.257  0.00  0.00    -0.197 NA
ATOM     32  C   UNL     1     -13.519   7.746  13.102  0.00  0.00    +0.064 C 
ENDBRANCH  31  32
ENDBRANCH  29  31
ENDBRANCH   5  29
ENDBRANCH  18  21
ENDBRANCH  13  18
TORSDOF 8
ENDMDL
