REMARK  Name = 71694354
REMARK  7 active torsions:
REMARK  status: ('A' for Active; 'I' for Inactive)
REMARK    1  A    between atoms: O_4  and  C_34
REMARK    2  A    between atoms: O_4  and  C_35
REMARK    3  A    between atoms: N_6  and  C_26
REMARK    4  A    between atoms: N_8  and  C_27
REMARK    5  A    between atoms: C_10  and  C_15
REMARK    6  A    between atoms: C_15  and  C_18
REMARK    7  A    between atoms: C_26  and  C_34
REMARK                            x       y       z     vdW  Elec       q    Type
REMARK                         _______ _______ _______ _____ _____    ______ ____
ROOT
ATOM      1  O   UNL     1      -0.037  -4.149  -0.555  0.00  0.00    -0.274 OA
ATOM      3  O   UNL     1       0.839   0.880   0.893  0.00  0.00    -0.488 OA
ATOM      5  N   UNL     1      -1.545  -2.745   0.501  0.00  0.00    -0.300 N 
ATOM      7  N   UNL     1       1.380  -1.926   1.439  0.00  0.00    -0.304 NA
ATOM     10  C   UNL     1      -2.987  -0.387  -0.422  0.00  0.00    +0.008 C 
ATOM     11  C   UNL     1      -1.912  -0.347   0.705  0.00  0.00    +0.032 C 
ATOM     12  C   UNL     1      -2.720  -1.606  -1.335  0.00  0.00    +0.023 C 
ATOM     13  C   UNL     1      -1.867  -1.687   1.464  0.00  0.00    +0.115 C 
ATOM     14  C   UNL     1      -2.554  -2.909  -0.548  0.00  0.00    +0.108 C 
ATOM     16  C   UNL     1      -2.055   0.814   1.652  0.00  0.00    -0.023 C 
ATOM     17  C   UNL     1      -0.319  -3.401   0.389  0.00  0.00    +0.229 C 
ATOM     19  C   UNL     1      -1.175   1.794   1.922  0.00  0.00    +0.010 C 
ATOM     20  C   UNL     1       0.707  -3.221   1.492  0.00  0.00    +0.178 C 
ATOM     21  C   UNL     1       0.230   2.045   1.437  0.00  0.00    +0.256 C 
ATOM     22  C   UNL     1       1.988  -1.596   0.152  0.00  0.00    +0.120 C 
ATOM     23  C   UNL     1       2.775  -0.298   0.215  0.00  0.00    +0.010 A 
ATOM     27  C   UNL     1       4.894   0.854  -0.100  0.00  0.00    +0.030 A 
ATOM     28  C   UNL     1       2.174   0.930   0.576  0.00  0.00    +0.125 A 
ATOM     31  C   UNL     1       4.138  -0.317  -0.121  0.00  0.00    +0.031 A 
ATOM     32  C   UNL     1       4.296   2.059   0.253  0.00  0.00    +0.027 A 
ATOM     33  C   UNL     1       2.942   2.100   0.588  0.00  0.00    +0.048 A 
ATOM     37  H   UNL     1       2.094  -1.903   2.167  0.00  0.00    +0.123 HD
ENDROOT
BRANCH  27   8
ATOM      8  N   UNL     1       6.252   0.818  -0.436  0.00  0.00    -0.327 N 
ATOM      9  N   UNL     1       8.973   0.921  -1.293  0.00  0.00    -0.313 NA
ATOM     24  C   UNL     1       7.179   1.774   0.178  0.00  0.00    +0.120 C 
ATOM     25  C   UNL     1       6.619   0.346  -1.778  0.00  0.00    +0.120 C 
ATOM     29  C   UNL     1       8.617   1.263   0.083  0.00  0.00    +0.100 C 
ATOM     30  C   UNL     1       8.076  -0.115  -1.802  0.00  0.00    +0.100 C 
ATOM     38  H   UNL     1       9.932   0.577  -1.317  0.00  0.00    +0.122 HD
ENDBRANCH  27   8
BRANCH  10  15
ATOM     15  C   UNL     1      -4.437  -0.396   0.078  0.00  0.00    +0.100 C 
BRANCH  15  18
ATOM      2  O   UNL     1      -5.069   0.399  -2.118  0.00  0.00    -0.276 OA
ATOM      6  N   UNL     1      -6.713   0.025  -0.518  0.00  0.00    -0.313 N 
ATOM     18  C   UNL     1      -5.409   0.054  -0.989  0.00  0.00    +0.213 C 
ATOM     36  H   UNL     1      -6.889  -0.267   0.439  0.00  0.00    +0.149 HD
BRANCH   6  26
ATOM     26  C   UNL     1      -7.851   0.406  -1.323  0.00  0.00    +0.132 C 
BRANCH  26  34
ATOM     34  C   UNL     1      -8.160   1.885  -1.188  0.00  0.00    +0.178 C 
BRANCH  34   4
ATOM      4  O   UNL     1      -8.483   2.179   0.166  0.00  0.00    -0.381 OA
ATOM     35  C   UNL     1      -8.786   3.556   0.343  0.00  0.00    +0.194 C 
ENDBRANCH  34   4
ENDBRANCH  26  34
ENDBRANCH   6  26
ENDBRANCH  15  18
ENDBRANCH  10  15
TORSDOF 6
