MODEL 1
REMARK VINA RESULT:      -8.0      0.000      0.000
REMARK  Name = 7113963
REMARK  6 active torsions:
REMARK  status: ('A' for Active; 'I' for Inactive)
REMARK    1  A    between atoms: S_1  and  N_12
REMARK    2  A    between atoms: S_1  and  C_31
REMARK    3  A    between atoms: N_9  and  C_18
REMARK    4  A    between atoms: N_12  and  C_27
REMARK    5  A    between atoms: C_29  and  C_30
REMARK    6  A    between atoms: C_34  and  C_37
REMARK                            x       y       z     vdW  Elec       q    Type
REMARK                         _______ _______ _______ _____ _____    ______ ____
ROOT
ATOM      5  O   UNL     1      -4.663 -14.052  16.258  0.00  0.00    -0.266 OA
ATOM      9  N   UNL     1      -8.288 -10.838  17.569  0.00  0.00    -0.298 NA
ATOM     10  N   UNL     1      -5.373 -12.117  17.373  0.00  0.00    -0.310 N 
ATOM     13  C   UNL     1      -7.048 -12.148  19.310  0.00  0.00    +0.024 C 
ATOM     14  C   UNL     1      -6.134 -10.014  18.530  0.00  0.00    +0.050 C 
ATOM     15  C   UNL     1      -6.318 -10.890  19.766  0.00  0.00    +0.017 C 
ATOM     16  C   UNL     1      -8.412 -11.774  18.694  0.00  0.00    +0.090 C 
ATOM     17  C   UNL     1      -7.517  -9.645  17.947  0.00  0.00    +0.094 C 
ATOM     19  C   UNL     1      -6.149 -12.915  18.332  0.00  0.00    +0.130 C 
ATOM     20  C   UNL     1      -5.290 -10.723  17.487  0.00  0.00    +0.026 A 
ATOM     25  C   UNL     1      -4.487 -10.018  16.668  0.00  0.00    +0.024 A 
ATOM     26  C   UNL     1      -4.643 -12.830  16.399  0.00  0.00    +0.274 A 
ATOM     27  C   UNL     1      -3.793 -11.995  15.512  0.00  0.00    +0.112 A 
ATOM     28  C   UNL     1      -3.714 -10.672  15.647  0.00  0.00    +0.031 A 
ENDROOT
BRANCH   9  18
ATOM      6  O   UNL     1     -11.584  -7.197  13.893  0.00  0.00    -0.276 OA
ATOM     11  N   UNL     1     -11.350  -8.551  15.766  0.00  0.00    -0.302 N 
ATOM     18  C   UNL     1      -9.601 -10.470  17.047  0.00  0.00    +0.060 C 
ATOM     21  C   UNL     1      -9.507 -10.173  15.545  0.00  0.00    +0.038 C 
ATOM     22  C   UNL     1     -10.145  -9.250  17.801  0.00  0.00    +0.038 C 
ATOM     23  C   UNL     1     -10.850  -9.693  14.998  0.00  0.00    +0.109 C 
ATOM     24  C   UNL     1     -11.476  -8.788  17.209  0.00  0.00    +0.109 C 
ATOM     29  C   UNL     1     -11.700  -7.372  15.108  0.00  0.00    +0.212 C 
ATOM     30  C   UNL     1     -12.249  -6.259  15.964  0.00  0.00    +0.109 C 
ENDBRANCH   9  18
BRANCH  27  12
ATOM     12  N   UNL     1      -3.025 -12.596  14.498  0.00  0.00    -0.211 N 
ATOM     38  H   UNL     1      -2.072 -12.210  14.438  0.00  0.00    +0.174 HD
BRANCH  12   1
ATOM      1  S   UNL     1      -3.779 -12.845  13.004  0.00  0.00    +0.073 S 
ATOM      7  O   UNL     1      -3.211 -14.012  12.358  0.00  0.00    -0.150 OA
ATOM      8  O   UNL     1      -5.217 -12.721  13.156  0.00  0.00    -0.150 OA
BRANCH   1  31
ATOM     31  C   UNL     1      -3.218 -11.424  12.112  0.00  0.00    +0.109 A 
ATOM     32  C   UNL     1      -4.116 -10.724  11.325  0.00  0.00    +0.041 A 
ATOM     33  C   UNL     1      -1.893 -11.041  12.217  0.00  0.00    +0.029 A 
ATOM     34  C   UNL     1      -3.674  -9.604  10.621  0.00  0.00    +0.057 A 
ATOM     35  C   UNL     1      -1.451  -9.921  11.512  0.00  0.00    +0.002 A 
ATOM     36  C   UNL     1      -2.341  -9.203  10.714  0.00  0.00    +0.012 A 
BRANCH  34  37
ATOM      2  F   UNL     1      -5.766  -9.525   9.463  0.00  0.00    -0.166 F 
ATOM      3  F   UNL     1      -5.054  -7.672  10.336  0.00  0.00    -0.166 F 
ATOM      4  F   UNL     1      -4.082  -8.480   8.566  0.00  0.00    -0.166 F 
ATOM     37  C   UNL     1      -4.626  -8.837   9.767  0.00  0.00    +0.417 C 
ENDBRANCH  34  37
ENDBRANCH   1  31
ENDBRANCH  12   1
ENDBRANCH  27  12
TORSDOF 5
ENDMDL
MODEL 2
REMARK VINA RESULT:      -7.8     24.628     28.316
REMARK  Name = 7113963
REMARK  6 active torsions:
REMARK  status: ('A' for Active; 'I' for Inactive)
REMARK    1  A    between atoms: S_1  and  N_12
REMARK    2  A    between atoms: S_1  and  C_31
REMARK    3  A    between atoms: N_9  and  C_18
REMARK    4  A    between atoms: N_12  and  C_27
REMARK    5  A    between atoms: C_29  and  C_30
REMARK    6  A    between atoms: C_34  and  C_37
REMARK                            x       y       z     vdW  Elec       q    Type
REMARK                         _______ _______ _______ _____ _____    ______ ____
ROOT
ATOM      5  O   UNL     1      14.529   7.347   3.176  0.00  0.00    -0.266 OA
ATOM      9  N   UNL     1      12.254   4.990  -0.626  0.00  0.00    -0.298 NA
ATOM     10  N   UNL     1      13.242   5.571   2.350  0.00  0.00    -0.310 N 
ATOM     13  C   UNL     1      14.118   3.883   0.633  0.00  0.00    +0.024 C 
ATOM     14  C   UNL     1      11.821   3.691   1.463  0.00  0.00    +0.050 C 
ATOM     15  C   UNL     1      13.132   2.926   1.292  0.00  0.00    +0.017 C 
ATOM     16  C   UNL     1      13.571   4.349  -0.733  0.00  0.00    +0.090 C 
ATOM     17  C   UNL     1      11.293   4.128   0.078  0.00  0.00    +0.094 C 
ATOM     19  C   UNL     1      14.388   5.052   1.590  0.00  0.00    +0.130 C 
ATOM     20  C   UNL     1      12.014   4.896   2.364  0.00  0.00    +0.026 A 
ATOM     25  C   UNL     1      11.010   5.324   3.151  0.00  0.00    +0.024 A 
ATOM     26  C   UNL     1      13.471   6.720   3.135  0.00  0.00    +0.274 A 
ATOM     27  C   UNL     1      12.319   7.156   3.965  0.00  0.00    +0.112 A 
ATOM     28  C   UNL     1      11.164   6.491   3.978  0.00  0.00    +0.031 A 
ENDROOT
BRANCH   9  18
ATOM      6  O   UNL     1       9.306   3.322  -5.742  0.00  0.00    -0.276 OA
ATOM     11  N   UNL     1      10.833   4.643  -4.591  0.00  0.00    -0.302 N 
ATOM     18  C   UNL     1      11.749   5.370  -1.943  0.00  0.00    +0.060 C 
ATOM     21  C   UNL     1      10.363   4.755  -2.174  0.00  0.00    +0.038 C 
ATOM     22  C   UNL     1      12.726   4.914  -3.034  0.00  0.00    +0.038 C 
ATOM     23  C   UNL     1       9.857   5.061  -3.583  0.00  0.00    +0.109 C 
ATOM     24  C   UNL     1      12.173   5.217  -4.426  0.00  0.00    +0.109 C 
ATOM     29  C   UNL     1      10.440   3.793  -5.625  0.00  0.00    +0.212 C 
ATOM     30  C   UNL     1      11.491   3.445  -6.649  0.00  0.00    +0.109 C 
ENDBRANCH   9  18
BRANCH  27  12
ATOM     12  N   UNL     1      12.427   8.295   4.784  0.00  0.00    -0.211 N 
ATOM     38  H   UNL     1      12.956   9.058   4.338  0.00  0.00    +0.174 HD
BRANCH  12   1
ATOM      1  S   UNL     1      12.799   8.039   6.415  0.00  0.00    +0.073 S 
ATOM      7  O   UNL     1      13.588   6.831   6.553  0.00  0.00    -0.150 OA
ATOM      8  O   UNL     1      13.253   9.281   7.012  0.00  0.00    -0.150 OA
BRANCH   1  31
ATOM     31  C   UNL     1      11.191   7.696   7.068  0.00  0.00    +0.109 A 
ATOM     32  C   UNL     1      11.012   6.584   7.871  0.00  0.00    +0.041 A 
ATOM     33  C   UNL     1      10.143   8.546   6.761  0.00  0.00    +0.029 A 
ATOM     34  C   UNL     1       9.744   6.314   8.385  0.00  0.00    +0.057 A 
ATOM     35  C   UNL     1       8.875   8.274   7.275  0.00  0.00    +0.002 A 
ATOM     36  C   UNL     1       8.675   7.158   8.087  0.00  0.00    +0.012 A 
BRANCH  34  37
ATOM      2  F   UNL     1      10.463   4.987  10.242  0.00  0.00    -0.166 F 
ATOM      3  F   UNL     1       8.326   5.117   9.895  0.00  0.00    -0.166 F 
ATOM      4  F   UNL     1       9.574   3.948   8.551  0.00  0.00    -0.166 F 
ATOM     37  C   UNL     1       9.531   5.119   9.252  0.00  0.00    +0.417 C 
ENDBRANCH  34  37
ENDBRANCH   1  31
ENDBRANCH  12   1
ENDBRANCH  27  12
TORSDOF 5
ENDMDL
MODEL 3
REMARK VINA RESULT:      -7.8      3.642      6.606
REMARK  Name = 7113963
REMARK  6 active torsions:
REMARK  status: ('A' for Active; 'I' for Inactive)
REMARK    1  A    between atoms: S_1  and  N_12
REMARK    2  A    between atoms: S_1  and  C_31
REMARK    3  A    between atoms: N_9  and  C_18
REMARK    4  A    between atoms: N_12  and  C_27
REMARK    5  A    between atoms: C_29  and  C_30
REMARK    6  A    between atoms: C_34  and  C_37
REMARK                            x       y       z     vdW  Elec       q    Type
REMARK                         _______ _______ _______ _____ _____    ______ ____
ROOT
ATOM      5  O   UNL     1      -8.825  -9.643  14.016  0.00  0.00    -0.266 OA
ATOM      9  N   UNL     1     -12.723  -6.482  14.035  0.00  0.00    -0.298 NA
ATOM     10  N   UNL     1     -10.854  -8.906  14.929  0.00  0.00    -0.310 N 
ATOM     13  C   UNL     1     -13.066  -8.934  13.639  0.00  0.00    +0.024 C 
ATOM     14  C   UNL     1     -13.009  -8.079  15.934  0.00  0.00    +0.050 C 
ATOM     15  C   UNL     1     -13.697  -9.089  15.018  0.00  0.00    +0.017 C 
ATOM     16  C   UNL     1     -13.271  -7.495  13.122  0.00  0.00    +0.090 C 
ATOM     17  C   UNL     1     -13.247  -6.650  15.398  0.00  0.00    +0.094 C 
ATOM     19  C   UNL     1     -11.585  -9.325  13.726  0.00  0.00    +0.130 C 
ATOM     20  C   UNL     1     -11.524  -8.369  16.037  0.00  0.00    +0.026 A 
ATOM     25  C   UNL     1     -10.854  -8.093  17.171  0.00  0.00    +0.024 A 
ATOM     26  C   UNL     1      -9.466  -9.161  14.949  0.00  0.00    +0.274 A 
ATOM     27  C   UNL     1      -8.780  -8.815  16.220  0.00  0.00    +0.112 A 
ATOM     28  C   UNL     1      -9.437  -8.322  17.268  0.00  0.00    +0.031 A 
ENDROOT
BRANCH   9  18
ATOM      6  O   UNL     1     -16.253  -2.781  10.646  0.00  0.00    -0.276 OA
ATOM     11  N   UNL     1     -14.222  -3.357  11.617  0.00  0.00    -0.302 N 
ATOM     18  C   UNL     1     -12.982  -5.134  13.536  0.00  0.00    +0.060 C 
ATOM     21  C   UNL     1     -14.486  -4.839  13.569  0.00  0.00    +0.038 C 
ATOM     22  C   UNL     1     -12.438  -4.986  12.109  0.00  0.00    +0.038 C 
ATOM     23  C   UNL     1     -14.787  -3.469  12.963  0.00  0.00    +0.109 C 
ATOM     24  C   UNL     1     -12.779  -3.613  11.532  0.00  0.00    +0.109 C 
ATOM     29  C   UNL     1     -15.041  -2.991  10.549  0.00  0.00    +0.212 C 
ATOM     30  C   UNL     1     -14.375  -2.853   9.203  0.00  0.00    +0.109 C 
ENDBRANCH   9  18
BRANCH  27  12
ATOM     12  N   UNL     1      -7.394  -9.020  16.354  0.00  0.00    -0.211 N 
ATOM     38  H   UNL     1      -6.869  -8.764  15.505  0.00  0.00    +0.174 HD
BRANCH  12   1
ATOM      1  S   UNL     1      -6.895 -10.463  17.083  0.00  0.00    +0.073 S 
ATOM      7  O   UNL     1      -6.739 -10.262  18.510  0.00  0.00    -0.150 OA
ATOM      8  O   UNL     1      -7.696 -11.565  16.583  0.00  0.00    -0.150 OA
BRANCH   1  31
ATOM     31  C   UNL     1      -5.274 -10.635  16.394  0.00  0.00    +0.109 A 
ATOM     32  C   UNL     1      -5.112 -10.554  15.023  0.00  0.00    +0.041 A 
ATOM     33  C   UNL     1      -4.201 -10.848  17.241  0.00  0.00    +0.029 A 
ATOM     34  C   UNL     1      -3.835 -10.690  14.480  0.00  0.00    +0.057 A 
ATOM     35  C   UNL     1      -2.923 -10.985  16.697  0.00  0.00    +0.002 A 
ATOM     36  C   UNL     1      -2.740 -10.906  15.317  0.00  0.00    +0.012 A 
BRANCH  34  37
ATOM      2  F   UNL     1      -2.421 -10.111  12.638  0.00  0.00    -0.166 F 
ATOM      3  F   UNL     1      -3.737 -11.814  12.370  0.00  0.00    -0.166 F 
ATOM      4  F   UNL     1      -4.560  -9.801  12.397  0.00  0.00    -0.166 F 
ATOM     37  C   UNL     1      -3.640 -10.607  13.003  0.00  0.00    +0.417 C 
ENDBRANCH  34  37
ENDBRANCH   1  31
ENDBRANCH  12   1
ENDBRANCH  27  12
TORSDOF 5
ENDMDL
MODEL 4
REMARK VINA RESULT:      -7.7     29.245     31.525
REMARK  Name = 7113963
REMARK  6 active torsions:
REMARK  status: ('A' for Active; 'I' for Inactive)
REMARK    1  A    between atoms: S_1  and  N_12
REMARK    2  A    between atoms: S_1  and  C_31
REMARK    3  A    between atoms: N_9  and  C_18
REMARK    4  A    between atoms: N_12  and  C_27
REMARK    5  A    between atoms: C_29  and  C_30
REMARK    6  A    between atoms: C_34  and  C_37
REMARK                            x       y       z     vdW  Elec       q    Type
REMARK                         _______ _______ _______ _____ _____    ______ ____
ROOT
ATOM      5  O   UNL     1      17.967   5.331  19.392  0.00  0.00    -0.266 OA
ATOM      9  N   UNL     1      14.654   9.097  19.234  0.00  0.00    -0.298 NA
ATOM     10  N   UNL     1      16.672   6.959  20.470  0.00  0.00    -0.310 N 
ATOM     13  C   UNL     1      14.111   6.965  20.435  0.00  0.00    +0.024 C 
ATOM     14  C   UNL     1      15.313   8.742  21.618  0.00  0.00    +0.050 C 
ATOM     15  C   UNL     1      14.242   7.666  21.782  0.00  0.00    +0.017 C 
ATOM     16  C   UNL     1      13.706   7.981  19.346  0.00  0.00    +0.090 C 
ATOM     17  C   UNL     1      14.870   9.750  20.534  0.00  0.00    +0.094 C 
ATOM     19  C   UNL     1      15.432   6.253  20.116  0.00  0.00    +0.130 C 
ATOM     20  C   UNL     1      16.648   8.121  21.253  0.00  0.00    +0.026 A 
ATOM     25  C   UNL     1      17.797   8.692  21.660  0.00  0.00    +0.024 A 
ATOM     26  C   UNL     1      17.881   6.357  20.066  0.00  0.00    +0.274 A 
ATOM     27  C   UNL     1      19.114   7.045  20.527  0.00  0.00    +0.112 A 
ATOM     28  C   UNL     1      19.071   8.140  21.286  0.00  0.00    +0.031 A 
ENDROOT
BRANCH   9  18
ATOM      6  O   UNL     1      15.109  11.200  13.489  0.00  0.00    -0.276 OA
ATOM     11  N   UNL     1      14.643  11.484  15.747  0.00  0.00    -0.302 N 
ATOM     18  C   UNL     1      14.211  10.062  18.231  0.00  0.00    +0.060 C 
ATOM     21  C   UNL     1      14.051   9.372  16.870  0.00  0.00    +0.038 C 
ATOM     22  C   UNL     1      15.215  11.217  18.130  0.00  0.00    +0.038 C 
ATOM     23  C   UNL     1      13.680  10.382  15.786  0.00  0.00    +0.109 C 
ATOM     24  C   UNL     1      14.821  12.191  17.021  0.00  0.00    +0.109 C 
ATOM     29  C   UNL     1      15.275  11.810  14.547  0.00  0.00    +0.212 C 
ATOM     30  C   UNL     1      16.218  12.987  14.579  0.00  0.00    +0.109 C 
ENDBRANCH   9  18
BRANCH  27  12
ATOM     12  N   UNL     1      20.379   6.539  20.180  0.00  0.00    -0.211 N 
ATOM     38  H   UNL     1      20.483   6.386  19.166  0.00  0.00    +0.174 HD
BRANCH  12   1
ATOM      1  S   UNL     1      21.008   5.302  21.148  0.00  0.00    +0.073 S 
ATOM      7  O   UNL     1      20.825   5.636  22.547  0.00  0.00    -0.150 OA
ATOM      8  O   UNL     1      20.572   4.015  20.640  0.00  0.00    -0.150 OA
BRANCH   1  31
ATOM     31  C   UNL     1      22.735   5.452  20.792  0.00  0.00    +0.109 A 
ATOM     32  C   UNL     1      23.459   4.316  20.478  0.00  0.00    +0.041 A 
ATOM     33  C   UNL     1      23.327   6.702  20.837  0.00  0.00    +0.029 A 
ATOM     34  C   UNL     1      24.820   4.434  20.198  0.00  0.00    +0.057 A 
ATOM     35  C   UNL     1      24.689   6.819  20.558  0.00  0.00    +0.002 A 
ATOM     36  C   UNL     1      25.436   5.685  20.238  0.00  0.00    +0.012 A 
BRANCH  34  37
ATOM      2  F   UNL     1      26.173   3.261  18.610  0.00  0.00    -0.166 F 
ATOM      3  F   UNL     1      26.667   3.000  20.706  0.00  0.00    -0.166 F 
ATOM      4  F   UNL     1      24.874   2.077  19.890  0.00  0.00    -0.166 F 
ATOM     37  C   UNL     1      25.619   3.221  19.858  0.00  0.00    +0.417 C 
ENDBRANCH  34  37
ENDBRANCH   1  31
ENDBRANCH  12   1
ENDBRANCH  27  12
TORSDOF 5
ENDMDL
MODEL 5
REMARK VINA RESULT:      -7.7     20.079     22.485
REMARK  Name = 7113963
REMARK  6 active torsions:
REMARK  status: ('A' for Active; 'I' for Inactive)
REMARK    1  A    between atoms: S_1  and  N_12
REMARK    2  A    between atoms: S_1  and  C_31
REMARK    3  A    between atoms: N_9  and  C_18
REMARK    4  A    between atoms: N_12  and  C_27
REMARK    5  A    between atoms: C_29  and  C_30
REMARK    6  A    between atoms: C_34  and  C_37
REMARK                            x       y       z     vdW  Elec       q    Type
REMARK                         _______ _______ _______ _____ _____    ______ ____
ROOT
ATOM      5  O   UNL     1     -15.831   2.172  24.962  0.00  0.00    -0.266 OA
ATOM      9  N   UNL     1     -16.167   6.357  22.211  0.00  0.00    -0.298 NA
ATOM     10  N   UNL     1     -17.039   4.038  24.220  0.00  0.00    -0.310 N 
ATOM     13  C   UNL     1     -17.683   4.410  21.769  0.00  0.00    +0.024 C 
ATOM     14  C   UNL     1     -18.315   6.070  23.455  0.00  0.00    +0.050 C 
ATOM     15  C   UNL     1     -18.867   5.173  22.350  0.00  0.00    +0.017 C 
ATOM     16  C   UNL     1     -16.641   5.398  21.204  0.00  0.00    +0.090 C 
ATOM     17  C   UNL     1     -17.289   7.057  22.855  0.00  0.00    +0.094 C 
ATOM     19  C   UNL     1     -17.102   3.496  22.856  0.00  0.00    +0.130 C 
ATOM     20  C   UNL     1     -17.676   5.241  24.553  0.00  0.00    +0.026 A 
ATOM     25  C   UNL     1     -17.703   5.668  25.830  0.00  0.00    +0.024 A 
ATOM     26  C   UNL     1     -16.394   3.243  25.190  0.00  0.00    +0.274 A 
ATOM     27  C   UNL     1     -16.439   3.777  26.575  0.00  0.00    +0.112 A 
ATOM     28  C   UNL     1     -17.065   4.914  26.875  0.00  0.00    +0.031 A 
ENDROOT
BRANCH   9  18
ATOM      6  O   UNL     1     -13.032   8.192  17.268  0.00  0.00    -0.276 OA
ATOM     11  N   UNL     1     -13.315   8.008  19.567  0.00  0.00    -0.302 N 
ATOM     18  C   UNL     1     -15.223   7.305  21.627  0.00  0.00    +0.060 C 
ATOM     21  C   UNL     1     -15.673   7.695  20.213  0.00  0.00    +0.038 C 
ATOM     22  C   UNL     1     -13.816   6.694  21.592  0.00  0.00    +0.038 C 
ATOM     23  C   UNL     1     -14.649   8.612  19.548  0.00  0.00    +0.109 C 
ATOM     24  C   UNL     1     -12.828   7.632  20.899  0.00  0.00    +0.109 C 
ATOM     29  C   UNL     1     -12.600   7.869  18.377  0.00  0.00    +0.212 C 
ATOM     30  C   UNL     1     -11.216   7.280  18.486  0.00  0.00    +0.109 C 
ENDBRANCH   9  18
BRANCH  27  12
ATOM     12  N   UNL     1     -15.823   3.072  27.625  0.00  0.00    -0.211 N 
ATOM     38  H   UNL     1     -14.861   2.781  27.400  0.00  0.00    +0.174 HD
BRANCH  12   1
ATOM      1  S   UNL     1     -16.749   1.894  28.411  0.00  0.00    +0.073 S 
ATOM      7  O   UNL     1     -18.061   2.429  28.721  0.00  0.00    -0.150 OA
ATOM      8  O   UNL     1     -16.623   0.628  27.714  0.00  0.00    -0.150 OA
BRANCH   1  31
ATOM     31  C   UNL     1     -15.866   1.746  29.937  0.00  0.00    +0.109 A 
ATOM     32  C   UNL     1     -15.521   2.893  30.630  0.00  0.00    +0.041 A 
ATOM     33  C   UNL     1     -15.536   0.487  30.406  0.00  0.00    +0.029 A 
ATOM     34  C   UNL     1     -14.824   2.776  31.832  0.00  0.00    +0.057 A 
ATOM     35  C   UNL     1     -14.838   0.371  31.608  0.00  0.00    +0.002 A 
ATOM     36  C   UNL     1     -14.482   1.516  32.322  0.00  0.00    +0.012 A 
BRANCH  34  37
ATOM      2  F   UNL     1     -15.314   5.040  32.433  0.00  0.00    -0.166 F 
ATOM      3  F   UNL     1     -14.368   3.804  33.944  0.00  0.00    -0.166 F 
ATOM      4  F   UNL     1     -13.221   4.487  32.227  0.00  0.00    -0.166 F 
ATOM     37  C   UNL     1     -14.443   4.001  32.594  0.00  0.00    +0.417 C 
ENDBRANCH  34  37
ENDBRANCH   1  31
ENDBRANCH  12   1
ENDBRANCH  27  12
TORSDOF 5
ENDMDL
MODEL 6
REMARK VINA RESULT:      -7.6     24.379     27.998
REMARK  Name = 7113963
REMARK  6 active torsions:
REMARK  status: ('A' for Active; 'I' for Inactive)
REMARK    1  A    between atoms: S_1  and  N_12
REMARK    2  A    between atoms: S_1  and  C_31
REMARK    3  A    between atoms: N_9  and  C_18
REMARK    4  A    between atoms: N_12  and  C_27
REMARK    5  A    between atoms: C_29  and  C_30
REMARK    6  A    between atoms: C_34  and  C_37
REMARK                            x       y       z     vdW  Elec       q    Type
REMARK                         _______ _______ _______ _____ _____    ______ ____
ROOT
ATOM      5  O   UNL     1      14.212   7.736   3.028  0.00  0.00    -0.266 OA
ATOM      9  N   UNL     1      12.021   5.161  -0.682  0.00  0.00    -0.298 NA
ATOM     10  N   UNL     1      13.230   5.773   2.205  0.00  0.00    -0.310 N 
ATOM     13  C   UNL     1      14.216   4.414   0.271  0.00  0.00    +0.024 C 
ATOM     14  C   UNL     1      12.132   3.683   1.330  0.00  0.00    +0.050 C 
ATOM     15  C   UNL     1      13.540   3.231   0.954  0.00  0.00    +0.017 C 
ATOM     16  C   UNL     1      13.419   4.827  -0.984  0.00  0.00    +0.090 C 
ATOM     17  C   UNL     1      11.356   4.074   0.051  0.00  0.00    +0.094 C 
ATOM     19  C   UNL     1      14.355   5.558   1.285  0.00  0.00    +0.130 C 
ATOM     20  C   UNL     1      12.180   4.850   2.299  0.00  0.00    +0.026 A 
ATOM     25  C   UNL     1      11.215   5.005   3.224  0.00  0.00    +0.024 A 
ATOM     26  C   UNL     1      13.310   6.898   3.052  0.00  0.00    +0.274 A 
ATOM     27  C   UNL     1      12.205   7.028   4.036  0.00  0.00    +0.112 A 
ATOM     28  C   UNL     1      11.225   6.129   4.121  0.00  0.00    +0.031 A 
ENDROOT
BRANCH   9  18
ATOM      6  O   UNL     1       7.891   8.768  -3.434  0.00  0.00    -0.276 OA
ATOM     11  N   UNL     1       9.038   6.759  -3.213  0.00  0.00    -0.302 N 
ATOM     18  C   UNL     1      11.288   5.497  -1.899  0.00  0.00    +0.060 C 
ATOM     21  C   UNL     1      11.201   7.020  -2.060  0.00  0.00    +0.038 C 
ATOM     22  C   UNL     1       9.883   4.882  -1.855  0.00  0.00    +0.038 C 
ATOM     23  C   UNL     1      10.356   7.393  -3.276  0.00  0.00    +0.109 C 
ATOM     24  C   UNL     1       9.064   5.298  -3.076  0.00  0.00    +0.109 C 
ATOM     29  C   UNL     1       7.887   7.540  -3.321  0.00  0.00    +0.212 C 
ATOM     30  C   UNL     1       6.569   6.807  -3.292  0.00  0.00    +0.109 C 
ENDBRANCH   9  18
BRANCH  27  12
ATOM     12  N   UNL     1      12.176   8.115   4.929  0.00  0.00    -0.211 N 
ATOM     38  H   UNL     1      12.560   8.978   4.519  0.00  0.00    +0.174 HD
BRANCH  12   1
ATOM      1  S   UNL     1      12.657   7.817   6.523  0.00  0.00    +0.073 S 
ATOM      7  O   UNL     1      13.429   6.591   6.580  0.00  0.00    -0.150 OA
ATOM      8  O   UNL     1      13.178   9.036   7.111  0.00  0.00    -0.150 OA
BRANCH   1  31
ATOM     31  C   UNL     1      11.093   7.491   7.283  0.00  0.00    +0.109 A 
ATOM     32  C   UNL     1      10.929   6.331   8.019  0.00  0.00    +0.041 A 
ATOM     33  C   UNL     1      10.064   8.402   7.125  0.00  0.00    +0.029 A 
ATOM     34  C   UNL     1       9.696   6.074   8.617  0.00  0.00    +0.057 A 
ATOM     35  C   UNL     1       8.830   8.144   7.723  0.00  0.00    +0.002 A 
ATOM     36  C   UNL     1       8.646   6.980   8.469  0.00  0.00    +0.012 A 
BRANCH  34  37
ATOM      2  F   UNL     1      10.406   4.675  10.424  0.00  0.00    -0.166 F 
ATOM      3  F   UNL     1       8.276   4.752  10.017  0.00  0.00    -0.166 F 
ATOM      4  F   UNL     1       9.604   3.698   8.653  0.00  0.00    -0.166 F 
ATOM     37  C   UNL     1       9.500   4.828   9.413  0.00  0.00    +0.417 C 
ENDBRANCH  34  37
ENDBRANCH   1  31
ENDBRANCH  12   1
ENDBRANCH  27  12
TORSDOF 5
ENDMDL
MODEL 7
REMARK VINA RESULT:      -7.6     19.554     21.974
REMARK  Name = 7113963
REMARK  6 active torsions:
REMARK  status: ('A' for Active; 'I' for Inactive)
REMARK    1  A    between atoms: S_1  and  N_12
REMARK    2  A    between atoms: S_1  and  C_31
REMARK    3  A    between atoms: N_9  and  C_18
REMARK    4  A    between atoms: N_12  and  C_27
REMARK    5  A    between atoms: C_29  and  C_30
REMARK    6  A    between atoms: C_34  and  C_37
REMARK                            x       y       z     vdW  Elec       q    Type
REMARK                         _______ _______ _______ _____ _____    ______ ____
ROOT
ATOM      5  O   UNL     1     -16.461   2.422  22.710  0.00  0.00    -0.266 OA
ATOM      9  N   UNL     1     -14.779   7.076  21.876  0.00  0.00    -0.298 NA
ATOM     10  N   UNL     1     -16.731   4.747  22.842  0.00  0.00    -0.310 N 
ATOM     13  C   UNL     1     -16.882   6.261  20.781  0.00  0.00    +0.024 C 
ATOM     14  C   UNL     1     -16.993   7.244  23.022  0.00  0.00    +0.050 C 
ATOM     15  C   UNL     1     -17.723   7.155  21.684  0.00  0.00    +0.017 C 
ATOM     16  C   UNL     1     -15.474   6.866  20.599  0.00  0.00    +0.090 C 
ATOM     17  C   UNL     1     -15.595   7.869  22.807  0.00  0.00    +0.094 C 
ATOM     19  C   UNL     1     -16.844   4.848  21.380  0.00  0.00    +0.130 C 
ATOM     20  C   UNL     1     -16.870   5.874  23.662  0.00  0.00    +0.026 A 
ATOM     25  C   UNL     1     -16.874   5.747  25.002  0.00  0.00    +0.024 A 
ATOM     26  C   UNL     1     -16.574   3.451  23.376  0.00  0.00    +0.274 A 
ATOM     27  C   UNL     1     -16.564   3.378  24.860  0.00  0.00    +0.112 A 
ATOM     28  C   UNL     1     -16.715   4.460  25.623  0.00  0.00    +0.031 A 
ENDROOT
BRANCH   9  18
ATOM      6  O   UNL     1     -11.298  10.844  18.510  0.00  0.00    -0.276 OA
ATOM     11  N   UNL     1     -11.573   9.030  19.936  0.00  0.00    -0.302 N 
ATOM     18  C   UNL     1     -13.474   7.697  21.665  0.00  0.00    +0.060 C 
ATOM     21  C   UNL     1     -13.647   9.166  21.261  0.00  0.00    +0.038 C 
ATOM     22  C   UNL     1     -12.695   6.933  20.586  0.00  0.00    +0.038 C 
ATOM     23  C   UNL     1     -12.298   9.808  20.942  0.00  0.00    +0.109 C 
ATOM     24  C   UNL     1     -11.364   7.619  20.282  0.00  0.00    +0.109 C 
ATOM     29  C   UNL     1     -11.109   9.655  18.778  0.00  0.00    +0.212 C 
ATOM     30  C   UNL     1     -10.332   8.796  17.812  0.00  0.00    +0.109 C 
ENDBRANCH   9  18
BRANCH  27  12
ATOM     12  N   UNL     1     -16.407   2.138  25.506  0.00  0.00    -0.211 N 
ATOM     38  H   UNL     1     -16.006   1.415  24.891  0.00  0.00    +0.174 HD
BRANCH  12   1
ATOM      1  S   UNL     1     -17.687   1.607  26.477  0.00  0.00    +0.073 S 
ATOM      7  O   UNL     1     -18.799   2.530  26.368  0.00  0.00    -0.150 OA
ATOM      8  O   UNL     1     -17.896   0.185  26.274  0.00  0.00    -0.150 OA
BRANCH   1  31
ATOM     31  C   UNL     1     -16.986   1.813  28.087  0.00  0.00    +0.109 A 
ATOM     32  C   UNL     1     -16.023   0.919  28.523  0.00  0.00    +0.041 A 
ATOM     33  C   UNL     1     -17.414   2.862  28.881  0.00  0.00    +0.029 A 
ATOM     34  C   UNL     1     -15.470   1.081  29.793  0.00  0.00    +0.057 A 
ATOM     35  C   UNL     1     -16.862   3.023  30.152  0.00  0.00    +0.002 A 
ATOM     36  C   UNL     1     -15.890   2.133  30.608  0.00  0.00    +0.012 A 
BRANCH  34  37
ATOM      2  F   UNL     1     -14.070  -0.809  29.355  0.00  0.00    -0.166 F 
ATOM      3  F   UNL     1     -13.265   0.733  30.651  0.00  0.00    -0.166 F 
ATOM      4  F   UNL     1     -14.842  -0.579  31.375  0.00  0.00    -0.166 F 
ATOM     37  C   UNL     1     -14.432   0.127  30.281  0.00  0.00    +0.417 C 
ENDBRANCH  34  37
ENDBRANCH   1  31
ENDBRANCH  12   1
ENDBRANCH  27  12
TORSDOF 5
ENDMDL
MODEL 8
REMARK VINA RESULT:      -7.6      3.732      6.300
REMARK  Name = 7113963
REMARK  6 active torsions:
REMARK  status: ('A' for Active; 'I' for Inactive)
REMARK    1  A    between atoms: S_1  and  N_12
REMARK    2  A    between atoms: S_1  and  C_31
REMARK    3  A    between atoms: N_9  and  C_18
REMARK    4  A    between atoms: N_12  and  C_27
REMARK    5  A    between atoms: C_29  and  C_30
REMARK    6  A    between atoms: C_34  and  C_37
REMARK                            x       y       z     vdW  Elec       q    Type
REMARK                         _______ _______ _______ _____ _____    ______ ____
ROOT
ATOM      5  O   UNL     1      -5.247 -12.516  10.446  0.00  0.00    -0.266 OA
ATOM      9  N   UNL     1      -3.920 -11.181  15.099  0.00  0.00    -0.298 NA
ATOM     10  N   UNL     1      -3.603 -11.979  12.028  0.00  0.00    -0.310 N 
ATOM     13  C   UNL     1      -3.174 -13.372  14.134  0.00  0.00    +0.024 C 
ATOM     14  C   UNL     1      -1.844 -11.357  13.719  0.00  0.00    +0.050 C 
ATOM     15  C   UNL     1      -1.747 -12.853  14.007  0.00  0.00    +0.017 C 
ATOM     16  C   UNL     1      -3.904 -12.639  15.280  0.00  0.00    +0.090 C 
ATOM     17  C   UNL     1      -2.564 -10.651  14.891  0.00  0.00    +0.094 C 
ATOM     19  C   UNL     1      -3.883 -13.208  12.783  0.00  0.00    +0.130 C 
ATOM     20  C   UNL     1      -2.578 -11.105  12.415  0.00  0.00    +0.026 A 
ATOM     25  C   UNL     1      -2.262 -10.044  11.651  0.00  0.00    +0.024 A 
ATOM     26  C   UNL     1      -4.347 -11.778  10.846  0.00  0.00    +0.274 A 
ATOM     27  C   UNL     1      -3.967 -10.578  10.058  0.00  0.00    +0.112 A 
ATOM     28  C   UNL     1      -2.978  -9.768  10.434  0.00  0.00    +0.031 A 
ENDROOT
BRANCH   9  18
ATOM      6  O   UNL     1      -7.499 -11.688  20.056  0.00  0.00    -0.276 OA
ATOM     11  N   UNL     1      -6.614 -10.481  18.278  0.00  0.00    -0.302 N 
ATOM     18  C   UNL     1      -4.573 -10.521  16.226  0.00  0.00    +0.060 C 
ATOM     21  C   UNL     1      -4.467 -11.394  17.482  0.00  0.00    +0.038 C 
ATOM     22  C   UNL     1      -6.043 -10.239  15.892  0.00  0.00    +0.038 C 
ATOM     23  C   UNL     1      -5.227 -10.766  18.649  0.00  0.00    +0.109 C 
ATOM     24  C   UNL     1      -6.772  -9.633  17.091  0.00  0.00    +0.109 C 
ATOM     29  C   UNL     1      -7.657 -10.975  19.061  0.00  0.00    +0.212 C 
ATOM     30  C   UNL     1      -9.055 -10.600  18.639  0.00  0.00    +0.109 C 
ENDBRANCH   9  18
BRANCH  27  12
ATOM     12  N   UNL     1      -4.645 -10.272   8.865  0.00  0.00    -0.211 N 
ATOM     38  H   UNL     1      -4.007 -10.014   8.098  0.00  0.00    +0.174 HD
BRANCH  12   1
ATOM      1  S   UNL     1      -6.025  -9.300   8.989  0.00  0.00    +0.073 S 
ATOM      7  O   UNL     1      -7.021  -9.967   9.805  0.00  0.00    -0.150 OA
ATOM      8  O   UNL     1      -5.636  -7.934   9.283  0.00  0.00    -0.150 OA
BRANCH   1  31
ATOM     31  C   UNL     1      -6.603  -9.336   7.317  0.00  0.00    +0.109 A 
ATOM     32  C   UNL     1      -7.627  -8.485   6.940  0.00  0.00    +0.041 A 
ATOM     33  C   UNL     1      -6.022 -10.215   6.421  0.00  0.00    +0.029 A 
ATOM     34  C   UNL     1      -8.083  -8.514   5.622  0.00  0.00    +0.057 A 
ATOM     35  C   UNL     1      -6.480 -10.244   5.103  0.00  0.00    +0.002 A 
ATOM     36  C   UNL     1      -7.510  -9.393   4.704  0.00  0.00    +0.012 A 
BRANCH  34  37
ATOM      2  F   UNL     1      -8.928  -6.936   4.034  0.00  0.00    -0.166 F 
ATOM      3  F   UNL     1     -10.373  -8.248   4.980  0.00  0.00    -0.166 F 
ATOM      4  F   UNL     1      -9.458  -6.639   6.122  0.00  0.00    -0.166 F 
ATOM     37  C   UNL     1      -9.187  -7.605   5.196  0.00  0.00    +0.417 C 
ENDBRANCH  34  37
ENDBRANCH   1  31
ENDBRANCH  12   1
ENDBRANCH  27  12
TORSDOF 5
ENDMDL
MODEL 9
REMARK VINA RESULT:      -7.5      3.714      6.337
REMARK  Name = 7113963
REMARK  6 active torsions:
REMARK  status: ('A' for Active; 'I' for Inactive)
REMARK    1  A    between atoms: S_1  and  N_12
REMARK    2  A    between atoms: S_1  and  C_31
REMARK    3  A    between atoms: N_9  and  C_18
REMARK    4  A    between atoms: N_12  and  C_27
REMARK    5  A    between atoms: C_29  and  C_30
REMARK    6  A    between atoms: C_34  and  C_37
REMARK                            x       y       z     vdW  Elec       q    Type
REMARK                         _______ _______ _______ _____ _____    ______ ____
ROOT
ATOM      5  O   UNL     1      -5.201 -12.550  10.413  0.00  0.00    -0.266 OA
ATOM      9  N   UNL     1      -3.921 -11.103  15.045  0.00  0.00    -0.298 NA
ATOM     10  N   UNL     1      -3.575 -11.937  11.986  0.00  0.00    -0.310 N 
ATOM     13  C   UNL     1      -3.103 -13.283  14.114  0.00  0.00    +0.024 C 
ATOM     14  C   UNL     1      -1.840 -11.232  13.669  0.00  0.00    +0.050 C 
ATOM     15  C   UNL     1      -1.694 -12.720  13.979  0.00  0.00    +0.017 C 
ATOM     16  C   UNL     1      -3.857 -12.557  15.248  0.00  0.00    +0.090 C 
ATOM     17  C   UNL     1      -2.583 -10.533  14.829  0.00  0.00    +0.094 C 
ATOM     19  C   UNL     1      -3.816 -13.163  12.760  0.00  0.00    +0.130 C 
ATOM     20  C   UNL     1      -2.580 -11.024  12.361  0.00  0.00    +0.026 A 
ATOM     25  C   UNL     1      -2.298  -9.964  11.581  0.00  0.00    +0.024 A 
ATOM     26  C   UNL     1      -4.325 -11.777  10.802  0.00  0.00    +0.274 A 
ATOM     27  C   UNL     1      -3.984 -10.578   9.996  0.00  0.00    +0.112 A 
ATOM     28  C   UNL     1      -3.021  -9.731  10.360  0.00  0.00    +0.031 A 
ENDROOT
BRANCH   9  18
ATOM      6  O   UNL     1      -7.480 -11.652  20.012  0.00  0.00    -0.276 OA
ATOM     11  N   UNL     1      -6.637 -10.445  18.215  0.00  0.00    -0.302 N 
ATOM     18  C   UNL     1      -4.595 -10.448  16.162  0.00  0.00    +0.060 C 
ATOM     21  C   UNL     1      -4.460 -11.297  17.432  0.00  0.00    +0.038 C 
ATOM     22  C   UNL     1      -6.075 -10.221  15.824  0.00  0.00    +0.038 C 
ATOM     23  C   UNL     1      -5.241 -10.677  18.589  0.00  0.00    +0.109 C 
ATOM     24  C   UNL     1      -6.823  -9.621  17.014  0.00  0.00    +0.109 C 
ATOM     29  C   UNL     1      -7.663 -10.962  19.006  0.00  0.00    +0.212 C 
ATOM     30  C   UNL     1      -9.073 -10.641  18.578  0.00  0.00    +0.109 C 
ENDBRANCH   9  18
BRANCH  27  12
ATOM     12  N   UNL     1      -4.671 -10.311   8.798  0.00  0.00    -0.211 N 
ATOM     38  H   UNL     1      -4.040 -10.056   8.025  0.00  0.00    +0.174 HD
BRANCH  12   1
ATOM      1  S   UNL     1      -6.072  -9.368   8.905  0.00  0.00    +0.073 S 
ATOM      7  O   UNL     1      -7.070 -10.063   9.694  0.00  0.00    -0.150 OA
ATOM      8  O   UNL     1      -5.714  -7.998   9.221  0.00  0.00    -0.150 OA
BRANCH   1  31
ATOM     31  C   UNL     1      -6.616  -9.397   7.222  0.00  0.00    +0.109 A 
ATOM     32  C   UNL     1      -6.218 -10.438   6.402  0.00  0.00    +0.041 A 
ATOM     33  C   UNL     1      -7.427  -8.377   6.758  0.00  0.00    +0.029 A 
ATOM     34  C   UNL     1      -6.647 -10.460   5.075  0.00  0.00    +0.057 A 
ATOM     35  C   UNL     1      -7.855  -8.399   5.430  0.00  0.00    +0.002 A 
ATOM     36  C   UNL     1      -7.465  -9.440   4.589  0.00  0.00    +0.012 A 
BRANCH  34  37
ATOM      2  F   UNL     1      -6.682 -12.799   4.572  0.00  0.00    -0.166 F 
ATOM      3  F   UNL     1      -6.664 -11.430   2.889  0.00  0.00    -0.166 F 
ATOM      4  F   UNL     1      -4.871 -11.696   4.090  0.00  0.00    -0.166 F 
ATOM     37  C   UNL     1      -6.228 -11.573   4.176  0.00  0.00    +0.417 C 
ENDBRANCH  34  37
ENDBRANCH   1  31
ENDBRANCH  12   1
ENDBRANCH  27  12
TORSDOF 5
ENDMDL
MODEL 10
REMARK VINA RESULT:      -7.5     27.850     30.235
REMARK  Name = 7113963
REMARK  6 active torsions:
REMARK  status: ('A' for Active; 'I' for Inactive)
REMARK    1  A    between atoms: S_1  and  N_12
REMARK    2  A    between atoms: S_1  and  C_31
REMARK    3  A    between atoms: N_9  and  C_18
REMARK    4  A    between atoms: N_12  and  C_27
REMARK    5  A    between atoms: C_29  and  C_30
REMARK    6  A    between atoms: C_34  and  C_37
REMARK                            x       y       z     vdW  Elec       q    Type
REMARK                         _______ _______ _______ _____ _____    ______ ____
ROOT
ATOM      5  O   UNL     1      13.148  11.437  18.408  0.00  0.00    -0.266 OA
ATOM      9  N   UNL     1      16.250   8.105  20.520  0.00  0.00    -0.298 NA
ATOM     10  N   UNL     1      13.658   9.242  19.052  0.00  0.00    -0.310 N 
ATOM     13  C   UNL     1      13.980   8.534  21.492  0.00  0.00    +0.024 C 
ATOM     14  C   UNL     1      14.232   6.879  19.705  0.00  0.00    +0.050 C 
ATOM     15  C   UNL     1      13.493   7.174  21.007  0.00  0.00    +0.017 C 
ATOM     16  C   UNL     1      15.505   8.499  21.723  0.00  0.00    +0.090 C 
ATOM     17  C   UNL     1      15.754   6.834  19.973  0.00  0.00    +0.094 C 
ATOM     19  C   UNL     1      13.562   9.602  20.473  0.00  0.00    +0.130 C 
ATOM     20  C   UNL     1      13.909   7.922  18.652  0.00  0.00    +0.026 A 
ATOM     25  C   UNL     1      13.883   7.588  17.349  0.00  0.00    +0.024 A 
ATOM     26  C   UNL     1      13.389  10.265  18.119  0.00  0.00    +0.274 A 
ATOM     27  C   UNL     1      13.397   9.839  16.696  0.00  0.00    +0.112 A 
ATOM     28  C   UNL     1      13.621   8.576  16.337  0.00  0.00    +0.031 A 
ENDROOT
BRANCH   9  18
ATOM      6  O   UNL     1      20.747   6.205  24.237  0.00  0.00    -0.276 OA
ATOM     11  N   UNL     1      19.876   7.657  22.645  0.00  0.00    -0.302 N 
ATOM     18  C   UNL     1      17.683   8.034  20.792  0.00  0.00    +0.060 C 
ATOM     21  C   UNL     1      18.049   6.646  21.333  0.00  0.00    +0.038 C 
ATOM     22  C   UNL     1      18.084   9.123  21.796  0.00  0.00    +0.038 C 
ATOM     23  C   UNL     1      19.527   6.581  21.715  0.00  0.00    +0.109 C 
ATOM     24  C   UNL     1      19.562   9.009  22.168  0.00  0.00    +0.109 C 
ATOM     29  C   UNL     1      20.494   7.352  23.858  0.00  0.00    +0.212 C 
ATOM     30  C   UNL     1      20.862   8.518  24.740  0.00  0.00    +0.109 C 
ENDBRANCH   9  18
BRANCH  27  12
ATOM     12  N   UNL     1      13.149  10.775  15.676  0.00  0.00    -0.211 N 
ATOM     38  H   UNL     1      12.409  10.471  15.027  0.00  0.00    +0.174 HD
BRANCH  12   1
ATOM      1  S   UNL     1      14.495  11.479  14.930  0.00  0.00    +0.073 S 
ATOM      7  O   UNL     1      15.044  12.512  15.786  0.00  0.00    -0.150 OA
ATOM      8  O   UNL     1      15.354  10.439  14.394  0.00  0.00    -0.150 OA
BRANCH   1  31
ATOM     31  C   UNL     1      13.724  12.286  13.557  0.00  0.00    +0.109 A 
ATOM     32  C   UNL     1      12.396  12.019  13.276  0.00  0.00    +0.041 A 
ATOM     33  C   UNL     1      14.466  13.167  12.789  0.00  0.00    +0.029 A 
ATOM     34  C   UNL     1      11.789  12.654  12.194  0.00  0.00    +0.057 A 
ATOM     35  C   UNL     1      13.858  13.802  11.706  0.00  0.00    +0.002 A 
ATOM     36  C   UNL     1      12.520  13.546  11.408  0.00  0.00    +0.012 A 
BRANCH  34  37
ATOM      2  F   UNL     1       9.624  11.976  12.953  0.00  0.00    -0.166 F 
ATOM      3  F   UNL     1       9.692  13.461  11.374  0.00  0.00    -0.166 F 
ATOM      4  F   UNL     1      10.210  11.393  10.941  0.00  0.00    -0.166 F 
ATOM     37  C   UNL     1      10.358  12.379  11.874  0.00  0.00    +0.417 C 
ENDBRANCH  34  37
ENDBRANCH   1  31
ENDBRANCH  12   1
ENDBRANCH  27  12
TORSDOF 5
ENDMDL
