MODEL 1
REMARK VINA RESULT:      -7.2      0.000      0.000
REMARK  Name = 45783684
REMARK  6 active torsions:
REMARK  status: ('A' for Active; 'I' for Inactive)
REMARK    1  A    between atoms: O_3  and  C_26
REMARK    2  A    between atoms: O_3  and  C_27
REMARK    3  A    between atoms: N_4  and  C_9
REMARK    4  A    between atoms: C_10  and  C_18
REMARK    5  A    between atoms: C_19  and  C_20
REMARK    6  A    between atoms: C_21  and  C_22
REMARK                            x       y       z     vdW  Elec       q    Type
REMARK                         _______ _______ _______ _____ _____    ______ ____
ROOT
ATOM      4  N   UNL     1      12.114   8.294  19.615  0.00  0.00    -0.288 NA
ATOM     10  C   UNL     1      13.145   8.494  20.653  0.00  0.00    +0.146 C 
ATOM     11  C   UNL     1      10.821   8.425  20.286  0.00  0.00    +0.085 C 
ATOM     12  C   UNL     1      12.476   8.035  21.962  0.00  0.00    +0.030 C 
ATOM     15  C   UNL     1      11.055   7.655  21.570  0.00  0.00    +0.017 C 
ENDROOT
BRANCH   4   9
ATOM      2  O   UNL     1      15.083   9.864  14.464  0.00  0.00    -0.276 OA
ATOM      5  N   UNL     1      13.822  10.365  16.349  0.00  0.00    -0.302 N 
ATOM      9  C   UNL     1      12.245   9.216  18.489  0.00  0.00    +0.060 C 
ATOM     13  C   UNL     1      12.544   8.437  17.202  0.00  0.00    +0.038 C 
ATOM     14  C   UNL     1      13.357  10.235  18.769  0.00  0.00    +0.038 C 
ATOM     16  C   UNL     1      12.779   9.388  16.030  0.00  0.00    +0.109 C 
ATOM     17  C   UNL     1      13.577  11.151  17.565  0.00  0.00    +0.109 C 
ATOM     19  C   UNL     1      14.917  10.512  15.500  0.00  0.00    +0.212 C 
ATOM     20  C   UNL     1      15.949  11.537  15.900  0.00  0.00    +0.109 C 
ENDBRANCH   4   9
BRANCH  10  18
ATOM      1  O   UNL     1      14.341   6.746  19.434  0.00  0.00    -0.336 OA
ATOM      6  N   UNL     1      15.621   7.905  20.860  0.00  0.00    -0.190 NA
ATOM      7  N   UNL     1      15.629   6.205  19.330  0.00  0.00    -0.056 NA
ATOM     18  C   UNL     1      14.424   7.741  20.355  0.00  0.00    +0.245 A 
ATOM     21  C   UNL     1      16.326   6.940  20.200  0.00  0.00    +0.204 A 
BRANCH  21  22
ATOM      8  N   UNL     1      19.767   7.465  21.510  0.00  0.00    -0.221 NA
ATOM     22  C   UNL     1      17.727   6.739  20.434  0.00  0.00    +0.041 A 
ATOM     23  C   UNL     1      18.405   5.677  19.848  0.00  0.00    +0.018 A 
ATOM     24  C   UNL     1      18.447   7.598  21.250  0.00  0.00    +0.126 A 
ATOM     25  C   UNL     1      19.764   5.507  20.090  0.00  0.00    +0.068 A 
ATOM     26  C   UNL     1      20.393   6.421  20.922  0.00  0.00    +0.214 A 
BRANCH  26   3
ATOM      3  O   UNL     1      21.731   6.275  21.177  0.00  0.00    -0.480 OA
ATOM     27  C   UNL     1      22.411   5.252  20.461  0.00  0.00    +0.279 C 
ENDBRANCH  26   3
ENDBRANCH  21  22
ENDBRANCH  10  18
TORSDOF 4
ENDMDL
MODEL 2
REMARK VINA RESULT:      -7.1     26.165     28.817
REMARK  Name = 45783684
REMARK  6 active torsions:
REMARK  status: ('A' for Active; 'I' for Inactive)
REMARK    1  A    between atoms: O_3  and  C_26
REMARK    2  A    between atoms: O_3  and  C_27
REMARK    3  A    between atoms: N_4  and  C_9
REMARK    4  A    between atoms: C_10  and  C_18
REMARK    5  A    between atoms: C_19  and  C_20
REMARK    6  A    between atoms: C_21  and  C_22
REMARK                            x       y       z     vdW  Elec       q    Type
REMARK                         _______ _______ _______ _____ _____    ______ ____
ROOT
ATOM      4  N   UNL     1      -3.755  -9.637  11.581  0.00  0.00    -0.288 NA
ATOM     10  C   UNL     1      -2.976 -10.670  12.292  0.00  0.00    +0.146 C 
ATOM     11  C   UNL     1      -2.979  -9.279  10.394  0.00  0.00    +0.085 C 
ATOM     12  C   UNL     1      -1.511 -10.380  11.920  0.00  0.00    +0.030 C 
ATOM     15  C   UNL     1      -1.571  -9.210  10.950  0.00  0.00    +0.017 C 
ENDROOT
BRANCH   4   9
ATOM      2  O   UNL     1      -8.442  -9.500   7.602  0.00  0.00    -0.276 OA
ATOM      5  N   UNL     1      -7.560  -9.715   9.741  0.00  0.00    -0.302 N 
ATOM      9  C   UNL     1      -5.110 -10.069  11.242  0.00  0.00    +0.060 C 
ATOM     13  C   UNL     1      -5.195 -10.412   9.750  0.00  0.00    +0.038 C 
ATOM     14  C   UNL     1      -6.118  -8.969  11.598  0.00  0.00    +0.038 C 
ATOM     16  C   UNL     1      -6.625 -10.774   9.354  0.00  0.00    +0.109 C 
ATOM     17  C   UNL     1      -7.531  -9.359  11.165  0.00  0.00    +0.109 C 
ATOM     19  C   UNL     1      -8.411  -9.159   8.787  0.00  0.00    +0.212 C 
ATOM     20  C   UNL     1      -9.341  -8.072   9.264  0.00  0.00    +0.109 C 
ENDBRANCH   4   9
BRANCH  10  18
ATOM      1  O   UNL     1      -2.113 -10.542  14.575  0.00  0.00    -0.336 OA
ATOM      6  N   UNL     1      -4.342 -10.727  14.450  0.00  0.00    -0.190 NA
ATOM      7  N   UNL     1      -2.578 -10.547  15.896  0.00  0.00    -0.056 NA
ATOM     18  C   UNL     1      -3.215 -10.652  13.788  0.00  0.00    +0.245 A 
ATOM     21  C   UNL     1      -3.900 -10.659  15.740  0.00  0.00    +0.204 A 
BRANCH  21  22
ATOM      8  N   UNL     1      -6.974 -10.148  17.770  0.00  0.00    -0.221 NA
ATOM     22  C   UNL     1      -4.808 -10.704  16.849  0.00  0.00    +0.041 A 
ATOM     23  C   UNL     1      -4.447 -11.311  18.046  0.00  0.00    +0.018 A 
ATOM     24  C   UNL     1      -6.072 -10.141  16.763  0.00  0.00    +0.126 A 
ATOM     25  C   UNL     1      -5.347 -11.338  19.105  0.00  0.00    +0.068 A 
ATOM     26  C   UNL     1      -6.588 -10.748  18.918  0.00  0.00    +0.214 A 
BRANCH  26   3
ATOM      3  O   UNL     1      -7.493 -10.762  19.947  0.00  0.00    -0.480 OA
ATOM     27  C   UNL     1      -8.798 -11.238  19.643  0.00  0.00    +0.279 C 
ENDBRANCH  26   3
ENDBRANCH  21  22
ENDBRANCH  10  18
TORSDOF 4
ENDMDL
MODEL 3
REMARK VINA RESULT:      -7.0      4.766      7.992
REMARK  Name = 45783684
REMARK  6 active torsions:
REMARK  status: ('A' for Active; 'I' for Inactive)
REMARK    1  A    between atoms: O_3  and  C_26
REMARK    2  A    between atoms: O_3  and  C_27
REMARK    3  A    between atoms: N_4  and  C_9
REMARK    4  A    between atoms: C_10  and  C_18
REMARK    5  A    between atoms: C_19  and  C_20
REMARK    6  A    between atoms: C_21  and  C_22
REMARK                            x       y       z     vdW  Elec       q    Type
REMARK                         _______ _______ _______ _____ _____    ______ ____
ROOT
ATOM      4  N   UNL     1      12.920   7.983  21.301  0.00  0.00    -0.288 NA
ATOM     10  C   UNL     1      11.871   8.851  20.732  0.00  0.00    +0.146 C 
ATOM     11  C   UNL     1      12.408   6.614  21.228  0.00  0.00    +0.085 C 
ATOM     12  C   UNL     1      10.554   8.100  20.999  0.00  0.00    +0.030 C 
ATOM     15  C   UNL     1      10.969   6.796  21.664  0.00  0.00    +0.017 C 
ENDROOT
BRANCH   4   9
ATOM      2  O   UNL     1      18.150   5.346  19.426  0.00  0.00    -0.276 OA
ATOM      5  N   UNL     1      16.900   7.175  20.125  0.00  0.00    -0.302 N 
ATOM      9  C   UNL     1      14.211   8.123  20.629  0.00  0.00    +0.060 C 
ATOM     13  C   UNL     1      14.479   6.899  19.745  0.00  0.00    +0.038 C 
ATOM     14  C   UNL     1      15.329   8.292  21.665  0.00  0.00    +0.038 C 
ATOM     16  C   UNL     1      15.865   6.980  19.107  0.00  0.00    +0.109 C 
ATOM     17  C   UNL     1      16.699   8.345  20.989  0.00  0.00    +0.109 C 
ATOM     19  C   UNL     1      17.985   6.303  20.188  0.00  0.00    +0.212 C 
ATOM     20  C   UNL     1      19.005   6.569  21.266  0.00  0.00    +0.109 C 
ENDBRANCH   4   9
BRANCH  10  18
ATOM      1  O   UNL     1      12.168  11.264  20.478  0.00  0.00    -0.336 OA
ATOM      6  N   UNL     1      11.653  10.621  22.561  0.00  0.00    -0.190 NA
ATOM      7  N   UNL     1      12.119  12.434  21.247  0.00  0.00    -0.056 NA
ATOM     18  C   UNL     1      11.881  10.243  21.328  0.00  0.00    +0.245 A 
ATOM     21  C   UNL     1      11.810  11.972  22.462  0.00  0.00    +0.204 A 
BRANCH  21  22
ATOM      8  N   UNL     1      12.363  14.795  24.820  0.00  0.00    -0.221 NA
ATOM     22  C   UNL     1      11.650  12.834  23.597  0.00  0.00    +0.041 A 
ATOM     23  C   UNL     1      10.677  12.581  24.557  0.00  0.00    +0.018 A 
ATOM     24  C   UNL     1      12.462  13.944  23.773  0.00  0.00    +0.126 A 
ATOM     25  C   UNL     1      10.545  13.433  25.648  0.00  0.00    +0.068 A 
ATOM     26  C   UNL     1      11.406  14.516  25.732  0.00  0.00    +0.214 A 
BRANCH  26   3
ATOM      3  O   UNL     1      11.296  15.371  26.798  0.00  0.00    -0.480 OA
ATOM     27  C   UNL     1      12.370  15.371  27.731  0.00  0.00    +0.279 C 
ENDBRANCH  26   3
ENDBRANCH  21  22
ENDBRANCH  10  18
TORSDOF 4
ENDMDL
MODEL 4
REMARK VINA RESULT:      -7.0      3.044      4.849
REMARK  Name = 45783684
REMARK  6 active torsions:
REMARK  status: ('A' for Active; 'I' for Inactive)
REMARK    1  A    between atoms: O_3  and  C_26
REMARK    2  A    between atoms: O_3  and  C_27
REMARK    3  A    between atoms: N_4  and  C_9
REMARK    4  A    between atoms: C_10  and  C_18
REMARK    5  A    between atoms: C_19  and  C_20
REMARK    6  A    between atoms: C_21  and  C_22
REMARK                            x       y       z     vdW  Elec       q    Type
REMARK                         _______ _______ _______ _____ _____    ______ ____
ROOT
ATOM      4  N   UNL     1      13.812  10.509  20.203  0.00  0.00    -0.288 NA
ATOM     10  C   UNL     1      13.633   9.276  19.411  0.00  0.00    +0.146 C 
ATOM     11  C   UNL     1      13.189  11.588  19.436  0.00  0.00    +0.085 C 
ATOM     12  C   UNL     1      13.562   9.757  17.950  0.00  0.00    +0.030 C 
ATOM     15  C   UNL     1      13.647  11.274  18.026  0.00  0.00    +0.017 C 
ENDROOT
BRANCH   4   9
ATOM      2  O   UNL     1       9.966  12.720  24.461  0.00  0.00    -0.276 OA
ATOM      5  N   UNL     1      11.897  11.606  23.808  0.00  0.00    -0.302 N 
ATOM      9  C   UNL     1      13.266  10.409  21.555  0.00  0.00    +0.060 C 
ATOM     13  C   UNL     1      11.755  10.669  21.532  0.00  0.00    +0.038 C 
ATOM     14  C   UNL     1      13.968  11.410  22.482  0.00  0.00    +0.038 C 
ATOM     16  C   UNL     1      11.179  10.664  22.947  0.00  0.00    +0.109 C 
ATOM     17  C   UNL     1      13.348  11.391  23.879  0.00  0.00    +0.109 C 
ATOM     19  C   UNL     1      11.191  12.582  24.509  0.00  0.00    +0.212 C 
ATOM     20  C   UNL     1      12.003  13.515  25.372  0.00  0.00    +0.109 C 
ENDBRANCH   4   9
BRANCH  10  18
ATOM      1  O   UNL     1      14.483   6.990  19.267  0.00  0.00    -0.336 OA
ATOM      6  N   UNL     1      15.930   8.448  20.158  0.00  0.00    -0.190 NA
ATOM      7  N   UNL     1      15.636   6.256  19.575  0.00  0.00    -0.056 NA
ATOM     18  C   UNL     1      14.740   8.270  19.642  0.00  0.00    +0.245 A 
ATOM     21  C   UNL     1      16.443   7.185  20.097  0.00  0.00    +0.204 A 
BRANCH  21  22
ATOM      8  N   UNL     1      19.580   7.375  22.084  0.00  0.00    -0.221 NA
ATOM     22  C   UNL     1      17.765   6.885  20.563  0.00  0.00    +0.041 A 
ATOM     23  C   UNL     1      18.513   5.863  19.990  0.00  0.00    +0.018 A 
ATOM     24  C   UNL     1      18.339   7.606  21.599  0.00  0.00    +0.126 A 
ATOM     25  C   UNL     1      19.793   5.596  20.462  0.00  0.00    +0.068 A 
ATOM     26  C   UNL     1      20.276   6.374  21.502  0.00  0.00    +0.214 A 
BRANCH  26   3
ATOM      3  O   UNL     1      21.535   6.130  21.985  0.00  0.00    -0.480 OA
ATOM     27  C   UNL     1      21.830   4.788  22.351  0.00  0.00    +0.279 C 
ENDBRANCH  26   3
ENDBRANCH  21  22
ENDBRANCH  10  18
TORSDOF 4
ENDMDL
MODEL 5
REMARK VINA RESULT:      -7.0      4.526      6.718
REMARK  Name = 45783684
REMARK  6 active torsions:
REMARK  status: ('A' for Active; 'I' for Inactive)
REMARK    1  A    between atoms: O_3  and  C_26
REMARK    2  A    between atoms: O_3  and  C_27
REMARK    3  A    between atoms: N_4  and  C_9
REMARK    4  A    between atoms: C_10  and  C_18
REMARK    5  A    between atoms: C_19  and  C_20
REMARK    6  A    between atoms: C_21  and  C_22
REMARK                            x       y       z     vdW  Elec       q    Type
REMARK                         _______ _______ _______ _____ _____    ______ ____
ROOT
ATOM      4  N   UNL     1      11.270   8.798  21.586  0.00  0.00    -0.288 NA
ATOM     10  C   UNL     1      12.303   7.884  21.058  0.00  0.00    +0.146 C 
ATOM     11  C   UNL     1      10.535   8.047  22.604  0.00  0.00    +0.085 C 
ATOM     12  C   UNL     1      11.712   6.475  21.246  0.00  0.00    +0.030 C 
ATOM     15  C   UNL     1      10.375   6.694  21.940  0.00  0.00    +0.017 C 
ENDROOT
BRANCH   4   9
ATOM      2  O   UNL     1      10.287  14.112  24.519  0.00  0.00    -0.276 OA
ATOM      5  N   UNL     1      11.450  12.769  23.021  0.00  0.00    -0.302 N 
ATOM      9  C   UNL     1      11.819  10.045  22.113  0.00  0.00    +0.060 C 
ATOM     13  C   UNL     1      11.194  10.360  23.477  0.00  0.00    +0.038 C 
ATOM     14  C   UNL     1      11.561  11.192  21.127  0.00  0.00    +0.038 C 
ATOM     16  C   UNL     1      11.682  11.708  24.003  0.00  0.00    +0.109 C 
ATOM     17  C   UNL     1      12.042  12.525  21.700  0.00  0.00    +0.109 C 
ATOM     19  C   UNL     1      10.745  13.914  23.390  0.00  0.00    +0.212 C 
ATOM     20  C   UNL     1      10.544  14.958  22.321  0.00  0.00    +0.109 C 
ENDBRANCH   4   9
BRANCH  10  18
ATOM      1  O   UNL     1      12.035   7.433  18.671  0.00  0.00    -0.336 OA
ATOM      6  N   UNL     1      13.499   9.064  19.135  0.00  0.00    -0.190 NA
ATOM      7  N   UNL     1      12.522   7.883  17.437  0.00  0.00    -0.056 NA
ATOM     18  C   UNL     1      12.662   8.181  19.618  0.00  0.00    +0.245 A 
ATOM     21  C   UNL     1      13.380   8.844  17.794  0.00  0.00    +0.204 A 
BRANCH  21  22
ATOM      8  N   UNL     1      15.002   9.812  14.590  0.00  0.00    -0.221 NA
ATOM     22  C   UNL     1      14.131   9.603  16.837  0.00  0.00    +0.041 A 
ATOM     23  C   UNL     1      14.707  10.821  17.180  0.00  0.00    +0.018 A 
ATOM     24  C   UNL     1      14.306   9.146  15.540  0.00  0.00    +0.126 A 
ATOM     25  C   UNL     1      15.431  11.534  16.232  0.00  0.00    +0.068 A 
ATOM     26  C   UNL     1      15.548  10.991  14.962  0.00  0.00    +0.214 A 
BRANCH  26   3
ATOM      3  O   UNL     1      16.256  11.675  14.009  0.00  0.00    -0.480 OA
ATOM     27  C   UNL     1      15.694  11.718  12.703  0.00  0.00    +0.279 C 
ENDBRANCH  26   3
ENDBRANCH  21  22
ENDBRANCH  10  18
TORSDOF 4
ENDMDL
MODEL 6
REMARK VINA RESULT:      -6.9      2.776      5.334
REMARK  Name = 45783684
REMARK  6 active torsions:
REMARK  status: ('A' for Active; 'I' for Inactive)
REMARK    1  A    between atoms: O_3  and  C_26
REMARK    2  A    between atoms: O_3  and  C_27
REMARK    3  A    between atoms: N_4  and  C_9
REMARK    4  A    between atoms: C_10  and  C_18
REMARK    5  A    between atoms: C_19  and  C_20
REMARK    6  A    between atoms: C_21  and  C_22
REMARK                            x       y       z     vdW  Elec       q    Type
REMARK                         _______ _______ _______ _____ _____    ______ ____
ROOT
ATOM      4  N   UNL     1      17.239   8.738  21.855  0.00  0.00    -0.288 NA
ATOM     10  C   UNL     1      18.428   8.631  20.986  0.00  0.00    +0.146 C 
ATOM     11  C   UNL     1      16.824  10.140  21.817  0.00  0.00    +0.085 C 
ATOM     12  C   UNL     1      19.078  10.025  21.040  0.00  0.00    +0.030 C 
ATOM     15  C   UNL     1      18.153  10.862  21.911  0.00  0.00    +0.017 C 
ENDROOT
BRANCH   4   9
ATOM      2  O   UNL     1      12.567   7.512  18.048  0.00  0.00    -0.276 OA
ATOM      5  N   UNL     1      13.653   7.353  20.097  0.00  0.00    -0.302 N 
ATOM      9  C   UNL     1      16.158   7.834  21.466  0.00  0.00    +0.060 C 
ATOM     13  C   UNL     1      16.084   7.729  19.938  0.00  0.00    +0.038 C 
ATOM     14  C   UNL     1      14.823   8.334  22.034  0.00  0.00    +0.038 C 
ATOM     16  C   UNL     1      14.901   6.865  19.507  0.00  0.00    +0.109 C 
ATOM     17  C   UNL     1      13.664   7.457  21.561  0.00  0.00    +0.109 C 
ATOM     19  C   UNL     1      12.564   7.641  19.275  0.00  0.00    +0.212 C 
ATOM     20  C   UNL     1      11.317   8.143  19.959  0.00  0.00    +0.109 C 
ENDBRANCH   4   9
BRANCH  10  18
ATOM      1  O   UNL     1      19.333   7.185  22.735  0.00  0.00    -0.336 OA
ATOM      6  N   UNL     1      20.231   6.844  20.712  0.00  0.00    -0.190 NA
ATOM      7  N   UNL     1      20.277   6.162  22.895  0.00  0.00    -0.056 NA
ATOM     18  C   UNL     1      19.370   7.529  21.421  0.00  0.00    +0.245 A 
ATOM     21  C   UNL     1      20.763   6.018  21.659  0.00  0.00    +0.204 A 
BRANCH  21  22
ATOM      8  N   UNL     1      23.836   4.538  20.177  0.00  0.00    -0.221 NA
ATOM     22  C   UNL     1      21.779   5.058  21.337  0.00  0.00    +0.041 A 
ATOM     23  C   UNL     1      21.722   3.761  21.832  0.00  0.00    +0.018 A 
ATOM     24  C   UNL     1      22.847   5.394  20.520  0.00  0.00    +0.126 A 
ATOM     25  C   UNL     1      22.720   2.851  21.502  0.00  0.00    +0.068 A 
ATOM     26  C   UNL     1      23.747   3.286  20.677  0.00  0.00    +0.214 A 
BRANCH  26   3
ATOM      3  O   UNL     1      24.743   2.408  20.338  0.00  0.00    -0.480 OA
ATOM     27  C   UNL     1      25.340   1.676  21.401  0.00  0.00    +0.279 C 
ENDBRANCH  26   3
ENDBRANCH  21  22
ENDBRANCH  10  18
TORSDOF 4
ENDMDL
MODEL 7
REMARK VINA RESULT:      -6.7     13.886     17.401
REMARK  Name = 45783684
REMARK  6 active torsions:
REMARK  status: ('A' for Active; 'I' for Inactive)
REMARK    1  A    between atoms: O_3  and  C_26
REMARK    2  A    between atoms: O_3  and  C_27
REMARK    3  A    between atoms: N_4  and  C_9
REMARK    4  A    between atoms: C_10  and  C_18
REMARK    5  A    between atoms: C_19  and  C_20
REMARK    6  A    between atoms: C_21  and  C_22
REMARK                            x       y       z     vdW  Elec       q    Type
REMARK                         _______ _______ _______ _____ _____    ______ ____
ROOT
ATOM      4  N   UNL     1       9.225   7.148   6.300  0.00  0.00    -0.288 NA
ATOM     10  C   UNL     1      10.584   6.586   6.172  0.00  0.00    +0.146 C 
ATOM     11  C   UNL     1       9.051   7.493   7.711  0.00  0.00    +0.085 C 
ATOM     12  C   UNL     1      10.886   5.973   7.552  0.00  0.00    +0.030 C 
ATOM     15  C   UNL     1       9.666   6.294   8.404  0.00  0.00    +0.017 C 
ENDROOT
BRANCH   4   9
ATOM      2  O   UNL     1       5.834  12.101   4.965  0.00  0.00    -0.276 OA
ATOM      5  N   UNL     1       7.229  10.339   4.376  0.00  0.00    -0.302 N 
ATOM      9  C   UNL     1       8.989   8.292   5.421  0.00  0.00    +0.060 C 
ATOM     13  C   UNL     1       8.605   9.522   6.252  0.00  0.00    +0.038 C 
ATOM     14  C   UNL     1       7.884   7.961   4.410  0.00  0.00    +0.038 C 
ATOM     16  C   UNL     1       8.262  10.705   5.348  0.00  0.00    +0.109 C 
ATOM     17  C   UNL     1       7.554   9.175   3.542  0.00  0.00    +0.109 C 
ATOM     19  C   UNL     1       6.068  11.104   4.277  0.00  0.00    +0.212 C 
ATOM     20  C   UNL     1       5.052  10.660   3.255  0.00  0.00    +0.109 C 
ENDBRANCH   4   9
BRANCH  10  18
ATOM      1  O   UNL     1      10.204   4.335   5.299  0.00  0.00    -0.336 OA
ATOM      6  N   UNL     1      11.198   5.722   3.848  0.00  0.00    -0.190 NA
ATOM      7  N   UNL     1      10.414   3.592   4.131  0.00  0.00    -0.056 NA
ATOM     18  C   UNL     1      10.693   5.578   5.048  0.00  0.00    +0.245 A 
ATOM     21  C   UNL     1      11.004   4.478   3.323  0.00  0.00    +0.204 A 
BRANCH  21  22
ATOM      8  N   UNL     1      10.865   4.031  -0.366  0.00  0.00    -0.221 NA
ATOM     22  C   UNL     1      11.410   4.153   1.986  0.00  0.00    +0.041 A 
ATOM     23  C   UNL     1      12.684   3.662   1.724  0.00  0.00    +0.018 A 
ATOM     24  C   UNL     1      10.545   4.318   0.916  0.00  0.00    +0.126 A 
ATOM     25  C   UNL     1      13.050   3.354   0.418  0.00  0.00    +0.068 A 
ATOM     26  C   UNL     1      12.111   3.555  -0.582  0.00  0.00    +0.214 A 
BRANCH  26   3
ATOM      3  O   UNL     1      12.448   3.260  -1.877  0.00  0.00    -0.480 OA
ATOM     27  C   UNL     1      11.884   2.078  -2.431  0.00  0.00    +0.279 C 
ENDBRANCH  26   3
ENDBRANCH  21  22
ENDBRANCH  10  18
TORSDOF 4
ENDMDL
MODEL 8
REMARK VINA RESULT:      -6.5     26.620     29.552
REMARK  Name = 45783684
REMARK  6 active torsions:
REMARK  status: ('A' for Active; 'I' for Inactive)
REMARK    1  A    between atoms: O_3  and  C_26
REMARK    2  A    between atoms: O_3  and  C_27
REMARK    3  A    between atoms: N_4  and  C_9
REMARK    4  A    between atoms: C_10  and  C_18
REMARK    5  A    between atoms: C_19  and  C_20
REMARK    6  A    between atoms: C_21  and  C_22
REMARK                            x       y       z     vdW  Elec       q    Type
REMARK                         _______ _______ _______ _____ _____    ______ ____
ROOT
ATOM      4  N   UNL     1      -3.135 -10.499  14.276  0.00  0.00    -0.288 NA
ATOM     10  C   UNL     1      -3.169 -11.286  15.525  0.00  0.00    +0.146 C 
ATOM     11  C   UNL     1      -1.726 -10.219  14.002  0.00  0.00    +0.085 C 
ATOM     12  C   UNL     1      -1.912 -10.848  16.298  0.00  0.00    +0.030 C 
ATOM     15  C   UNL     1      -1.205  -9.862  15.379  0.00  0.00    +0.017 C 
ENDROOT
BRANCH   4   9
ATOM      2  O   UNL     1      -4.337 -10.632   8.247  0.00  0.00    -0.276 OA
ATOM      5  N   UNL     1      -4.852 -11.110  10.462  0.00  0.00    -0.302 N 
ATOM      9  C   UNL     1      -3.790 -11.170  13.155  0.00  0.00    +0.060 C 
ATOM     13  C   UNL     1      -2.870 -11.163  11.928  0.00  0.00    +0.038 C 
ATOM     14  C   UNL     1      -5.121 -10.478  12.831  0.00  0.00    +0.038 C 
ATOM     16  C   UNL     1      -3.572 -11.775  10.717  0.00  0.00    +0.109 C 
ATOM     17  C   UNL     1      -5.778 -11.103  11.601  0.00  0.00    +0.109 C 
ATOM     19  C   UNL     1      -5.119 -10.582   9.200  0.00  0.00    +0.212 C 
ATOM     20  C   UNL     1      -6.458  -9.911   9.019  0.00  0.00    +0.109 C 
ENDBRANCH   4   9
BRANCH  10  18
ATOM      1  O   UNL     1      -4.954  -9.813  16.309  0.00  0.00    -0.336 OA
ATOM      6  N   UNL     1      -5.143 -11.931  17.011  0.00  0.00    -0.190 NA
ATOM      7  N   UNL     1      -6.115  -9.862  17.092  0.00  0.00    -0.056 NA
ATOM     18  C   UNL     1      -4.444 -11.072  16.313  0.00  0.00    +0.245 A 
ATOM     21  C   UNL     1      -6.158 -11.143  17.470  0.00  0.00    +0.204 A 
BRANCH  21  22
ATOM      8  N   UNL     1      -8.908 -11.273  19.970  0.00  0.00    -0.221 NA
ATOM     22  C   UNL     1      -7.201 -11.667  18.303  0.00  0.00    +0.041 A 
ATOM     23  C   UNL     1      -7.527 -13.018  18.279  0.00  0.00    +0.018 A 
ATOM     24  C   UNL     1      -7.915 -10.843  19.159  0.00  0.00    +0.126 A 
ATOM     25  C   UNL     1      -8.541 -13.499  19.099  0.00  0.00    +0.068 A 
ATOM     26  C   UNL     1      -9.196 -12.592  19.919  0.00  0.00    +0.214 A 
BRANCH  26   3
ATOM      3  O   UNL     1     -10.200 -13.041  20.737  0.00  0.00    -0.480 OA
ATOM     27  C   UNL     1     -11.509 -12.554  20.468  0.00  0.00    +0.279 C 
ENDBRANCH  26   3
ENDBRANCH  21  22
ENDBRANCH  10  18
TORSDOF 4
ENDMDL
MODEL 9
REMARK VINA RESULT:      -6.5     16.681     20.091
REMARK  Name = 45783684
REMARK  6 active torsions:
REMARK  status: ('A' for Active; 'I' for Inactive)
REMARK    1  A    between atoms: O_3  and  C_26
REMARK    2  A    between atoms: O_3  and  C_27
REMARK    3  A    between atoms: N_4  and  C_9
REMARK    4  A    between atoms: C_10  and  C_18
REMARK    5  A    between atoms: C_19  and  C_20
REMARK    6  A    between atoms: C_21  and  C_22
REMARK                            x       y       z     vdW  Elec       q    Type
REMARK                         _______ _______ _______ _____ _____    ______ ____
ROOT
ATOM      4  N   UNL     1      12.866   4.474  -1.139  0.00  0.00    -0.288 NA
ATOM     10  C   UNL     1      13.174   3.920   0.194  0.00  0.00    +0.146 C 
ATOM     11  C   UNL     1      13.988   4.113  -2.006  0.00  0.00    +0.085 C 
ATOM     12  C   UNL     1      14.712   3.886   0.258  0.00  0.00    +0.030 C 
ATOM     15  C   UNL     1      15.177   4.379  -1.104  0.00  0.00    +0.017 C 
ENDROOT
BRANCH   4   9
ATOM      2  O   UNL     1       9.666   2.389  -5.959  0.00  0.00    -0.276 OA
ATOM      5  N   UNL     1       9.840   3.501  -3.926  0.00  0.00    -0.302 N 
ATOM      9  C   UNL     1      11.587   4.010  -1.674  0.00  0.00    +0.060 C 
ATOM     13  C   UNL     1      11.811   2.818  -2.612  0.00  0.00    +0.038 C 
ATOM     14  C   UNL     1      10.881   5.152  -2.417  0.00  0.00    +0.038 C 
ATOM     16  C   UNL     1      10.498   2.377  -3.257  0.00  0.00    +0.109 C 
ATOM     17  C   UNL     1       9.587   4.665  -3.067  0.00  0.00    +0.109 C 
ATOM     19  C   UNL     1       9.474   3.392  -5.266  0.00  0.00    +0.212 C 
ATOM     20  C   UNL     1       8.803   4.595  -5.883  0.00  0.00    +0.109 C 
ENDBRANCH   4   9
BRANCH  10  18
ATOM      1  O   UNL     1      12.449   6.068   1.107  0.00  0.00    -0.336 OA
ATOM      6  N   UNL     1      12.112   4.331   2.481  0.00  0.00    -0.190 NA
ATOM      7  N   UNL     1      11.863   6.595   2.265  0.00  0.00    -0.056 NA
ATOM     18  C   UNL     1      12.560   4.730   1.317  0.00  0.00    +0.245 A 
ATOM     21  C   UNL     1      11.695   5.510   3.027  0.00  0.00    +0.204 A 
BRANCH  21  22
ATOM      8  N   UNL     1      10.944   6.685   6.475  0.00  0.00    -0.221 NA
ATOM     22  C   UNL     1      11.112   5.569   4.336  0.00  0.00    +0.041 A 
ATOM     23  C   UNL     1      10.186   4.619   4.751  0.00  0.00    +0.018 A 
ATOM     24  C   UNL     1      11.455   6.573   5.228  0.00  0.00    +0.126 A 
ATOM     25  C   UNL     1       9.639   4.699   6.027  0.00  0.00    +0.068 A 
ATOM     26  C   UNL     1      10.047   5.743   6.843  0.00  0.00    +0.214 A 
BRANCH  26   3
ATOM      3  O   UNL     1       9.522   5.845   8.104  0.00  0.00    -0.480 OA
ATOM     27  C   UNL     1       9.515   4.661   8.891  0.00  0.00    +0.279 C 
ENDBRANCH  26   3
ENDBRANCH  21  22
ENDBRANCH  10  18
TORSDOF 4
ENDMDL
MODEL 10
REMARK VINA RESULT:      -6.4     26.540     29.338
REMARK  Name = 45783684
REMARK  6 active torsions:
REMARK  status: ('A' for Active; 'I' for Inactive)
REMARK    1  A    between atoms: O_3  and  C_26
REMARK    2  A    between atoms: O_3  and  C_27
REMARK    3  A    between atoms: N_4  and  C_9
REMARK    4  A    between atoms: C_10  and  C_18
REMARK    5  A    between atoms: C_19  and  C_20
REMARK    6  A    between atoms: C_21  and  C_22
REMARK                            x       y       z     vdW  Elec       q    Type
REMARK                         _______ _______ _______ _____ _____    ______ ____
ROOT
ATOM      4  N   UNL     1      -8.698 -11.039  17.826  0.00  0.00    -0.288 NA
ATOM     10  C   UNL     1      -7.598 -11.005  18.812  0.00  0.00    +0.146 C 
ATOM     11  C   UNL     1      -9.831 -11.680  18.494  0.00  0.00    +0.085 C 
ATOM     12  C   UNL     1      -7.859 -12.213  19.730  0.00  0.00    +0.030 C 
ATOM     15  C   UNL     1      -9.157 -12.824  19.223  0.00  0.00    +0.017 C 
ENDROOT
BRANCH   4   9
ATOM      2  O   UNL     1     -13.071  -7.137  15.963  0.00  0.00    -0.276 OA
ATOM      5  N   UNL     1     -10.897  -7.959  15.943  0.00  0.00    -0.302 N 
ATOM      9  C   UNL     1      -9.043  -9.718  17.304  0.00  0.00    +0.060 C 
ATOM     13  C   UNL     1     -10.309  -9.194  17.994  0.00  0.00    +0.038 C 
ATOM     14  C   UNL     1      -9.252  -9.790  15.786  0.00  0.00    +0.038 C 
ATOM     16  C   UNL     1     -10.743  -7.857  17.396  0.00  0.00    +0.109 C 
ATOM     17  C   UNL     1      -9.707  -8.441  15.231  0.00  0.00    +0.109 C 
ATOM     19  C   UNL     1     -12.095  -7.574  15.345  0.00  0.00    +0.212 C 
ATOM     20  C   UNL     1     -12.177  -7.712  13.845  0.00  0.00    +0.109 C 
ENDBRANCH   4   9
BRANCH  10  18
ATOM      1  O   UNL     1      -5.201 -11.462  18.944  0.00  0.00    -0.336 OA
ATOM      6  N   UNL     1      -5.886 -10.746  16.934  0.00  0.00    -0.190 NA
ATOM      7  N   UNL     1      -4.059 -11.421  18.134  0.00  0.00    -0.056 NA
ATOM     18  C   UNL     1      -6.232 -11.050  18.160  0.00  0.00    +0.245 A 
ATOM     21  C   UNL     1      -4.543 -10.989  16.966  0.00  0.00    +0.204 A 
BRANCH  21  22
ATOM      8  N   UNL     1      -3.539 -10.558  13.412  0.00  0.00    -0.221 NA
ATOM     22  C   UNL     1      -3.715 -10.793  15.812  0.00  0.00    +0.041 A 
ATOM     23  C   UNL     1      -2.338 -10.650  15.934  0.00  0.00    +0.018 A 
ATOM     24  C   UNL     1      -4.262 -10.740  14.539  0.00  0.00    +0.126 A 
ATOM     25  C   UNL     1      -1.560 -10.462  14.798  0.00  0.00    +0.068 A 
ATOM     26  C   UNL     1      -2.203 -10.424  13.570  0.00  0.00    +0.214 A 
BRANCH  26   3
ATOM      3  O   UNL     1      -1.458 -10.239  12.435  0.00  0.00    -0.480 OA
ATOM     27  C   UNL     1      -2.172  -9.922  11.246  0.00  0.00    +0.279 C 
ENDBRANCH  26   3
ENDBRANCH  21  22
ENDBRANCH  10  18
TORSDOF 4
ENDMDL
