REMARK  Name = 11941436
REMARK  7 active torsions:
REMARK  status: ('A' for Active; 'I' for Inactive)
REMARK    1  A    between atoms: O_4  and  C_28
REMARK    2  A    between atoms: O_4  and  C_33
REMARK    3  A    between atoms: O_5  and  C_32
REMARK    4  A    between atoms: O_5  and  C_34
REMARK    5  A    between atoms: N_7  and  C_9
REMARK    6  A    between atoms: C_12  and  C_18
REMARK    7  A    between atoms: C_25  and  C_27
REMARK                            x       y       z     vdW  Elec       q    Type
REMARK                         _______ _______ _______ _____ _____    ______ ____
ROOT
ATOM      2  O   UNL     1       3.248   3.192   1.627  0.00  0.00    -0.273 OA
ATOM      3  O   UNL     1      -0.075   2.203  -2.340  0.00  0.00    -0.270 OA
ATOM      6  N   UNL     1       1.833   1.957  -1.080  0.00  0.00    -0.284 N 
ATOM      8  N   UNL     1       1.041   2.632   1.671  0.00  0.00    -0.283 N 
ATOM      9  C   UNL     1       3.995   1.332  -0.354  0.00  0.00    +0.104 C 
ATOM     10  C   UNL     1       2.534   1.473   0.094  0.00  0.00    +0.183 C 
ATOM     11  C   UNL     1       4.121   2.355  -1.485  0.00  0.00    +0.043 C 
ATOM     13  C   UNL     1       2.754   2.313  -2.150  0.00  0.00    +0.111 C 
ATOM     19  C   UNL     1       2.319   2.529   1.162  0.00  0.00    +0.240 C 
ATOM     20  C   UNL     1       0.468   1.936  -1.268  0.00  0.00    +0.249 C 
ATOM     21  C   UNL     1      -0.393   1.596  -0.105  0.00  0.00    +0.059 A 
ATOM     22  C   UNL     1      -0.141   2.009   1.214  0.00  0.00    +0.046 A 
ATOM     23  C   UNL     1      -1.613   0.965  -0.410  0.00  0.00    +0.023 A 
ATOM     24  C   UNL     1      -1.146   1.837   2.182  0.00  0.00    +0.024 A 
ATOM     25  C   UNL     1      -2.579   0.760   0.574  0.00  0.00    -0.014 A 
ATOM     26  C   UNL     1      -2.350   1.208   1.868  0.00  0.00    +0.010 A 
ATOM     36  H   UNL     1       0.958   3.161   2.536  0.00  0.00    +0.155 HD
ENDROOT
BRANCH  25  27
ATOM     27  C   UNL     1      -3.825   0.105   0.242  0.00  0.00    +0.024 A 
ATOM     28  C   UNL     1      -3.961  -1.280   0.360  0.00  0.00    +0.131 A 
ATOM     29  C   UNL     1      -4.903   0.874  -0.201  0.00  0.00    +0.016 A 
ATOM     30  C   UNL     1      -5.171  -1.893   0.035  0.00  0.00    +0.091 A 
ATOM     31  C   UNL     1      -6.113   0.260  -0.525  0.00  0.00    +0.046 A 
ATOM     32  C   UNL     1      -6.247  -1.123  -0.407  0.00  0.00    +0.124 A 
BRANCH  28   4
ATOM      4  O   UNL     1      -2.926  -2.057   0.790  0.00  0.00    -0.494 OA
ATOM     33  C   UNL     1      -3.163  -3.460   0.877  0.00  0.00    +0.277 C 
ENDBRANCH  28   4
BRANCH  32   5
ATOM      5  O   UNL     1      -7.428  -1.722  -0.724  0.00  0.00    -0.495 OA
ATOM     34  C   UNL     1      -8.486  -0.875  -1.169  0.00  0.00    +0.277 C 
ENDBRANCH  32   5
ENDBRANCH  25  27
BRANCH   9   7
ATOM      1  O   UNL     1       5.059  -0.898   1.170  0.00  0.00    -0.276 OA
ATOM      7  N   UNL     1       4.264  -0.007  -0.828  0.00  0.00    -0.310 N 
ATOM     18  C   UNL     1       4.774  -1.008  -0.019  0.00  0.00    +0.216 C 
ATOM     35  H   UNL     1       4.003  -0.233  -1.783  0.00  0.00    +0.149 HD
BRANCH  18  12
ATOM     12  C   UNL     1       4.933  -2.304  -0.754  0.00  0.00    +0.075 C 
ATOM     14  C   UNL     1       3.659  -3.147  -0.625  0.00  0.00    +0.013 C 
ATOM     15  C   UNL     1       6.061  -3.137  -0.142  0.00  0.00    +0.013 C 
ATOM     16  C   UNL     1       4.102  -4.483  -0.035  0.00  0.00    +0.001 C 
ATOM     17  C   UNL     1       5.354  -4.144   0.753  0.00  0.00    +0.001 C 
ENDBRANCH  18  12
ENDBRANCH   9   7
TORSDOF 5
