MODEL 1
REMARK VINA RESULT:      -7.8      0.000      0.000
REMARK  Name = 28959376
REMARK  7 active torsions:
REMARK  status: ('A' for Active; 'I' for Inactive)
REMARK    1  A    between atoms: N_5  and  C_15
REMARK    2  A    between atoms: C_9  and  C_16
REMARK    3  A    between atoms: C_10  and  C_15
REMARK    4  A    between atoms: C_18  and  C_22
REMARK    5  A    between atoms: C_19  and  C_21
REMARK    6  A    between atoms: C_20  and  C_23
REMARK    7  A    between atoms: C_21  and  C_24
REMARK                            x       y       z     vdW  Elec       q    Type
REMARK                         _______ _______ _______ _____ _____    ______ ____
ROOT
ATOM      4  N   UNL     1      12.192  11.639  24.221  0.00  0.00    -0.297 NA
ATOM      8  C   UNL     1      11.548  12.005  21.724  0.00  0.00    +0.002 C 
ATOM      9  C   UNL     1      11.147  10.576  22.186  0.00  0.00    +0.055 C 
ATOM     10  C   UNL     1      13.356  12.180  23.470  0.00  0.00    +0.074 C 
ATOM     11  C   UNL     1      13.061  12.208  21.954  0.00  0.00    +0.024 C 
ATOM     12  C   UNL     1      10.810  12.996  22.650  0.00  0.00    +0.019 C 
ATOM     13  C   UNL     1      11.740  10.366  23.608  0.00  0.00    +0.094 C 
ATOM     14  C   UNL     1      11.087  12.622  24.116  0.00  0.00    +0.085 C 
ENDROOT
BRANCH   9  16
ATOM      6  N   UNL     1      11.190   8.174  21.732  0.00  0.00    -0.237 NA
ATOM      7  N   UNL     1      11.962   7.277  19.633  0.00  0.00    -0.229 NA
ATOM     16  C   UNL     1      11.446   9.409  21.256  0.00  0.00    +0.050 A 
ATOM     17  C   UNL     1      11.953   9.656  19.996  0.00  0.00    +0.055 A 
ATOM     18  C   UNL     1      12.195   8.541  19.221  0.00  0.00    +0.110 A 
ATOM     20  C   UNL     1      11.467   7.168  20.880  0.00  0.00    +0.127 A 
ATOM     23  C   UNL     1      11.196   5.786  21.371  0.00  0.00    +0.088 C 
BRANCH  18  22
ATOM      3  O   UNL     1      11.896   9.227  16.978  0.00  0.00    -0.461 OA
ATOM     22  C   UNL     1      12.726   8.653  17.888  0.00  0.00    +0.153 A 
ATOM     25  C   UNL     1      13.919   8.302  17.302  0.00  0.00    +0.051 A 
ATOM     26  C   UNL     1      13.817   8.685  15.943  0.00  0.00    +0.042 A 
ATOM     27  C   UNL     1      12.568   9.242  15.796  0.00  0.00    +0.196 A 
ENDBRANCH  18  22
ENDBRANCH   9  16
BRANCH  10  15
ATOM     15  C   UNL     1      14.653  11.431  23.784  0.00  0.00    +0.123 C 
BRANCH  15   5
ATOM      2  O   UNL     1      15.733  10.185  21.426  0.00  0.00    -0.275 OA
ATOM      5  N   UNL     1      14.547  10.052  23.419  0.00  0.00    -0.314 N 
ATOM     19  C   UNL     1      15.104   9.528  22.252  0.00  0.00    +0.218 C 
ATOM     31  H   UNL     1      14.031   9.436  24.040  0.00  0.00    +0.149 HD
BRANCH  19  21
ATOM     21  C   UNL     1      14.847   8.040  22.118  0.00  0.00    +0.138 C 
BRANCH  21  24
ATOM      1  S   UNL     1      17.459   7.487  21.336  0.00  0.00    -0.101 S 
ATOM     24  C   UNL     1      15.763   7.363  21.133  0.00  0.00    -0.001 A 
ATOM     28  C   UNL     1      15.429   6.615  20.025  0.00  0.00    +0.011 A 
ATOM     29  C   UNL     1      16.580   6.137  19.335  0.00  0.00    +0.008 A 
ATOM     30  C   UNL     1      17.751   6.538  19.940  0.00  0.00    +0.045 A 
ENDBRANCH  21  24
ENDBRANCH  19  21
ENDBRANCH  15   5
ENDBRANCH  10  15
TORSDOF 6
ENDMDL
MODEL 2
REMARK VINA RESULT:      -7.3      2.040      3.925
REMARK  Name = 28959376
REMARK  7 active torsions:
REMARK  status: ('A' for Active; 'I' for Inactive)
REMARK    1  A    between atoms: N_5  and  C_15
REMARK    2  A    between atoms: C_9  and  C_16
REMARK    3  A    between atoms: C_10  and  C_15
REMARK    4  A    between atoms: C_18  and  C_22
REMARK    5  A    between atoms: C_19  and  C_21
REMARK    6  A    between atoms: C_20  and  C_23
REMARK    7  A    between atoms: C_21  and  C_24
REMARK                            x       y       z     vdW  Elec       q    Type
REMARK                         _______ _______ _______ _____ _____    ______ ____
ROOT
ATOM      4  N   UNL     1      13.199  13.426  22.883  0.00  0.00    -0.297 NA
ATOM      8  C   UNL     1      11.245  11.819  22.267  0.00  0.00    +0.002 C 
ATOM      9  C   UNL     1      12.366  11.049  23.018  0.00  0.00    +0.055 C 
ATOM     10  C   UNL     1      12.851  13.578  21.445  0.00  0.00    +0.074 C 
ATOM     11  C   UNL     1      11.842  12.492  21.012  0.00  0.00    +0.024 C 
ATOM     12  C   UNL     1      10.773  12.949  23.207  0.00  0.00    +0.019 C 
ATOM     13  C   UNL     1      13.572  12.019  23.170  0.00  0.00    +0.094 C 
ATOM     14  C   UNL     1      11.994  13.758  23.679  0.00  0.00    +0.085 C 
ENDROOT
BRANCH   9  16
ATOM      6  N   UNL     1      11.795   8.802  22.239  0.00  0.00    -0.237 NA
ATOM      7  N   UNL     1      13.473   7.226  21.527  0.00  0.00    -0.229 NA
ATOM     16  C   UNL     1      12.784   9.686  22.485  0.00  0.00    +0.050 A 
ATOM     17  C   UNL     1      14.122   9.418  22.279  0.00  0.00    +0.055 A 
ATOM     18  C   UNL     1      14.410   8.158  21.794  0.00  0.00    +0.110 A 
ATOM     20  C   UNL     1      12.205   7.609  21.768  0.00  0.00    +0.127 A 
ATOM     23  C   UNL     1      11.140   6.604  21.483  0.00  0.00    +0.088 C 
BRANCH  18  22
ATOM      3  O   UNL     1      16.702   8.722  21.643  0.00  0.00    -0.461 OA
ATOM     22  C   UNL     1      15.764   7.744  21.537  0.00  0.00    +0.153 A 
ATOM     25  C   UNL     1      16.349   6.547  21.196  0.00  0.00    +0.051 A 
ATOM     26  C   UNL     1      17.736   6.806  21.086  0.00  0.00    +0.042 A 
ATOM     27  C   UNL     1      17.899   8.143  21.367  0.00  0.00    +0.196 A 
ENDBRANCH  18  22
ENDBRANCH   9  16
BRANCH  10  15
ATOM     15  C   UNL     1      14.088  13.597  20.544  0.00  0.00    +0.123 C 
BRANCH  15   5
ATOM      2  O   UNL     1      14.468  12.576  17.881  0.00  0.00    -0.275 OA
ATOM      5  N   UNL     1      14.479  12.269  20.184  0.00  0.00    -0.314 N 
ATOM     19  C   UNL     1      14.641  11.856  18.861  0.00  0.00    +0.218 C 
ATOM     31  H   UNL     1      14.631  11.600  20.933  0.00  0.00    +0.149 HD
BRANCH  19  21
ATOM     21  C   UNL     1      15.065  10.403  18.768  0.00  0.00    +0.138 C 
BRANCH  21  24
ATOM      1  S   UNL     1      14.236   7.887  17.920  0.00  0.00    -0.101 S 
ATOM     24  C   UNL     1      13.917   9.463  18.510  0.00  0.00    -0.001 A 
ATOM     28  C   UNL     1      12.569   9.685  18.685  0.00  0.00    +0.011 A 
ATOM     29  C   UNL     1      11.788   8.549  18.331  0.00  0.00    +0.008 A 
ATOM     30  C   UNL     1      12.567   7.499  17.897  0.00  0.00    +0.045 A 
ENDBRANCH  21  24
ENDBRANCH  19  21
ENDBRANCH  15   5
ENDBRANCH  10  15
TORSDOF 6
ENDMDL
MODEL 3
REMARK VINA RESULT:      -7.1     27.947     30.476
REMARK  Name = 28959376
REMARK  7 active torsions:
REMARK  status: ('A' for Active; 'I' for Inactive)
REMARK    1  A    between atoms: N_5  and  C_15
REMARK    2  A    between atoms: C_9  and  C_16
REMARK    3  A    between atoms: C_10  and  C_15
REMARK    4  A    between atoms: C_18  and  C_22
REMARK    5  A    between atoms: C_19  and  C_21
REMARK    6  A    between atoms: C_20  and  C_23
REMARK    7  A    between atoms: C_21  and  C_24
REMARK                            x       y       z     vdW  Elec       q    Type
REMARK                         _______ _______ _______ _____ _____    ______ ____
ROOT
ATOM      4  N   UNL     1     -18.410   3.180  26.102  0.00  0.00    -0.297 NA
ATOM      8  C   UNL     1     -17.175   0.906  26.393  0.00  0.00    +0.002 C 
ATOM      9  C   UNL     1     -17.373   1.598  27.770  0.00  0.00    +0.055 C 
ATOM     10  C   UNL     1     -17.267   3.099  25.156  0.00  0.00    +0.074 C 
ATOM     11  C   UNL     1     -16.401   1.856  25.453  0.00  0.00    +0.024 C 
ATOM     12  C   UNL     1     -18.581   0.713  25.785  0.00  0.00    +0.019 C 
ATOM     13  C   UNL     1     -17.928   3.025  27.497  0.00  0.00    +0.094 C 
ATOM     14  C   UNL     1     -19.329   2.057  25.802  0.00  0.00    +0.085 C 
ENDROOT
BRANCH   9  16
ATOM      6  N   UNL     1     -15.442   0.496  28.790  0.00  0.00    -0.237 NA
ATOM      7  N   UNL     1     -14.091   1.572  30.471  0.00  0.00    -0.229 NA
ATOM     16  C   UNL     1     -16.203   1.609  28.744  0.00  0.00    +0.050 A 
ATOM     17  C   UNL     1     -15.975   2.728  29.519  0.00  0.00    +0.055 A 
ATOM     18  C   UNL     1     -14.894   2.652  30.374  0.00  0.00    +0.110 A 
ATOM     20  C   UNL     1     -14.417   0.546  29.663  0.00  0.00    +0.127 A 
ATOM     23  C   UNL     1     -13.551  -0.666  29.743  0.00  0.00    +0.088 C 
BRANCH  18  22
ATOM      3  O   UNL     1     -15.294   4.868  31.094  0.00  0.00    -0.461 OA
ATOM     22  C   UNL     1     -14.542   3.746  31.240  0.00  0.00    +0.153 A 
ATOM     25  C   UNL     1     -13.590   3.924  32.216  0.00  0.00    +0.051 A 
ATOM     26  C   UNL     1     -13.767   5.242  32.700  0.00  0.00    +0.042 A 
ATOM     27  C   UNL     1     -14.815   5.774  31.986  0.00  0.00    +0.196 A 
ENDBRANCH  18  22
ENDBRANCH   9  16
BRANCH  10  15
ATOM     15  C   UNL     1     -16.433   4.383  25.136  0.00  0.00    +0.123 C 
BRANCH  15   5
ATOM      2  O   UNL     1     -13.828   4.672  23.948  0.00  0.00    -0.275 OA
ATOM      5  N   UNL     1     -16.144   4.783  23.793  0.00  0.00    -0.314 N 
ATOM     19  C   UNL     1     -14.845   4.898  23.297  0.00  0.00    +0.218 C 
ATOM     31  H   UNL     1     -16.927   5.002  23.185  0.00  0.00    +0.149 HD
BRANCH  19  21
ATOM     21  C   UNL     1     -14.829   5.332  21.844  0.00  0.00    +0.138 C 
BRANCH  21  24
ATOM      1  S   UNL     1     -14.170   8.033  21.747  0.00  0.00    -0.101 S 
ATOM     24  C   UNL     1     -13.786   6.376  21.546  0.00  0.00    -0.001 A 
ATOM     28  C   UNL     1     -12.492   6.196  21.109  0.00  0.00    +0.011 A 
ATOM     29  C   UNL     1     -11.807   7.433  20.937  0.00  0.00    +0.008 A 
ATOM     30  C   UNL     1     -12.603   8.513  21.249  0.00  0.00    +0.045 A 
ENDBRANCH  21  24
ENDBRANCH  19  21
ENDBRANCH  15   5
ENDBRANCH  10  15
TORSDOF 6
ENDMDL
MODEL 4
REMARK VINA RESULT:      -6.9     27.175     28.805
REMARK  Name = 28959376
REMARK  7 active torsions:
REMARK  status: ('A' for Active; 'I' for Inactive)
REMARK    1  A    between atoms: N_5  and  C_15
REMARK    2  A    between atoms: C_9  and  C_16
REMARK    3  A    between atoms: C_10  and  C_15
REMARK    4  A    between atoms: C_18  and  C_22
REMARK    5  A    between atoms: C_19  and  C_21
REMARK    6  A    between atoms: C_20  and  C_23
REMARK    7  A    between atoms: C_21  and  C_24
REMARK                            x       y       z     vdW  Elec       q    Type
REMARK                         _______ _______ _______ _____ _____    ______ ____
ROOT
ATOM      4  N   UNL     1      -5.828 -10.108  17.514  0.00  0.00    -0.297 NA
ATOM      8  C   UNL     1      -4.986 -12.506  16.944  0.00  0.00    +0.002 C 
ATOM      9  C   UNL     1      -3.972 -11.440  16.443  0.00  0.00    +0.055 C 
ATOM     10  C   UNL     1      -6.909 -10.882  16.848  0.00  0.00    +0.074 C 
ATOM     11  C   UNL     1      -6.369 -12.228  16.318  0.00  0.00    +0.024 C 
ATOM     12  C   UNL     1      -5.128 -12.303  18.468  0.00  0.00    +0.019 C 
ATOM     13  C   UNL     1      -4.634 -10.046  16.635  0.00  0.00    +0.094 C 
ATOM     14  C   UNL     1      -5.452 -10.827  18.755  0.00  0.00    +0.085 C 
ENDROOT
BRANCH   9  16
ATOM      6  N   UNL     1      -2.500 -12.622  14.888  0.00  0.00    -0.237 NA
ATOM      7  N   UNL     1      -2.281 -11.968  12.579  0.00  0.00    -0.229 NA
ATOM     16  C   UNL     1      -3.378 -11.612  15.052  0.00  0.00    +0.050 A 
ATOM     17  C   UNL     1      -3.753 -10.749  14.041  0.00  0.00    +0.055 A 
ATOM     18  C   UNL     1      -3.166 -10.977  12.814  0.00  0.00    +0.110 A 
ATOM     20  C   UNL     1      -1.997 -12.741  13.644  0.00  0.00    +0.127 A 
ATOM     23  C   UNL     1      -1.022 -13.848  13.423  0.00  0.00    +0.088 C 
BRANCH  18  22
ATOM      3  O   UNL     1      -4.744  -9.702  11.599  0.00  0.00    -0.461 OA
ATOM     22  C   UNL     1      -3.465 -10.152  11.673  0.00  0.00    +0.153 A 
ATOM     25  C   UNL     1      -2.729  -9.697  10.604  0.00  0.00    +0.051 A 
ATOM     26  C   UNL     1      -3.615  -8.917   9.822  0.00  0.00    +0.042 A 
ATOM     27  C   UNL     1      -4.828  -8.952  10.470  0.00  0.00    +0.196 A 
ENDBRANCH  18  22
ENDBRANCH   9  16
BRANCH  10  15
ATOM     15  C   UNL     1      -7.612 -10.079  15.751  0.00  0.00    +0.123 C 
BRANCH  15   5
ATOM      2  O   UNL     1     -10.224 -10.235  16.947  0.00  0.00    -0.275 OA
ATOM      5  N   UNL     1      -8.363  -8.998  16.311  0.00  0.00    -0.314 N 
ATOM     19  C   UNL     1      -9.628  -9.163  16.874  0.00  0.00    +0.218 C 
ATOM     31  H   UNL     1      -7.952  -8.069  16.283  0.00  0.00    +0.149 HD
BRANCH  19  21
ATOM     21  C   UNL     1     -10.192  -7.855  17.397  0.00  0.00    +0.138 C 
BRANCH  21  24
ATOM      1  S   UNL     1     -12.687  -7.710  16.176  0.00  0.00    -0.101 S 
ATOM     24  C   UNL     1     -11.085  -7.153  16.408  0.00  0.00    -0.001 A 
ATOM     28  C   UNL     1     -10.795  -6.067  15.612  0.00  0.00    +0.011 A 
ATOM     29  C   UNL     1     -11.903  -5.686  14.801  0.00  0.00    +0.008 A 
ATOM     30  C   UNL     1     -12.998  -6.497  15.008  0.00  0.00    +0.045 A 
ENDBRANCH  21  24
ENDBRANCH  19  21
ENDBRANCH  15   5
ENDBRANCH  10  15
TORSDOF 6
ENDMDL
MODEL 5
REMARK VINA RESULT:      -6.8      2.442      6.635
REMARK  Name = 28959376
REMARK  7 active torsions:
REMARK  status: ('A' for Active; 'I' for Inactive)
REMARK    1  A    between atoms: N_5  and  C_15
REMARK    2  A    between atoms: C_9  and  C_16
REMARK    3  A    between atoms: C_10  and  C_15
REMARK    4  A    between atoms: C_18  and  C_22
REMARK    5  A    between atoms: C_19  and  C_21
REMARK    6  A    between atoms: C_20  and  C_23
REMARK    7  A    between atoms: C_21  and  C_24
REMARK                            x       y       z     vdW  Elec       q    Type
REMARK                         _______ _______ _______ _____ _____    ______ ____
ROOT
ATOM      4  N   UNL     1      15.013   6.545  21.227  0.00  0.00    -0.297 NA
ATOM      8  C   UNL     1      16.483   8.567  20.498  0.00  0.00    +0.002 C 
ATOM      9  C   UNL     1      15.695   8.906  21.794  0.00  0.00    +0.055 C 
ATOM     10  C   UNL     1      14.788   6.844  19.788  0.00  0.00    +0.074 C 
ATOM     11  C   UNL     1      15.488   8.161  19.389  0.00  0.00    +0.024 C 
ATOM     12  C   UNL     1      17.344   7.326  20.812  0.00  0.00    +0.019 C 
ATOM     13  C   UNL     1      14.698   7.740  22.049  0.00  0.00    +0.094 C 
ATOM     14  C   UNL     1      16.449   6.224  21.405  0.00  0.00    +0.085 C 
ENDROOT
BRANCH   9  16
ATOM      6  N   UNL     1      15.497  11.237  21.079  0.00  0.00    -0.237 NA
ATOM      7  N   UNL     1      13.865  12.736  22.026  0.00  0.00    -0.229 NA
ATOM     16  C   UNL     1      15.026  10.270  21.893  0.00  0.00    +0.050 A 
ATOM     17  C   UNL     1      13.992  10.456  22.788  0.00  0.00    +0.055 A 
ATOM     18  C   UNL     1      13.444  11.723  22.811  0.00  0.00    +0.110 A 
ATOM     20  C   UNL     1      14.880  12.428  21.196  0.00  0.00    +0.127 A 
ATOM     23  C   UNL     1      15.372  13.523  20.311  0.00  0.00    +0.088 C 
BRANCH  18  22
ATOM      3  O   UNL     1      11.336  12.746  23.132  0.00  0.00    -0.461 OA
ATOM     22  C   UNL     1      12.361  12.056  23.698  0.00  0.00    +0.153 A 
ATOM     25  C   UNL     1      12.114  11.831  25.032  0.00  0.00    +0.051 A 
ATOM     26  C   UNL     1      10.856  12.420  25.303  0.00  0.00    +0.042 A 
ATOM     27  C   UNL     1      10.424  12.963  24.115  0.00  0.00    +0.196 A 
ENDBRANCH  18  22
ENDBRANCH   9  16
BRANCH  10  15
ATOM     15  C   UNL     1      13.303   6.854  19.418  0.00  0.00    +0.123 C 
BRANCH  15   5
ATOM      2  O   UNL     1      10.953   8.421  18.866  0.00  0.00    -0.275 OA
ATOM      5  N   UNL     1      13.068   7.670  18.267  0.00  0.00    -0.314 N 
ATOM     19  C   UNL     1      11.895   8.400  18.078  0.00  0.00    +0.218 C 
ATOM     31  H   UNL     1      13.792   7.702  17.554  0.00  0.00    +0.149 HD
BRANCH  19  21
ATOM     21  C   UNL     1      11.915   9.180  16.777  0.00  0.00    +0.138 C 
BRANCH  21  24
ATOM      1  S   UNL     1      13.630  11.116  17.801  0.00  0.00    -0.101 S 
ATOM     24  C   UNL     1      13.166   9.997  16.591  0.00  0.00    -0.001 A 
ATOM     28  C   UNL     1      14.050   9.985  15.534  0.00  0.00    +0.011 A 
ATOM     29  C   UNL     1      15.121  10.905  15.720  0.00  0.00    +0.008 A 
ATOM     30  C   UNL     1      15.016  11.587  16.913  0.00  0.00    +0.045 A 
ENDBRANCH  21  24
ENDBRANCH  19  21
ENDBRANCH  15   5
ENDBRANCH  10  15
TORSDOF 6
ENDMDL
MODEL 6
REMARK VINA RESULT:      -6.7     27.259     29.081
REMARK  Name = 28959376
REMARK  7 active torsions:
REMARK  status: ('A' for Active; 'I' for Inactive)
REMARK    1  A    between atoms: N_5  and  C_15
REMARK    2  A    between atoms: C_9  and  C_16
REMARK    3  A    between atoms: C_10  and  C_15
REMARK    4  A    between atoms: C_18  and  C_22
REMARK    5  A    between atoms: C_19  and  C_21
REMARK    6  A    between atoms: C_20  and  C_23
REMARK    7  A    between atoms: C_21  and  C_24
REMARK                            x       y       z     vdW  Elec       q    Type
REMARK                         _______ _______ _______ _____ _____    ______ ____
ROOT
ATOM      4  N   UNL     1      -4.671 -12.542  17.061  0.00  0.00    -0.297 NA
ATOM      8  C   UNL     1      -5.963 -10.428  17.865  0.00  0.00    +0.002 C 
ATOM      9  C   UNL     1      -6.913 -11.387  17.095  0.00  0.00    +0.055 C 
ATOM     10  C   UNL     1      -3.927 -11.314  16.675  0.00  0.00    +0.074 C 
ATOM     11  C   UNL     1      -4.773 -10.053  16.956  0.00  0.00    +0.024 C 
ATOM     12  C   UNL     1      -5.391 -11.228  19.055  0.00  0.00    +0.019 C 
ATOM     13  C   UNL     1      -6.036 -12.513  16.479  0.00  0.00    +0.094 C 
ATOM     14  C   UNL     1      -4.797 -12.550  18.538  0.00  0.00    +0.085 C 
ENDROOT
BRANCH   9  16
ATOM      6  N   UNL     1      -7.960 -11.401  14.885  0.00  0.00    -0.237 NA
ATOM      7  N   UNL     1      -9.587  -9.750  14.225  0.00  0.00    -0.229 NA
ATOM     16  C   UNL     1      -7.876 -10.785  16.082  0.00  0.00    +0.050 A 
ATOM     17  C   UNL     1      -8.606  -9.663  16.421  0.00  0.00    +0.055 A 
ATOM     18  C   UNL     1      -9.453  -9.184  15.442  0.00  0.00    +0.110 A 
ATOM     20  C   UNL     1      -8.823 -10.839  14.017  0.00  0.00    +0.127 A 
ATOM     23  C   UNL     1      -8.944 -11.492  12.681  0.00  0.00    +0.088 C 
BRANCH  18  22
ATOM      3  O   UNL     1     -11.082  -7.677  14.626  0.00  0.00    -0.461 OA
ATOM     22  C   UNL     1     -10.271  -8.020  15.660  0.00  0.00    +0.153 A 
ATOM     25  C   UNL     1     -10.427  -7.145  16.709  0.00  0.00    +0.051 A 
ATOM     26  C   UNL     1     -11.397  -6.202  16.292  0.00  0.00    +0.042 A 
ATOM     27  C   UNL     1     -11.763  -6.569  15.018  0.00  0.00    +0.196 A 
ENDBRANCH  18  22
ENDBRANCH   9  16
BRANCH  10  15
ATOM     15  C   UNL     1      -3.438 -11.360  15.225  0.00  0.00    +0.123 C 
BRANCH  15   5
ATOM      2  O   UNL     1      -5.025 -11.961  12.901  0.00  0.00    -0.275 OA
ATOM      5  N   UNL     1      -4.157 -10.426  14.414  0.00  0.00    -0.314 N 
ATOM     19  C   UNL     1      -4.905 -10.805  13.299  0.00  0.00    +0.218 C 
ATOM     31  H   UNL     1      -4.104  -9.443  14.663  0.00  0.00    +0.149 HD
BRANCH  19  21
ATOM     21  C   UNL     1      -5.567  -9.616  12.629  0.00  0.00    +0.138 C 
BRANCH  21  24
ATOM      1  S   UNL     1      -6.357  -9.756   9.966  0.00  0.00    -0.101 S 
ATOM     24  C   UNL     1      -5.187  -9.460  11.181  0.00  0.00    -0.001 A 
ATOM     28  C   UNL     1      -3.970  -9.095  10.648  0.00  0.00    +0.011 A 
ATOM     29  C   UNL     1      -3.998  -9.057   9.224  0.00  0.00    +0.008 A 
ATOM     30  C   UNL     1      -5.236  -9.395   8.722  0.00  0.00    +0.045 A 
ENDBRANCH  21  24
ENDBRANCH  19  21
ENDBRANCH  15   5
ENDBRANCH  10  15
TORSDOF 6
ENDMDL
MODEL 7
REMARK VINA RESULT:      -6.7     25.784     28.862
REMARK  Name = 28959376
REMARK  7 active torsions:
REMARK  status: ('A' for Active; 'I' for Inactive)
REMARK    1  A    between atoms: N_5  and  C_15
REMARK    2  A    between atoms: C_9  and  C_16
REMARK    3  A    between atoms: C_10  and  C_15
REMARK    4  A    between atoms: C_18  and  C_22
REMARK    5  A    between atoms: C_19  and  C_21
REMARK    6  A    between atoms: C_20  and  C_23
REMARK    7  A    between atoms: C_21  and  C_24
REMARK                            x       y       z     vdW  Elec       q    Type
REMARK                         _______ _______ _______ _____ _____    ______ ____
ROOT
ATOM      4  N   UNL     1      -5.583 -10.888   9.666  0.00  0.00    -0.297 NA
ATOM      8  C   UNL     1      -3.793  -9.335  10.748  0.00  0.00    +0.002 C 
ATOM      9  C   UNL     1      -3.333 -10.818  10.804  0.00  0.00    +0.055 C 
ATOM     10  C   UNL     1      -6.227  -9.980  10.652  0.00  0.00    +0.074 C 
ATOM     11  C   UNL     1      -5.160  -9.200  11.451  0.00  0.00    +0.024 C 
ATOM     12  C   UNL     1      -4.013  -8.994   9.258  0.00  0.00    +0.019 C 
ATOM     13  C   UNL     1      -4.529 -11.693  10.330  0.00  0.00    +0.094 C 
ATOM     14  C   UNL     1      -4.940 -10.047   8.628  0.00  0.00    +0.085 C 
ENDROOT
BRANCH   9  16
ATOM      6  N   UNL     1      -2.309 -10.402  12.986  0.00  0.00    -0.237 NA
ATOM      7  N   UNL     1      -1.610 -12.194  14.438  0.00  0.00    -0.229 NA
ATOM     16  C   UNL     1      -2.719 -11.332  12.099  0.00  0.00    +0.050 A 
ATOM     17  C   UNL     1      -2.609 -12.692  12.306  0.00  0.00    +0.055 A 
ATOM     18  C   UNL     1      -2.041 -13.069  13.506  0.00  0.00    +0.110 A 
ATOM     20  C   UNL     1      -1.772 -10.896  14.118  0.00  0.00    +0.127 A 
ATOM     23  C   UNL     1      -1.308  -9.899  15.125  0.00  0.00    +0.088 C 
BRANCH  18  22
ATOM      3  O   UNL     1      -2.785 -14.963  14.711  0.00  0.00    -0.461 OA
ATOM     22  C   UNL     1      -1.864 -14.454  13.851  0.00  0.00    +0.153 A 
ATOM     25  C   UNL     1      -0.947 -15.417  13.500  0.00  0.00    +0.051 A 
ATOM     26  C   UNL     1      -1.329 -16.593  14.189  0.00  0.00    +0.042 A 
ATOM     27  C   UNL     1      -2.453 -16.264  14.911  0.00  0.00    +0.196 A 
ENDBRANCH  18  22
ENDBRANCH   9  16
BRANCH  10  15
ATOM     15  C   UNL     1      -7.203 -10.717  11.573  0.00  0.00    +0.123 C 
BRANCH  15   5
ATOM      2  O   UNL     1      -7.751 -12.004  14.088  0.00  0.00    -0.275 OA
ATOM      5  N   UNL     1      -7.260 -10.094  12.860  0.00  0.00    -0.314 N 
ATOM     19  C   UNL     1      -7.532 -10.796  14.034  0.00  0.00    +0.218 C 
ATOM     31  H   UNL     1      -7.104  -9.091  12.908  0.00  0.00    +0.149 HD
BRANCH  19  21
ATOM     21  C   UNL     1      -7.525  -9.892  15.251  0.00  0.00    +0.138 C 
BRANCH  21  24
ATOM      1  S   UNL     1      -6.837 -10.621  17.846  0.00  0.00    -0.101 S 
ATOM     24  C   UNL     1      -6.430 -10.221  16.231  0.00  0.00    -0.001 A 
ATOM     28  C   UNL     1      -5.069 -10.252  16.019  0.00  0.00    +0.011 A 
ATOM     29  C   UNL     1      -4.351 -10.609  17.197  0.00  0.00    +0.008 A 
ATOM     30  C   UNL     1      -5.190 -10.837  18.265  0.00  0.00    +0.045 A 
ENDBRANCH  21  24
ENDBRANCH  19  21
ENDBRANCH  15   5
ENDBRANCH  10  15
TORSDOF 6
ENDMDL
MODEL 8
REMARK VINA RESULT:      -6.7     25.426     28.688
REMARK  Name = 28959376
REMARK  7 active torsions:
REMARK  status: ('A' for Active; 'I' for Inactive)
REMARK    1  A    between atoms: N_5  and  C_15
REMARK    2  A    between atoms: C_9  and  C_16
REMARK    3  A    between atoms: C_10  and  C_15
REMARK    4  A    between atoms: C_18  and  C_22
REMARK    5  A    between atoms: C_19  and  C_21
REMARK    6  A    between atoms: C_20  and  C_23
REMARK    7  A    between atoms: C_21  and  C_24
REMARK                            x       y       z     vdW  Elec       q    Type
REMARK                         _______ _______ _______ _____ _____    ______ ____
ROOT
ATOM      4  N   UNL     1      -7.084 -10.218   9.738  0.00  0.00    -0.297 NA
ATOM      8  C   UNL     1      -4.549  -9.620   9.713  0.00  0.00    +0.002 C 
ATOM      9  C   UNL     1      -4.745 -11.150   9.904  0.00  0.00    +0.055 C 
ATOM     10  C   UNL     1      -6.817  -9.097  10.677  0.00  0.00    +0.074 C 
ATOM     11  C   UNL     1      -5.298  -8.867  10.833  0.00  0.00    +0.024 C 
ATOM     12  C   UNL     1      -5.231  -9.247   8.379  0.00  0.00    +0.019 C 
ATOM     13  C   UNL     1      -6.267 -11.399  10.111  0.00  0.00    +0.094 C 
ATOM     14  C   UNL     1      -6.674  -9.781   8.381  0.00  0.00    +0.085 C 
ENDROOT
BRANCH   9  16
ATOM      6  N   UNL     1      -3.678 -13.176  10.762  0.00  0.00    -0.237 NA
ATOM      7  N   UNL     1      -2.380 -13.183  12.792  0.00  0.00    -0.229 NA
ATOM     16  C   UNL     1      -3.896 -11.859  10.950  0.00  0.00    +0.050 A 
ATOM     17  C   UNL     1      -3.397 -11.143  12.019  0.00  0.00    +0.055 A 
ATOM     18  C   UNL     1      -2.639 -11.865  12.919  0.00  0.00    +0.110 A 
ATOM     20  C   UNL     1      -2.923 -13.767  11.707  0.00  0.00    +0.127 A 
ATOM     23  C   UNL     1      -2.658 -15.225  11.534  0.00  0.00    +0.088 C 
BRANCH  18  22
ATOM      3  O   UNL     1      -1.551 -10.000  13.883  0.00  0.00    -0.461 OA
ATOM     22  C   UNL     1      -2.059 -11.244  14.080  0.00  0.00    +0.153 A 
ATOM     25  C   UNL     1      -1.894 -11.632  15.389  0.00  0.00    +0.051 A 
ATOM     26  C   UNL     1      -1.243 -10.557  16.038  0.00  0.00    +0.042 A 
ATOM     27  C   UNL     1      -1.055  -9.589  15.079  0.00  0.00    +0.196 A 
ENDBRANCH  18  22
ENDBRANCH   9  16
BRANCH  10  15
ATOM     15  C   UNL     1      -7.504  -9.294  12.031  0.00  0.00    +0.123 C 
BRANCH  15   5
ATOM      2  O   UNL     1      -6.924 -11.379  13.927  0.00  0.00    -0.275 OA
ATOM      5  N   UNL     1      -6.554  -9.240  13.099  0.00  0.00    -0.314 N 
ATOM     19  C   UNL     1      -6.335 -10.302  13.976  0.00  0.00    +0.218 C 
ATOM     31  H   UNL     1      -6.028  -8.379  13.222  0.00  0.00    +0.149 HD
BRANCH  19  21
ATOM     21  C   UNL     1      -5.270  -9.977  15.006  0.00  0.00    +0.138 C 
BRANCH  21  24
ATOM      1  S   UNL     1      -7.276  -9.576  16.891  0.00  0.00    -0.101 S 
ATOM     24  C   UNL     1      -5.737 -10.166  16.425  0.00  0.00    -0.001 A 
ATOM     28  C   UNL     1      -5.080 -10.776  17.471  0.00  0.00    +0.011 A 
ATOM     29  C   UNL     1      -5.848 -10.759  18.670  0.00  0.00    +0.008 A 
ATOM     30  C   UNL     1      -7.065 -10.136  18.496  0.00  0.00    +0.045 A 
ENDBRANCH  21  24
ENDBRANCH  19  21
ENDBRANCH  15   5
ENDBRANCH  10  15
TORSDOF 6
ENDMDL
MODEL 9
REMARK VINA RESULT:      -6.6     25.597     28.857
REMARK  Name = 28959376
REMARK  7 active torsions:
REMARK  status: ('A' for Active; 'I' for Inactive)
REMARK    1  A    between atoms: N_5  and  C_15
REMARK    2  A    between atoms: C_9  and  C_16
REMARK    3  A    between atoms: C_10  and  C_15
REMARK    4  A    between atoms: C_18  and  C_22
REMARK    5  A    between atoms: C_19  and  C_21
REMARK    6  A    between atoms: C_20  and  C_23
REMARK    7  A    between atoms: C_21  and  C_24
REMARK                            x       y       z     vdW  Elec       q    Type
REMARK                         _______ _______ _______ _____ _____    ______ ____
ROOT
ATOM      4  N   UNL     1      -7.452 -11.767  17.591  0.00  0.00    -0.297 NA
ATOM      8  C   UNL     1      -5.073 -11.089  18.405  0.00  0.00    +0.002 C 
ATOM      9  C   UNL     1      -5.378 -10.449  17.022  0.00  0.00    +0.055 C 
ATOM     10  C   UNL     1      -6.695 -12.976  18.012  0.00  0.00    +0.074 C 
ATOM     11  C   UNL     1      -5.220 -12.622  18.299  0.00  0.00    +0.024 C 
ATOM     12  C   UNL     1      -6.166 -10.593  19.376  0.00  0.00    +0.019 C 
ATOM     13  C   UNL     1      -6.718 -11.057  16.516  0.00  0.00    +0.094 C 
ATOM     14  C   UNL     1      -7.550 -10.862  18.761  0.00  0.00    +0.085 C 
ENDROOT
BRANCH   9  16
ATOM      6  N   UNL     1      -3.015 -10.427  16.394  0.00  0.00    -0.237 NA
ATOM      7  N   UNL     1      -2.296 -10.535  14.097  0.00  0.00    -0.229 NA
ATOM     16  C   UNL     1      -4.290 -10.481  15.959  0.00  0.00    +0.050 A 
ATOM     17  C   UNL     1      -4.644 -10.563  14.627  0.00  0.00    +0.055 A 
ATOM     18  C   UNL     1      -3.594 -10.586  13.731  0.00  0.00    +0.110 A 
ATOM     20  C   UNL     1      -2.082 -10.458  15.424  0.00  0.00    +0.127 A 
ATOM     23  C   UNL     1      -0.658 -10.400  15.866  0.00  0.00    +0.088 C 
BRANCH  18  22
ATOM      3  O   UNL     1      -4.917 -11.373  11.937  0.00  0.00    -0.461 OA
ATOM     22  C   UNL     1      -3.819 -10.668  12.312  0.00  0.00    +0.153 A 
ATOM     25  C   UNL     1      -3.156 -10.180  11.210  0.00  0.00    +0.051 A 
ATOM     26  C   UNL     1      -3.896 -10.614  10.084  0.00  0.00    +0.042 A 
ATOM     27  C   UNL     1      -4.957 -11.335  10.579  0.00  0.00    +0.196 A 
ENDBRANCH  18  22
ENDBRANCH   9  16
BRANCH  10  15
ATOM     15  C   UNL     1      -6.821 -14.123  17.006  0.00  0.00    +0.123 C 
BRANCH  15   5
ATOM      2  O   UNL     1      -6.030 -16.754  16.151  0.00  0.00    -0.275 OA
ATOM      5  N   UNL     1      -5.535 -14.513  16.515  0.00  0.00    -0.314 N 
ATOM     19  C   UNL     1      -5.236 -15.817  16.119  0.00  0.00    +0.218 C 
ATOM     31  H   UNL     1      -4.810 -13.803  16.466  0.00  0.00    +0.149 HD
BRANCH  19  21
ATOM     21  C   UNL     1      -3.805 -15.950  15.635  0.00  0.00    +0.138 C 
BRANCH  21  24
ATOM      1  S   UNL     1      -2.325 -14.259  13.996  0.00  0.00    -0.101 S 
ATOM     24  C   UNL     1      -3.587 -15.387  14.256  0.00  0.00    -0.001 A 
ATOM     28  C   UNL     1      -4.288 -15.652  13.100  0.00  0.00    +0.011 A 
ATOM     29  C   UNL     1      -3.783 -14.922  11.987  0.00  0.00    +0.008 A 
ATOM     30  C   UNL     1      -2.714 -14.124  12.333  0.00  0.00    +0.045 A 
ENDBRANCH  21  24
ENDBRANCH  19  21
ENDBRANCH  15   5
ENDBRANCH  10  15
TORSDOF 6
ENDMDL
MODEL 10
REMARK VINA RESULT:      -6.6     15.257     18.448
REMARK  Name = 28959376
REMARK  7 active torsions:
REMARK  status: ('A' for Active; 'I' for Inactive)
REMARK    1  A    between atoms: N_5  and  C_15
REMARK    2  A    between atoms: C_9  and  C_16
REMARK    3  A    between atoms: C_10  and  C_15
REMARK    4  A    between atoms: C_18  and  C_22
REMARK    5  A    between atoms: C_19  and  C_21
REMARK    6  A    between atoms: C_20  and  C_23
REMARK    7  A    between atoms: C_21  and  C_24
REMARK                            x       y       z     vdW  Elec       q    Type
REMARK                         _______ _______ _______ _____ _____    ______ ____
ROOT
ATOM      4  N   UNL     1      10.237   5.683   5.370  0.00  0.00    -0.297 NA
ATOM      8  C   UNL     1      10.295   7.896   6.742  0.00  0.00    +0.002 C 
ATOM      9  C   UNL     1       8.921   7.730   6.034  0.00  0.00    +0.055 C 
ATOM     10  C   UNL     1      11.467   6.451   5.043  0.00  0.00    +0.074 C 
ATOM     11  C   UNL     1      11.419   7.855   5.685  0.00  0.00    +0.024 C 
ATOM     12  C   UNL     1      10.480   6.661   7.651  0.00  0.00    +0.019 C 
ATOM     13  C   UNL     1       9.035   6.504   5.084  0.00  0.00    +0.094 C 
ATOM     14  C   UNL     1      10.260   5.384   6.822  0.00  0.00    +0.085 C 
ENDROOT
BRANCH   9  16
ATOM      6  N   UNL     1       8.670  10.154   5.824  0.00  0.00    -0.237 NA
ATOM      7  N   UNL     1       7.266  11.157   4.142  0.00  0.00    -0.229 NA
ATOM     16  C   UNL     1       8.317   8.944   5.343  0.00  0.00    +0.050 A 
ATOM     17  C   UNL     1       7.456   8.762   4.279  0.00  0.00    +0.055 A 
ATOM     18  C   UNL     1       6.955   9.916   3.713  0.00  0.00    +0.110 A 
ATOM     20  C   UNL     1       8.116  11.202   5.185  0.00  0.00    +0.127 A 
ATOM     23  C   UNL     1       8.482  12.557   5.688  0.00  0.00    +0.088 C 
BRANCH  18  22
ATOM      3  O   UNL     1       4.733  10.027   2.912  0.00  0.00    -0.461 OA
ATOM     22  C   UNL     1       6.046   9.872   2.599  0.00  0.00    +0.153 A 
ATOM     25  C   UNL     1       6.203   9.705   1.243  0.00  0.00    +0.051 A 
ATOM     26  C   UNL     1       4.902   9.760   0.687  0.00  0.00    +0.042 A 
ATOM     27  C   UNL     1       4.044   9.957   1.744  0.00  0.00    +0.196 A 
ENDBRANCH  18  22
ENDBRANCH   9  16
BRANCH  10  15
ATOM     15  C   UNL     1      11.728   6.522   3.537  0.00  0.00    +0.123 C 
BRANCH  15   5
ATOM      2  O   UNL     1      10.467   4.500   1.925  0.00  0.00    -0.275 OA
ATOM      5  N   UNL     1      12.323   5.310   3.063  0.00  0.00    -0.314 N 
ATOM     19  C   UNL     1      11.636   4.381   2.283  0.00  0.00    +0.218 C 
ATOM     31  H   UNL     1      13.287   5.122   3.323  0.00  0.00    +0.149 HD
BRANCH  19  21
ATOM     21  C   UNL     1      12.506   3.194   1.916  0.00  0.00    +0.138 C 
BRANCH  21  24
ATOM      1  S   UNL     1      13.392   3.962  -0.606  0.00  0.00    -0.101 S 
ATOM     24  C   UNL     1      13.671   3.558   1.034  0.00  0.00    -0.001 A 
ATOM     28  C   UNL     1      15.008   3.620   1.361  0.00  0.00    +0.011 A 
ATOM     29  C   UNL     1      15.813   4.004   0.250  0.00  0.00    +0.008 A 
ATOM     30  C   UNL     1      15.062   4.222  -0.884  0.00  0.00    +0.045 A 
ENDBRANCH  21  24
ENDBRANCH  19  21
ENDBRANCH  15   5
ENDBRANCH  10  15
TORSDOF 6
ENDMDL
