MODEL 1
REMARK VINA RESULT:      -7.1      0.000      0.000
REMARK  Name = 25391098
REMARK  7 active torsions:
REMARK  status: ('A' for Active; 'I' for Inactive)
REMARK    1  A    between atoms: N_7  and  C_19
REMARK    2  A    between atoms: C_11  and  C_14
REMARK    3  A    between atoms: C_14  and  C_19
REMARK    4  A    between atoms: C_18  and  C_27
REMARK    5  A    between atoms: C_19  and  C_30
REMARK    6  A    between atoms: C_20  and  C_23
REMARK    7  A    between atoms: C_31  and  C_32
REMARK                            x       y       z     vdW  Elec       q    Type
REMARK                         _______ _______ _______ _____ _____    ______ ____
ROOT
ATOM      1  O   UNL     1      10.863  12.539  22.218  0.00  0.00    -0.275 OA
ATOM      4  O   UNL     1      15.653  11.438  17.456  0.00  0.00    -0.270 OA
ATOM      5  N   UNL     1      13.070  12.550  21.478  0.00  0.00    -0.287 N 
ATOM      6  N   UNL     1      14.924  12.636  19.325  0.00  0.00    -0.294 N 
ATOM     18  C   UNL     1      12.725  11.919  20.195  0.00  0.00    +0.179 C 
ATOM     21  C   UNL     1      13.504  12.492  19.012  0.00  0.00    +0.140 C 
ATOM     22  C   UNL     1      14.502  12.782  21.735  0.00  0.00    +0.127 C 
ATOM     23  C   UNL     1      12.062  12.734  22.432  0.00  0.00    +0.219 C 
ATOM     26  C   UNL     1      15.193  13.418  20.535  0.00  0.00    +0.127 C 
ATOM     31  C   UNL     1      15.884  12.094  18.471  0.00  0.00    +0.248 C 
ENDROOT
BRANCH  23  20
ATOM      8  N   UNL     1      10.430  12.616  25.789  0.00  0.00    -0.316 NA
ATOM     20  C   UNL     1      12.497  13.203  23.792  0.00  0.00    +0.078 C 
ATOM     24  C   UNL     1      12.605  12.028  24.766  0.00  0.00    +0.028 C 
ATOM     25  C   UNL     1      11.545  14.274  24.329  0.00  0.00    +0.028 C 
ATOM     28  C   UNL     1      11.234  11.531  25.227  0.00  0.00    +0.081 C 
ATOM     29  C   UNL     1      10.218  13.682  24.810  0.00  0.00    +0.081 C 
ATOM     38  H   UNL     1       9.528  12.248  26.087  0.00  0.00    +0.122 HD
ENDBRANCH  23  20
BRANCH  31  32
ATOM     10  N   UNL     1      19.391  13.418  18.334  0.00  0.00    -0.263 NA
ATOM     32  C   UNL     1      17.300  12.298  18.803  0.00  0.00    +0.055 A 
ATOM     33  C   UNL     1      17.897  11.608  19.852  0.00  0.00    +0.016 A 
ATOM     34  C   UNL     1      18.084  13.184  18.080  0.00  0.00    +0.123 A 
ATOM     35  C   UNL     1      19.241  11.822  20.143  0.00  0.00    +0.020 A 
ATOM     36  C   UNL     1      19.937  12.729  19.360  0.00  0.00    +0.111 A 
ENDBRANCH  31  32
BRANCH  18  27
ATOM      2  O   UNL     1      12.857   9.891  21.452  0.00  0.00    -0.274 OA
ATOM      7  N   UNL     1      13.363   9.844  19.180  0.00  0.00    -0.302 N 
ATOM     27  C   UNL     1      12.975  10.449  20.364  0.00  0.00    +0.236 C 
ATOM     37  H   UNL     1      13.451  10.406  18.339  0.00  0.00    +0.150 HD
BRANCH   7  19
ATOM     19  C   UNL     1      13.684   8.439  19.079  0.00  0.00    +0.159 C 
BRANCH  19  30
ATOM      3  O   UNL     1      11.488   8.027  18.124  0.00  0.00    -0.274 OA
ATOM      9  N   UNL     1      12.332   6.507  19.625  0.00  0.00    -0.328 N 
ATOM     30  C   UNL     1      12.394   7.658  18.868  0.00  0.00    +0.231 C 
ATOM     39  H   UNL     1      13.079   6.224  20.252  0.00  0.00    +0.145 HD
ATOM     40  H   UNL     1      11.520   5.899  19.583  0.00  0.00    +0.145 HD
ENDBRANCH  19  30
BRANCH  19  14
ATOM     14  C   UNL     1      14.490   7.940  20.284  0.00  0.00    +0.035 C 
BRANCH  14  11
ATOM     11  C   UNL     1      15.970   7.700  19.991  0.00  0.00    -0.009 C 
ATOM     12  C   UNL     1      16.822   8.000  21.231  0.00  0.00    +0.003 C 
ATOM     13  C   UNL     1      16.199   6.262  19.505  0.00  0.00    +0.003 C 
ATOM     15  C   UNL     1      18.301   7.716  20.980  0.00  0.00    +0.000 C 
ATOM     16  C   UNL     1      17.680   5.981  19.256  0.00  0.00    +0.000 C 
ATOM     17  C   UNL     1      18.525   6.289  20.488  0.00  0.00    +0.000 C 
ENDBRANCH  14  11
ENDBRANCH  19  14
ENDBRANCH   7  19
ENDBRANCH  18  27
TORSDOF 7
ENDMDL
MODEL 2
REMARK VINA RESULT:      -6.8     29.126     31.268
REMARK  Name = 25391098
REMARK  7 active torsions:
REMARK  status: ('A' for Active; 'I' for Inactive)
REMARK    1  A    between atoms: N_7  and  C_19
REMARK    2  A    between atoms: C_11  and  C_14
REMARK    3  A    between atoms: C_14  and  C_19
REMARK    4  A    between atoms: C_18  and  C_27
REMARK    5  A    between atoms: C_19  and  C_30
REMARK    6  A    between atoms: C_20  and  C_23
REMARK    7  A    between atoms: C_31  and  C_32
REMARK                            x       y       z     vdW  Elec       q    Type
REMARK                         _______ _______ _______ _____ _____    ______ ____
ROOT
ATOM      1  O   UNL     1      -3.973 -15.263  15.613  0.00  0.00    -0.275 OA
ATOM      4  O   UNL     1      -1.836  -9.936  11.887  0.00  0.00    -0.270 OA
ATOM      5  N   UNL     1      -4.322 -13.570  14.054  0.00  0.00    -0.287 N 
ATOM      6  N   UNL     1      -3.264 -11.770  12.124  0.00  0.00    -0.294 N 
ATOM     18  C   UNL     1      -2.974 -13.014  14.240  0.00  0.00    +0.179 C 
ATOM     21  C   UNL     1      -2.329 -12.544  12.937  0.00  0.00    +0.140 C 
ATOM     22  C   UNL     1      -5.221 -12.832  13.149  0.00  0.00    +0.127 C 
ATOM     23  C   UNL     1      -4.725 -14.645  14.855  0.00  0.00    +0.219 C 
ATOM     26  C   UNL     1      -4.525 -12.461  11.845  0.00  0.00    +0.127 C 
ATOM     31  C   UNL     1      -2.897 -10.511  11.648  0.00  0.00    +0.248 C 
ENDROOT
BRANCH  23  20
ATOM      8  N   UNL     1      -7.199 -15.790  17.406  0.00  0.00    -0.316 NA
ATOM     20  C   UNL     1      -6.168 -15.053  14.761  0.00  0.00    +0.078 C 
ATOM     24  C   UNL     1      -7.054 -14.119  15.588  0.00  0.00    +0.028 C 
ATOM     25  C   UNL     1      -6.352 -16.509  15.195  0.00  0.00    +0.028 C 
ATOM     28  C   UNL     1      -6.935 -14.387  17.089  0.00  0.00    +0.081 C 
ATOM     29  C   UNL     1      -6.264 -16.676  16.714  0.00  0.00    +0.081 C 
ATOM     38  H   UNL     1      -7.114 -15.930  18.412  0.00  0.00    +0.122 HD
ENDBRANCH  23  20
BRANCH  31  32
ATOM     10  N   UNL     1      -5.845  -8.426  10.635  0.00  0.00    -0.263 NA
ATOM     32  C   UNL     1      -3.853  -9.786  10.802  0.00  0.00    +0.055 A 
ATOM     33  C   UNL     1      -3.707  -9.755   9.420  0.00  0.00    +0.016 A 
ATOM     34  C   UNL     1      -4.930  -9.111  11.356  0.00  0.00    +0.123 A 
ATOM     35  C   UNL     1      -4.629  -9.060   8.644  0.00  0.00    +0.020 A 
ATOM     36  C   UNL     1      -5.671  -8.418   9.294  0.00  0.00    +0.111 A 
ENDBRANCH  31  32
BRANCH  18  27
ATOM      2  O   UNL     1      -2.703 -10.758  14.980  0.00  0.00    -0.274 OA
ATOM      7  N   UNL     1      -3.714 -12.297  16.405  0.00  0.00    -0.302 N 
ATOM     27  C   UNL     1      -3.111 -11.890  15.226  0.00  0.00    +0.236 C 
ATOM     37  H   UNL     1      -3.994 -13.267  16.512  0.00  0.00    +0.150 HD
BRANCH   7  19
ATOM     19  C   UNL     1      -3.943 -11.411  17.522  0.00  0.00    +0.159 C 
BRANCH  19  30
ATOM      3  O   UNL     1      -4.933 -11.766  19.713  0.00  0.00    -0.274 OA
ATOM      9  N   UNL     1      -4.082 -13.579  18.589  0.00  0.00    -0.328 N 
ATOM     30  C   UNL     1      -4.387 -12.241  18.720  0.00  0.00    +0.231 C 
ATOM     39  H   UNL     1      -3.612 -13.955  17.772  0.00  0.00    +0.145 HD
ATOM     40  H   UNL     1      -4.317 -14.241  19.322  0.00  0.00    +0.145 HD
ENDBRANCH  19  30
BRANCH  19  14
ATOM     14  C   UNL     1      -4.928 -10.288  17.180  0.00  0.00    +0.035 C 
BRANCH  14  11
ATOM     11  C   UNL     1      -6.229 -10.771  16.539  0.00  0.00    -0.009 C 
ATOM     12  C   UNL     1      -7.414 -10.549  17.488  0.00  0.00    +0.003 C 
ATOM     13  C   UNL     1      -6.464 -10.067  15.196  0.00  0.00    +0.003 C 
ATOM     15  C   UNL     1      -8.734 -10.974  16.849  0.00  0.00    +0.000 C 
ATOM     16  C   UNL     1      -7.786 -10.494  14.561  0.00  0.00    +0.000 C 
ATOM     17  C   UNL     1      -8.961 -10.280  15.510  0.00  0.00    +0.000 C 
ENDBRANCH  14  11
ENDBRANCH  19  14
ENDBRANCH   7  19
ENDBRANCH  18  27
TORSDOF 7
ENDMDL
MODEL 3
REMARK VINA RESULT:      -6.7      2.046      2.969
REMARK  Name = 25391098
REMARK  7 active torsions:
REMARK  status: ('A' for Active; 'I' for Inactive)
REMARK    1  A    between atoms: N_7  and  C_19
REMARK    2  A    between atoms: C_11  and  C_14
REMARK    3  A    between atoms: C_14  and  C_19
REMARK    4  A    between atoms: C_18  and  C_27
REMARK    5  A    between atoms: C_19  and  C_30
REMARK    6  A    between atoms: C_20  and  C_23
REMARK    7  A    between atoms: C_31  and  C_32
REMARK                            x       y       z     vdW  Elec       q    Type
REMARK                         _______ _______ _______ _____ _____    ______ ____
ROOT
ATOM      1  O   UNL     1      13.054  11.231  20.868  0.00  0.00    -0.275 OA
ATOM      4  O   UNL     1      15.434  12.097  14.511  0.00  0.00    -0.270 OA
ATOM      5  N   UNL     1      14.769  11.657  19.354  0.00  0.00    -0.287 N 
ATOM      6  N   UNL     1      15.594  12.576  16.793  0.00  0.00    -0.294 N 
ATOM     18  C   UNL     1      13.899  11.441  18.188  0.00  0.00    +0.179 C 
ATOM     21  C   UNL     1      14.164  12.422  17.047  0.00  0.00    +0.140 C 
ATOM     22  C   UNL     1      16.194  11.913  19.075  0.00  0.00    +0.127 C 
ATOM     23  C   UNL     1      14.246  11.446  20.635  0.00  0.00    +0.219 C 
ATOM     26  C   UNL     1      16.374  12.952  17.975  0.00  0.00    +0.127 C 
ATOM     31  C   UNL     1      16.094  12.413  15.501  0.00  0.00    +0.248 C 
ENDROOT
BRANCH  23  20
ATOM      8  N   UNL     1      14.009  12.808  24.104  0.00  0.00    -0.316 NA
ATOM     20  C   UNL     1      15.221  11.493  21.778  0.00  0.00    +0.078 C 
ATOM     24  C   UNL     1      14.689  10.711  22.981  0.00  0.00    +0.028 C 
ATOM     25  C   UNL     1      15.538  12.940  22.163  0.00  0.00    +0.028 C 
ATOM     28  C   UNL     1      13.580  11.464  23.717  0.00  0.00    +0.081 C 
ATOM     29  C   UNL     1      14.394  13.600  22.935  0.00  0.00    +0.081 C 
ATOM     38  H   UNL     1      13.249  13.277  24.593  0.00  0.00    +0.122 HD
ENDBRANCH  23  20
BRANCH  31  32
ATOM     10  N   UNL     1      19.420  14.127  15.233  0.00  0.00    -0.263 NA
ATOM     32  C   UNL     1      17.532  12.616  15.284  0.00  0.00    +0.055 A 
ATOM     33  C   UNL     1      18.362  11.556  14.939  0.00  0.00    +0.016 A 
ATOM     34  C   UNL     1      18.105  13.872  15.418  0.00  0.00    +0.123 A 
ATOM     35  C   UNL     1      19.721  11.780  14.741  0.00  0.00    +0.020 A 
ATOM     36  C   UNL     1      20.195  13.072  14.898  0.00  0.00    +0.111 A 
ENDBRANCH  31  32
BRANCH  18  27
ATOM      2  O   UNL     1      14.487   9.735  16.622  0.00  0.00    -0.274 OA
ATOM      7  N   UNL     1      13.819   9.116  18.765  0.00  0.00    -0.302 N 
ATOM     27  C   UNL     1      14.112  10.019  17.757  0.00  0.00    +0.236 C 
ATOM     37  H   UNL     1      13.493   9.460  19.663  0.00  0.00    +0.150 HD
BRANCH   7  19
ATOM     19  C   UNL     1      13.921   7.685  18.597  0.00  0.00    +0.159 C 
BRANCH  19  30
ATOM      3  O   UNL     1      11.837   7.457  17.369  0.00  0.00    -0.274 OA
ATOM      9  N   UNL     1      12.116   6.228  19.288  0.00  0.00    -0.328 N 
ATOM     30  C   UNL     1      12.531   7.125  18.326  0.00  0.00    +0.231 C 
ATOM     39  H   UNL     1      12.690   5.977  20.087  0.00  0.00    +0.145 HD
ATOM     40  H   UNL     1      11.203   5.788  19.230  0.00  0.00    +0.145 HD
ENDBRANCH  19  30
BRANCH  19  14
ATOM     14  C   UNL     1      14.611   7.010  19.788  0.00  0.00    +0.035 C 
BRANCH  14  11
ATOM     11  C   UNL     1      16.106   7.306  19.894  0.00  0.00    -0.009 C 
ATOM     12  C   UNL     1      16.425   8.006  21.223  0.00  0.00    +0.003 C 
ATOM     13  C   UNL     1      16.926   6.017  19.746  0.00  0.00    +0.003 C 
ATOM     15  C   UNL     1      17.922   8.265  21.377  0.00  0.00    +0.000 C 
ATOM     16  C   UNL     1      18.423   6.280  19.903  0.00  0.00    +0.000 C 
ATOM     17  C   UNL     1      18.735   6.984  21.219  0.00  0.00    +0.000 C 
ENDBRANCH  14  11
ENDBRANCH  19  14
ENDBRANCH   7  19
ENDBRANCH  18  27
TORSDOF 7
ENDMDL
MODEL 4
REMARK VINA RESULT:      -6.7     16.989     20.034
REMARK  Name = 25391098
REMARK  7 active torsions:
REMARK  status: ('A' for Active; 'I' for Inactive)
REMARK    1  A    between atoms: N_7  and  C_19
REMARK    2  A    between atoms: C_11  and  C_14
REMARK    3  A    between atoms: C_14  and  C_19
REMARK    4  A    between atoms: C_18  and  C_27
REMARK    5  A    between atoms: C_19  and  C_30
REMARK    6  A    between atoms: C_20  and  C_23
REMARK    7  A    between atoms: C_31  and  C_32
REMARK                            x       y       z     vdW  Elec       q    Type
REMARK                         _______ _______ _______ _____ _____    ______ ____
ROOT
ATOM      1  O   UNL     1      11.541   6.983   6.017  0.00  0.00    -0.275 OA
ATOM      4  O   UNL     1      13.746   6.072  -0.397  0.00  0.00    -0.270 OA
ATOM      5  N   UNL     1      11.428   5.964   3.928  0.00  0.00    -0.287 N 
ATOM      6  N   UNL     1      12.713   5.200   1.509  0.00  0.00    -0.294 N 
ATOM     18  C   UNL     1      12.491   6.813   3.370  0.00  0.00    +0.179 C 
ATOM     21  C   UNL     1      13.442   6.058   2.442  0.00  0.00    +0.140 C 
ATOM     22  C   UNL     1      10.772   5.030   2.995  0.00  0.00    +0.127 C 
ATOM     23  C   UNL     1      10.992   6.202   5.237  0.00  0.00    +0.219 C 
ATOM     26  C   UNL     1      11.788   4.266   2.156  0.00  0.00    +0.127 C 
ATOM     31  C   UNL     1      12.967   5.285   0.140  0.00  0.00    +0.248 C 
ENDROOT
BRANCH  23  20
ATOM      8  N   UNL     1       8.448   6.853   7.892  0.00  0.00    -0.316 NA
ATOM     20  C   UNL     1       9.781   5.439   5.693  0.00  0.00    +0.078 C 
ATOM     24  C   UNL     1       8.508   6.264   5.489  0.00  0.00    +0.028 C 
ATOM     25  C   UNL     1       9.926   5.010   7.155  0.00  0.00    +0.028 C 
ATOM     28  C   UNL     1       8.367   7.377   6.528  0.00  0.00    +0.081 C 
ATOM     29  C   UNL     1       9.724   6.176   8.125  0.00  0.00    +0.081 C 
ATOM     38  H   UNL     1       8.348   7.620   8.555  0.00  0.00    +0.122 HD
ENDBRANCH  23  20
BRANCH  31  32
ATOM     10  N   UNL     1      10.239   3.888  -2.022  0.00  0.00    -0.263 NA
ATOM     32  C   UNL     1      12.241   4.376  -0.756  0.00  0.00    +0.055 A 
ATOM     33  C   UNL     1      12.813   3.185  -1.187  0.00  0.00    +0.016 A 
ATOM     34  C   UNL     1      10.962   4.679  -1.197  0.00  0.00    +0.123 A 
ATOM     35  C   UNL     1      12.100   2.345  -2.036  0.00  0.00    +0.020 A 
ATOM     36  C   UNL     1      10.828   2.738  -2.420  0.00  0.00    +0.111 A 
ENDBRANCH  31  32
BRANCH  18  27
ATOM      2  O   UNL     1      12.163   8.323   1.547  0.00  0.00    -0.274 OA
ATOM      7  N   UNL     1      10.770   8.481   3.406  0.00  0.00    -0.302 N 
ATOM     27  C   UNL     1      11.803   7.941   2.658  0.00  0.00    +0.236 C 
ATOM     37  H   UNL     1      10.571   8.102   4.327  0.00  0.00    +0.150 HD
BRANCH   7  19
ATOM     19  C   UNL     1       9.965   9.592   2.955  0.00  0.00    +0.159 C 
BRANCH  19  30
ATOM      3  O   UNL     1      10.864  11.412   4.291  0.00  0.00    -0.274 OA
ATOM      9  N   UNL     1      11.261  11.415   2.030  0.00  0.00    -0.328 N 
ATOM     30  C   UNL     1      10.740  10.883   3.190  0.00  0.00    +0.231 C 
ATOM     39  H   UNL     1      11.133  10.979   1.122  0.00  0.00    +0.145 HD
ATOM     40  H   UNL     1      11.792  12.280   2.046  0.00  0.00    +0.145 HD
ENDBRANCH  19  30
BRANCH  19  14
ATOM     14  C   UNL     1       8.578   9.606   3.607  0.00  0.00    +0.035 C 
BRANCH  14  11
ATOM     11  C   UNL     1       7.460  10.093   2.688  0.00  0.00    -0.009 C 
ATOM     12  C   UNL     1       7.518   9.369   1.335  0.00  0.00    +0.003 C 
ATOM     13  C   UNL     1       6.090   9.900   3.352  0.00  0.00    +0.003 C 
ATOM     15  C   UNL     1       6.376   9.800   0.417  0.00  0.00    +0.000 C 
ATOM     16  C   UNL     1       4.950  10.329   2.430  0.00  0.00    +0.000 C 
ATOM     17  C   UNL     1       5.017   9.615   1.084  0.00  0.00    +0.000 C 
ENDBRANCH  14  11
ENDBRANCH  19  14
ENDBRANCH   7  19
ENDBRANCH  18  27
TORSDOF 7
ENDMDL
MODEL 5
REMARK VINA RESULT:      -6.5     27.635     31.537
REMARK  Name = 25391098
REMARK  7 active torsions:
REMARK  status: ('A' for Active; 'I' for Inactive)
REMARK    1  A    between atoms: N_7  and  C_19
REMARK    2  A    between atoms: C_11  and  C_14
REMARK    3  A    between atoms: C_14  and  C_19
REMARK    4  A    between atoms: C_18  and  C_27
REMARK    5  A    between atoms: C_19  and  C_30
REMARK    6  A    between atoms: C_20  and  C_23
REMARK    7  A    between atoms: C_31  and  C_32
REMARK                            x       y       z     vdW  Elec       q    Type
REMARK                         _______ _______ _______ _____ _____    ______ ____
ROOT
ATOM      1  O   UNL     1      -6.120  -9.239  12.751  0.00  0.00    -0.275 OA
ATOM      4  O   UNL     1      -6.598 -10.410  19.476  0.00  0.00    -0.270 OA
ATOM      5  N   UNL     1      -7.050 -10.321  14.590  0.00  0.00    -0.287 N 
ATOM      6  N   UNL     1      -7.620 -10.352  17.375  0.00  0.00    -0.294 N 
ATOM     18  C   UNL     1      -6.110  -9.694  15.532  0.00  0.00    +0.179 C 
ATOM     21  C   UNL     1      -6.760  -9.291  16.855  0.00  0.00    +0.140 C 
ATOM     22  C   UNL     1      -7.981 -11.316  15.151  0.00  0.00    +0.127 C 
ATOM     23  C   UNL     1      -6.900 -10.071  13.221  0.00  0.00    +0.219 C 
ATOM     26  C   UNL     1      -8.640 -10.812  16.429  0.00  0.00    +0.127 C 
ATOM     31  C   UNL     1      -7.457 -10.800  18.686  0.00  0.00    +0.248 C 
ENDROOT
BRANCH  23  20
ATOM      8  N   UNL     1      -7.085 -10.283   9.497  0.00  0.00    -0.316 NA
ATOM     20  C   UNL     1      -7.758 -10.879  12.289  0.00  0.00    +0.078 C 
ATOM     24  C   UNL     1      -6.903 -11.814  11.432  0.00  0.00    +0.028 C 
ATOM     25  C   UNL     1      -8.619  -9.967  11.412  0.00  0.00    +0.028 C 
ATOM     28  C   UNL     1      -6.164 -11.067  10.321  0.00  0.00    +0.081 C 
ATOM     29  C   UNL     1      -7.809  -9.298  10.301  0.00  0.00    +0.081 C 
ATOM     38  H   UNL     1      -6.560  -9.803   8.768  0.00  0.00    +0.122 HD
ENDBRANCH  23  20
BRANCH  31  32
ATOM     10  N   UNL     1      -8.886 -14.190  19.421  0.00  0.00    -0.263 NA
ATOM     32  C   UNL     1      -8.370 -11.840  19.180  0.00  0.00    +0.055 A 
ATOM     33  C   UNL     1      -9.542 -11.506  19.849  0.00  0.00    +0.016 A 
ATOM     34  C   UNL     1      -8.089 -13.185  18.992  0.00  0.00    +0.123 A 
ATOM     35  C   UNL     1     -10.386 -12.514  20.305  0.00  0.00    +0.020 A 
ATOM     36  C   UNL     1     -10.016 -13.827  20.067  0.00  0.00    +0.111 A 
ENDBRANCH  31  32
BRANCH  18  27
ATOM      2  O   UNL     1      -5.055 -11.551  16.604  0.00  0.00    -0.274 OA
ATOM      7  N   UNL     1      -3.938 -10.464  14.875  0.00  0.00    -0.302 N 
ATOM     27  C   UNL     1      -4.997 -10.680  15.739  0.00  0.00    +0.236 C 
ATOM     37  H   UNL     1      -3.984  -9.698  14.211  0.00  0.00    +0.150 HD
BRANCH   7  19
ATOM     19  C   UNL     1      -2.734 -11.263  14.886  0.00  0.00    +0.159 C 
BRANCH  19  30
ATOM      3  O   UNL     1      -0.930  -9.770  15.535  0.00  0.00    -0.274 OA
ATOM      9  N   UNL     1      -1.823 -11.164  17.126  0.00  0.00    -0.328 N 
ATOM     30  C   UNL     1      -1.741 -10.635  15.856  0.00  0.00    +0.231 C 
ATOM     39  H   UNL     1      -2.483 -11.895  17.373  0.00  0.00    +0.145 HD
ATOM     40  H   UNL     1      -1.209 -10.839  17.866  0.00  0.00    +0.145 HD
ENDBRANCH  19  30
BRANCH  19  14
ATOM     14  C   UNL     1      -2.151 -11.453  13.481  0.00  0.00    +0.035 C 
BRANCH  14  11
ATOM     11  C   UNL     1      -2.233 -12.887  12.959  0.00  0.00    -0.009 C 
ATOM     12  C   UNL     1      -2.685 -13.843  14.072  0.00  0.00    +0.003 C 
ATOM     13  C   UNL     1      -3.176 -12.970  11.751  0.00  0.00    +0.003 C 
ATOM     15  C   UNL     1      -2.827 -15.275  13.561  0.00  0.00    +0.000 C 
ATOM     16  C   UNL     1      -3.317 -14.404  11.244  0.00  0.00    +0.000 C 
ATOM     17  C   UNL     1      -3.757 -15.353  12.355  0.00  0.00    +0.000 C 
ENDBRANCH  14  11
ENDBRANCH  19  14
ENDBRANCH   7  19
ENDBRANCH  18  27
TORSDOF 7
ENDMDL
MODEL 6
REMARK VINA RESULT:      -6.5     16.744     19.399
REMARK  Name = 25391098
REMARK  7 active torsions:
REMARK  status: ('A' for Active; 'I' for Inactive)
REMARK    1  A    between atoms: N_7  and  C_19
REMARK    2  A    between atoms: C_11  and  C_14
REMARK    3  A    between atoms: C_14  and  C_19
REMARK    4  A    between atoms: C_18  and  C_27
REMARK    5  A    between atoms: C_19  and  C_30
REMARK    6  A    between atoms: C_20  and  C_23
REMARK    7  A    between atoms: C_31  and  C_32
REMARK                            x       y       z     vdW  Elec       q    Type
REMARK                         _______ _______ _______ _____ _____    ______ ____
ROOT
ATOM      1  O   UNL     1       9.013   7.368   4.209  0.00  0.00    -0.275 OA
ATOM      4  O   UNL     1      13.205   2.781   1.342  0.00  0.00    -0.270 OA
ATOM      5  N   UNL     1      10.117   6.453   2.376  0.00  0.00    -0.287 N 
ATOM      6  N   UNL     1      11.373   4.219   1.146  0.00  0.00    -0.294 N 
ATOM     18  C   UNL     1      10.853   5.486   3.203  0.00  0.00    +0.179 C 
ATOM     21  C   UNL     1      10.986   4.111   2.550  0.00  0.00    +0.140 C 
ATOM     22  C   UNL     1      10.448   6.479   0.940  0.00  0.00    +0.127 C 
ATOM     23  C   UNL     1       9.289   7.388   3.007  0.00  0.00    +0.219 C 
ATOM     26  C   UNL     1      10.493   5.076   0.348  0.00  0.00    +0.127 C 
ATOM     31  C   UNL     1      12.468   3.499   0.667  0.00  0.00    +0.248 C 
ENDROOT
BRANCH  23  20
ATOM      8  N   UNL     1       8.499  10.982   3.642  0.00  0.00    -0.316 NA
ATOM     20  C   UNL     1       8.711   8.471   2.140  0.00  0.00    +0.078 C 
ATOM     24  C   UNL     1       9.706   9.620   1.966  0.00  0.00    +0.028 C 
ATOM     25  C   UNL     1       7.385   8.978   2.713  0.00  0.00    +0.028 C 
ATOM     28  C   UNL     1       9.810  10.491   3.219  0.00  0.00    +0.081 C 
ATOM     29  C   UNL     1       7.587   9.877   3.935  0.00  0.00    +0.081 C 
ATOM     38  H   UNL     1       8.607  11.559   4.475  0.00  0.00    +0.122 HD
ENDBRANCH  23  20
BRANCH  31  32
ATOM     10  N   UNL     1      14.019   4.730  -2.519  0.00  0.00    -0.263 NA
ATOM     32  C   UNL     1      12.797   3.607  -0.760  0.00  0.00    +0.055 A 
ATOM     33  C   UNL     1      12.238   2.740  -1.692  0.00  0.00    +0.016 A 
ATOM     34  C   UNL     1      13.674   4.577  -1.220  0.00  0.00    +0.123 A 
ATOM     35  C   UNL     1      12.568   2.867  -3.038  0.00  0.00    +0.020 A 
ATOM     36  C   UNL     1      13.455   3.870  -3.396  0.00  0.00    +0.111 A 
ENDBRANCH  31  32
BRANCH  18  27
ATOM      2  O   UNL     1      13.110   6.056   2.661  0.00  0.00    -0.274 OA
ATOM      7  N   UNL     1      12.260   6.672   4.739  0.00  0.00    -0.302 N 
ATOM     27  C   UNL     1      12.195   6.099   3.480  0.00  0.00    +0.236 C 
ATOM     37  H   UNL     1      11.449   6.631   5.348  0.00  0.00    +0.150 HD
BRANCH   7  19
ATOM     19  C   UNL     1      13.449   7.309   5.257  0.00  0.00    +0.159 C 
BRANCH  19  30
ATOM      3  O   UNL     1      12.958   8.362   7.392  0.00  0.00    -0.274 OA
ATOM      9  N   UNL     1      13.766   6.212   7.391  0.00  0.00    -0.328 N 
ATOM     30  C   UNL     1      13.346   7.372   6.776  0.00  0.00    +0.231 C 
ATOM     39  H   UNL     1      14.104   5.409   6.872  0.00  0.00    +0.145 HD
ATOM     40  H   UNL     1      13.756   6.127   8.403  0.00  0.00    +0.145 HD
ENDBRANCH  19  30
BRANCH  19  14
ATOM     14  C   UNL     1      13.695   8.682   4.622  0.00  0.00    +0.035 C 
BRANCH  14  11
ATOM     11  C   UNL     1      15.171   9.035   4.448  0.00  0.00    -0.009 C 
ATOM     12  C   UNL     1      15.671   9.871   5.634  0.00  0.00    +0.003 C 
ATOM     13  C   UNL     1      16.015   7.764   4.282  0.00  0.00    +0.003 C 
ATOM     15  C   UNL     1      17.158  10.191   5.511  0.00  0.00    +0.000 C 
ATOM     16  C   UNL     1      17.504   8.089   4.160  0.00  0.00    +0.000 C 
ATOM     17  C   UNL     1      17.994   8.927   5.336  0.00  0.00    +0.000 C 
ENDBRANCH  14  11
ENDBRANCH  19  14
ENDBRANCH   7  19
ENDBRANCH  18  27
TORSDOF 7
ENDMDL
MODEL 7
REMARK VINA RESULT:      -6.5     29.367     31.425
REMARK  Name = 25391098
REMARK  7 active torsions:
REMARK  status: ('A' for Active; 'I' for Inactive)
REMARK    1  A    between atoms: N_7  and  C_19
REMARK    2  A    between atoms: C_11  and  C_14
REMARK    3  A    between atoms: C_14  and  C_19
REMARK    4  A    between atoms: C_18  and  C_27
REMARK    5  A    between atoms: C_19  and  C_30
REMARK    6  A    between atoms: C_20  and  C_23
REMARK    7  A    between atoms: C_31  and  C_32
REMARK                            x       y       z     vdW  Elec       q    Type
REMARK                         _______ _______ _______ _____ _____    ______ ____
ROOT
ATOM      1  O   UNL     1      -1.592 -13.084  13.450  0.00  0.00    -0.275 OA
ATOM      4  O   UNL     1      -4.883  -8.504   9.573  0.00  0.00    -0.270 OA
ATOM      5  N   UNL     1      -3.060 -12.516  11.735  0.00  0.00    -0.287 N 
ATOM      6  N   UNL     1      -3.939 -10.630   9.797  0.00  0.00    -0.294 N 
ATOM     18  C   UNL     1      -2.962 -11.077  12.023  0.00  0.00    +0.179 C 
ATOM     21  C   UNL     1      -2.928 -10.211  10.765  0.00  0.00    +0.140 C 
ATOM     22  C   UNL     1      -4.012 -12.914  10.683  0.00  0.00    +0.127 C 
ATOM     23  C   UNL     1      -2.388 -13.418  12.569  0.00  0.00    +0.219 C 
ATOM     26  C   UNL     1      -3.869 -12.049   9.437  0.00  0.00    +0.127 C 
ATOM     31  C   UNL     1      -4.828  -9.695   9.267  0.00  0.00    +0.248 C 
ENDROOT
BRANCH  23  20
ATOM      8  N   UNL     1      -1.790 -16.450  14.665  0.00  0.00    -0.316 NA
ATOM     20  C   UNL     1      -2.673 -14.877  12.351  0.00  0.00    +0.078 C 
ATOM     24  C   UNL     1      -3.647 -15.407  13.406  0.00  0.00    +0.028 C 
ATOM     25  C   UNL     1      -1.376 -15.690  12.347  0.00  0.00    +0.028 C 
ATOM     28  C   UNL     1      -2.977 -15.601  14.767  0.00  0.00    +0.081 C 
ATOM     29  C   UNL     1      -0.802 -15.873  13.753  0.00  0.00    +0.081 C 
ATOM     38  H   UNL     1      -1.373 -16.559  15.588  0.00  0.00    +0.122 HD
ENDBRANCH  23  20
BRANCH  31  32
ATOM     10  N   UNL     1      -7.993 -11.053   7.781  0.00  0.00    -0.263 NA
ATOM     32  C   UNL     1      -5.802 -10.154   8.268  0.00  0.00    +0.055 A 
ATOM     33  C   UNL     1      -5.498 -10.138   6.912  0.00  0.00    +0.016 A 
ATOM     34  C   UNL     1      -7.052 -10.617   8.649  0.00  0.00    +0.123 A 
ATOM     35  C   UNL     1      -6.441 -10.580   5.989  0.00  0.00    +0.020 A 
ATOM     36  C   UNL     1      -7.662 -11.023   6.471  0.00  0.00    +0.111 A 
ENDBRANCH  31  32
BRANCH  18  27
ATOM      2  O   UNL     1      -4.903  -9.820  12.624  0.00  0.00    -0.274 OA
ATOM      7  N   UNL     1      -4.208 -11.553  14.014  0.00  0.00    -0.302 N 
ATOM     27  C   UNL     1      -4.134 -10.738  12.898  0.00  0.00    +0.236 C 
ATOM     37  H   UNL     1      -3.503 -12.270  14.156  0.00  0.00    +0.150 HD
BRANCH   7  19
ATOM     19  C   UNL     1      -5.231 -11.418  15.025  0.00  0.00    +0.159 C 
BRANCH  19  30
ATOM      3  O   UNL     1      -6.964 -12.643  13.840  0.00  0.00    -0.274 OA
ATOM      9  N   UNL     1      -7.356 -10.448  14.390  0.00  0.00    -0.328 N 
ATOM     30  C   UNL     1      -6.593 -11.596  14.366  0.00  0.00    +0.231 C 
ATOM     39  H   UNL     1      -7.030  -9.583  14.809  0.00  0.00    +0.145 HD
ATOM     40  H   UNL     1      -8.283 -10.430  13.976  0.00  0.00    +0.145 HD
ENDBRANCH  19  30
BRANCH  19  14
ATOM     14  C   UNL     1      -5.114 -10.100  15.797  0.00  0.00    +0.035 C 
BRANCH  14  11
ATOM     11  C   UNL     1      -5.024 -10.269  17.313  0.00  0.00    -0.009 C 
ATOM     12  C   UNL     1      -6.422 -10.233  17.946  0.00  0.00    +0.003 C 
ATOM     13  C   UNL     1      -4.296 -11.572  17.669  0.00  0.00    +0.003 C 
ATOM     15  C   UNL     1      -6.362 -10.455  19.455  0.00  0.00    +0.000 C 
ATOM     16  C   UNL     1      -4.240 -11.791  19.181  0.00  0.00    +0.000 C 
ATOM     17  C   UNL     1      -5.630 -11.746  19.807  0.00  0.00    +0.000 C 
ENDBRANCH  14  11
ENDBRANCH  19  14
ENDBRANCH   7  19
ENDBRANCH  18  27
TORSDOF 7
ENDMDL
MODEL 8
REMARK VINA RESULT:      -6.4     29.586     33.782
REMARK  Name = 25391098
REMARK  7 active torsions:
REMARK  status: ('A' for Active; 'I' for Inactive)
REMARK    1  A    between atoms: N_7  and  C_19
REMARK    2  A    between atoms: C_11  and  C_14
REMARK    3  A    between atoms: C_14  and  C_19
REMARK    4  A    between atoms: C_18  and  C_27
REMARK    5  A    between atoms: C_19  and  C_30
REMARK    6  A    between atoms: C_20  and  C_23
REMARK    7  A    between atoms: C_31  and  C_32
REMARK                            x       y       z     vdW  Elec       q    Type
REMARK                         _______ _______ _______ _____ _____    ______ ____
ROOT
ATOM      1  O   UNL     1     -12.091 -14.354  19.270  0.00  0.00    -0.275 OA
ATOM      4  O   UNL     1      -6.183 -11.137  20.527  0.00  0.00    -0.270 OA
ATOM      5  N   UNL     1     -10.098 -13.368  18.581  0.00  0.00    -0.287 N 
ATOM      6  N   UNL     1      -7.433 -12.575  19.174  0.00  0.00    -0.294 N 
ATOM     18  C   UNL     1      -9.755 -12.928  19.942  0.00  0.00    +0.179 C 
ATOM     21  C   UNL     1      -8.269 -13.069  20.266  0.00  0.00    +0.140 C 
ATOM     22  C   UNL     1      -9.186 -12.946  17.503  0.00  0.00    +0.127 C 
ATOM     23  C   UNL     1     -11.328 -14.002  18.367  0.00  0.00    +0.219 C 
ATOM     26  C   UNL     1      -7.728 -13.183  17.874  0.00  0.00    +0.127 C 
ATOM     31  C   UNL     1      -6.426 -11.644  19.432  0.00  0.00    +0.248 C 
ENDROOT
BRANCH  23  20
ATOM      8  N   UNL     1     -14.626 -14.106  16.619  0.00  0.00    -0.316 NA
ATOM     20  C   UNL     1     -11.713 -14.259  16.938  0.00  0.00    +0.078 C 
ATOM     24  C   UNL     1     -12.412 -13.039  16.333  0.00  0.00    +0.028 C 
ATOM     25  C   UNL     1     -12.595 -15.505  16.828  0.00  0.00    +0.028 C 
ATOM     28  C   UNL     1     -13.848 -12.886  16.835  0.00  0.00    +0.081 C 
ATOM     29  C   UNL     1     -14.025 -15.248  17.309  0.00  0.00    +0.081 C 
ATOM     38  H   UNL     1     -15.575 -13.967  16.962  0.00  0.00    +0.122 HD
ENDBRANCH  23  20
BRANCH  31  32
ATOM     10  N   UNL     1      -3.476 -11.345  17.135  0.00  0.00    -0.263 NA
ATOM     32  C   UNL     1      -5.585 -11.206  18.312  0.00  0.00    +0.055 A 
ATOM     33  C   UNL     1      -6.048 -10.277  17.387  0.00  0.00    +0.016 A 
ATOM     34  C   UNL     1      -4.302 -11.706  18.143  0.00  0.00    +0.123 A 
ATOM     35  C   UNL     1      -5.227  -9.882  16.336  0.00  0.00    +0.020 A 
ATOM     36  C   UNL     1      -3.961 -10.440  16.256  0.00  0.00    +0.111 A 
ENDBRANCH  31  32
BRANCH  18  27
ATOM      2  O   UNL     1      -9.458 -10.605  20.419  0.00  0.00    -0.274 OA
ATOM      7  N   UNL     1     -11.551 -11.355  19.730  0.00  0.00    -0.302 N 
ATOM     27  C   UNL     1     -10.214 -11.503  20.055  0.00  0.00    +0.236 C 
ATOM     37  H   UNL     1     -12.092 -12.171  19.463  0.00  0.00    +0.150 HD
BRANCH   7  19
ATOM     19  C   UNL     1     -12.241 -10.086  19.779  0.00  0.00    +0.159 C 
BRANCH  19  30
ATOM      3  O   UNL     1     -14.354  -9.427  20.782  0.00  0.00    -0.274 OA
ATOM      9  N   UNL     1     -13.244 -11.237  21.657  0.00  0.00    -0.328 N 
ATOM     30  C   UNL     1     -13.398 -10.199  20.764  0.00  0.00    +0.231 C 
ATOM     39  H   UNL     1     -12.438 -11.855  21.646  0.00  0.00    +0.145 HD
ATOM     40  H   UNL     1     -13.941 -11.416  22.373  0.00  0.00    +0.145 HD
ENDBRANCH  19  30
BRANCH  19  14
ATOM     14  C   UNL     1     -12.687  -9.614  18.391  0.00  0.00    +0.035 C 
BRANCH  14  11
ATOM     11  C   UNL     1     -11.570  -9.593  17.349  0.00  0.00    -0.009 C 
ATOM     12  C   UNL     1     -12.142  -9.324  15.950  0.00  0.00    +0.003 C 
ATOM     13  C   UNL     1     -10.507  -8.550  17.716  0.00  0.00    +0.003 C 
ATOM     15  C   UNL     1     -11.038  -9.245  14.897  0.00  0.00    +0.000 C 
ATOM     16  C   UNL     1      -9.406  -8.472  16.659  0.00  0.00    +0.000 C 
ATOM     17  C   UNL     1      -9.978  -8.213  15.269  0.00  0.00    +0.000 C 
ENDBRANCH  14  11
ENDBRANCH  19  14
ENDBRANCH   7  19
ENDBRANCH  18  27
TORSDOF 7
ENDMDL
MODEL 9
REMARK VINA RESULT:      -6.4     15.238     18.683
REMARK  Name = 25391098
REMARK  7 active torsions:
REMARK  status: ('A' for Active; 'I' for Inactive)
REMARK    1  A    between atoms: N_7  and  C_19
REMARK    2  A    between atoms: C_11  and  C_14
REMARK    3  A    between atoms: C_14  and  C_19
REMARK    4  A    between atoms: C_18  and  C_27
REMARK    5  A    between atoms: C_19  and  C_30
REMARK    6  A    between atoms: C_20  and  C_23
REMARK    7  A    between atoms: C_31  and  C_32
REMARK                            x       y       z     vdW  Elec       q    Type
REMARK                         _______ _______ _______ _____ _____    ______ ____
ROOT
ATOM      1  O   UNL     1      12.369   6.523   0.141  0.00  0.00    -0.275 OA
ATOM      4  O   UNL     1      11.297   9.056   6.407  0.00  0.00    -0.270 OA
ATOM      5  N   UNL     1      11.712   6.306   2.363  0.00  0.00    -0.287 N 
ATOM      6  N   UNL     1      10.740   7.504   4.751  0.00  0.00    -0.294 N 
ATOM     18  C   UNL     1      12.096   7.687   2.693  0.00  0.00    +0.179 C 
ATOM     21  C   UNL     1      11.115   8.376   3.640  0.00  0.00    +0.140 C 
ATOM     22  C   UNL     1      11.238   5.469   3.480  0.00  0.00    +0.127 C 
ATOM     23  C   UNL     1      11.972   5.823   1.075  0.00  0.00    +0.219 C 
ATOM     26  C   UNL     1      10.213   6.201   4.336  0.00  0.00    +0.127 C 
ATOM     31  C   UNL     1      10.853   7.960   6.065  0.00  0.00    +0.248 C 
ENDROOT
BRANCH  23  20
ATOM      8  N   UNL     1      13.293   3.421  -1.460  0.00  0.00    -0.316 NA
ATOM     20  C   UNL     1      11.739   4.356   0.845  0.00  0.00    +0.078 C 
ATOM     24  C   UNL     1      13.041   3.567   0.997  0.00  0.00    +0.028 C 
ATOM     25  C   UNL     1      11.108   4.114  -0.528  0.00  0.00    +0.028 C 
ATOM     28  C   UNL     1      13.970   3.746  -0.205  0.00  0.00    +0.081 C 
ATOM     29  C   UNL     1      12.119   4.269  -1.666  0.00  0.00    +0.081 C 
ATOM     38  H   UNL     1      13.941   3.548  -2.236  0.00  0.00    +0.122 HD
ENDBRANCH  23  20
BRANCH  31  32
ATOM     10  N   UNL     1      10.961   5.257   8.663  0.00  0.00    -0.263 NA
ATOM     32  C   UNL     1      10.427   7.064   7.147  0.00  0.00    +0.055 A 
ATOM     33  C   UNL     1       9.147   7.144   7.682  0.00  0.00    +0.016 A 
ATOM     34  C   UNL     1      11.290   6.112   7.668  0.00  0.00    +0.123 A 
ATOM     35  C   UNL     1       8.772   6.282   8.708  0.00  0.00    +0.020 A 
ATOM     36  C   UNL     1       9.707   5.365   9.158  0.00  0.00    +0.111 A 
ENDBRANCH  31  32
BRANCH  18  27
ATOM      2  O   UNL     1      14.243   6.692   3.021  0.00  0.00    -0.274 OA
ATOM      7  N   UNL     1      13.739   8.675   4.130  0.00  0.00    -0.302 N 
ATOM     27  C   UNL     1      13.475   7.615   3.280  0.00  0.00    +0.236 C 
ATOM     37  H   UNL     1      13.022   9.375   4.292  0.00  0.00    +0.150 HD
BRANCH   7  19
ATOM     19  C   UNL     1      14.988   8.828   4.840  0.00  0.00    +0.159 C 
BRANCH  19  30
ATOM      3  O   UNL     1      14.831  10.309   6.760  0.00  0.00    -0.274 OA
ATOM      9  N   UNL     1      14.264   8.100   7.031  0.00  0.00    -0.328 N 
ATOM     30  C   UNL     1      14.686   9.183   6.290  0.00  0.00    +0.231 C 
ATOM     39  H   UNL     1      14.168   7.170   6.636  0.00  0.00    +0.145 HD
ATOM     40  H   UNL     1      14.037   8.200   8.016  0.00  0.00    +0.145 HD
ENDBRANCH  19  30
BRANCH  19  14
ATOM     14  C   UNL     1      15.920   9.839   4.163  0.00  0.00    +0.035 C 
BRANCH  14  11
ATOM     11  C   UNL     1      17.405   9.594   4.425  0.00  0.00    -0.009 C 
ATOM     12  C   UNL     1      17.764   8.124   4.167  0.00  0.00    +0.003 C 
ATOM     13  C   UNL     1      18.268  10.526   3.564  0.00  0.00    +0.003 C 
ATOM     15  C   UNL     1      19.256   7.865   4.370  0.00  0.00    +0.000 C 
ATOM     16  C   UNL     1      19.759  10.263   3.768  0.00  0.00    +0.000 C 
ATOM     17  C   UNL     1      20.110   8.800   3.520  0.00  0.00    +0.000 C 
ENDBRANCH  14  11
ENDBRANCH  19  14
ENDBRANCH   7  19
ENDBRANCH  18  27
TORSDOF 7
ENDMDL
MODEL 10
REMARK VINA RESULT:      -6.4     28.847     31.723
REMARK  Name = 25391098
REMARK  7 active torsions:
REMARK  status: ('A' for Active; 'I' for Inactive)
REMARK    1  A    between atoms: N_7  and  C_19
REMARK    2  A    between atoms: C_11  and  C_14
REMARK    3  A    between atoms: C_14  and  C_19
REMARK    4  A    between atoms: C_18  and  C_27
REMARK    5  A    between atoms: C_19  and  C_30
REMARK    6  A    between atoms: C_20  and  C_23
REMARK    7  A    between atoms: C_31  and  C_32
REMARK                            x       y       z     vdW  Elec       q    Type
REMARK                         _______ _______ _______ _____ _____    ______ ____
ROOT
ATOM      1  O   UNL     1      -6.443 -12.969  17.579  0.00  0.00    -0.275 OA
ATOM      4  O   UNL     1     -12.232 -10.750  14.681  0.00  0.00    -0.270 OA
ATOM      5  N   UNL     1      -7.961 -11.289  17.038  0.00  0.00    -0.287 N 
ATOM      6  N   UNL     1     -10.609 -10.520  16.346  0.00  0.00    -0.294 N 
ATOM     18  C   UNL     1      -8.795 -12.194  16.234  0.00  0.00    +0.179 C 
ATOM     21  C   UNL     1     -10.293 -11.945  16.402  0.00  0.00    +0.140 C 
ATOM     22  C   UNL     1      -8.355  -9.869  17.053  0.00  0.00    +0.127 C 
ATOM     23  C   UNL     1      -6.773 -11.780  17.592  0.00  0.00    +0.219 C 
ATOM     26  C   UNL     1      -9.849  -9.701  17.295  0.00  0.00    +0.127 C 
ATOM     31  C   UNL     1     -11.597 -10.058  15.476  0.00  0.00    +0.248 C 
ENDROOT
BRANCH  23  20
ATOM      8  N   UNL     1      -3.080 -11.691  18.138  0.00  0.00    -0.316 NA
ATOM     20  C   UNL     1      -5.865 -10.774  18.241  0.00  0.00    +0.078 C 
ATOM     24  C   UNL     1      -4.854 -10.222  17.234  0.00  0.00    +0.028 C 
ATOM     25  C   UNL     1      -5.154 -11.383  19.452  0.00  0.00    +0.028 C 
ATOM     28  C   UNL     1      -3.743 -11.225  16.920  0.00  0.00    +0.081 C 
ATOM     29  C   UNL     1      -4.029 -12.336  19.045  0.00  0.00    +0.081 C 
ATOM     38  H   UNL     1      -2.346 -12.353  17.891  0.00  0.00    +0.122 HD
ENDBRANCH  23  20
BRANCH  31  32
ATOM     10  N   UNL     1     -11.219  -6.357  14.994  0.00  0.00    -0.263 NA
ATOM     32  C   UNL     1     -11.909  -8.623  15.482  0.00  0.00    +0.055 A 
ATOM     33  C   UNL     1     -13.130  -8.157  15.955  0.00  0.00    +0.016 A 
ATOM     34  C   UNL     1     -10.995  -7.691  15.016  0.00  0.00    +0.123 A 
ATOM     35  C   UNL     1     -13.397  -6.792  15.949  0.00  0.00    +0.020 A 
ATOM     36  C   UNL     1     -12.417  -5.942  15.463  0.00  0.00    +0.111 A 
ENDBRANCH  31  32
BRANCH  18  27
ATOM      2  O   UNL     1      -9.173 -11.882  13.895  0.00  0.00    -0.274 OA
ATOM      7  N   UNL     1      -6.984 -12.046  14.671  0.00  0.00    -0.302 N 
ATOM     27  C   UNL     1      -8.361 -12.016  14.808  0.00  0.00    +0.236 C 
ATOM     37  H   UNL     1      -6.404 -12.186  15.492  0.00  0.00    +0.150 HD
BRANCH   7  19
ATOM     19  C   UNL     1      -6.313 -11.918  13.397  0.00  0.00    +0.159 C 
BRANCH  19  30
ATOM      3  O   UNL     1      -5.321 -13.727  12.112  0.00  0.00    -0.274 OA
ATOM      9  N   UNL     1      -4.789 -13.546  14.339  0.00  0.00    -0.328 N 
ATOM     30  C   UNL     1      -5.430 -13.142  13.187  0.00  0.00    +0.231 C 
ATOM     39  H   UNL     1      -4.904 -13.066  15.226  0.00  0.00    +0.145 HD
ATOM     40  H   UNL     1      -4.176 -14.355  14.337  0.00  0.00    +0.145 HD
ENDBRANCH  19  30
BRANCH  19  14
ATOM     14  C   UNL     1      -5.540 -10.601  13.278  0.00  0.00    +0.035 C 
BRANCH  14  11
ATOM     11  C   UNL     1      -4.435 -10.617  12.223  0.00  0.00    -0.009 C 
ATOM     12  C   UNL     1      -4.664  -9.512  11.183  0.00  0.00    +0.003 C 
ATOM     13  C   UNL     1      -3.057 -10.472  12.882  0.00  0.00    +0.003 C 
ATOM     15  C   UNL     1      -3.542  -9.473  10.147  0.00  0.00    +0.000 C 
ATOM     16  C   UNL     1      -1.937 -10.431  11.842  0.00  0.00    +0.000 C 
ATOM     17  C   UNL     1      -2.173  -9.338  10.805  0.00  0.00    +0.000 C 
ENDBRANCH  14  11
ENDBRANCH  19  14
ENDBRANCH   7  19
ENDBRANCH  18  27
TORSDOF 7
ENDMDL
