MODEL 1
REMARK VINA RESULT:      -6.0      0.000      0.000
REMARK  Name = 71693359
REMARK  10 active torsions:
REMARK  status: ('A' for Active; 'I' for Inactive)
REMARK    1  A    between atoms: O_2  and  C_11
REMARK    2  A    between atoms: O_5  and  C_23
REMARK    3  A    between atoms: O_5  and  C_24
REMARK    4  A    between atoms: N_6  and  C_10
REMARK    5  A    between atoms: N_7  and  C_21
REMARK    6  A    between atoms: C_8  and  C_11
REMARK    7  A    between atoms: C_9  and  C_13
REMARK    8  A    between atoms: C_10  and  C_15
REMARK    9  A    between atoms: C_10  and  C_16
REMARK   10  A    between atoms: C_22  and  C_23
REMARK                            x       y       z     vdW  Elec       q    Type
REMARK                         _______ _______ _______ _____ _____    ______ ____
ROOT
ATOM      1  O   UNL     1      20.395   5.971  20.300  0.00  0.00    -0.361 OA
ATOM      3  O   UNL     1      22.935   8.182  19.693  0.00  0.00    -0.273 OA
ATOM      6  N   UNL     1      21.041   8.500  21.021  0.00  0.00    -0.289 N 
ATOM      8  C   UNL     1      20.061   7.859  21.904  0.00  0.00    +0.135 C 
ATOM      9  C   UNL     1      19.553   6.512  21.324  0.00  0.00    +0.171 C 
ATOM     12  C   UNL     1      21.990   7.738  20.342  0.00  0.00    +0.242 C 
ATOM     14  C   UNL     1      21.768   6.251  20.485  0.00  0.00    +0.256 C 
ENDROOT
BRANCH   9  13
ATOM     13  C   UNL     1      18.166   6.659  20.728  0.00  0.00    -0.017 A 
ATOM     17  C   UNL     1      17.247   7.532  21.310  0.00  0.00    +0.008 A 
ATOM     18  C   UNL     1      17.809   5.923  19.598  0.00  0.00    +0.008 A 
ATOM     19  C   UNL     1      15.970   7.668  20.763  0.00  0.00    +0.023 A 
ATOM     20  C   UNL     1      16.534   6.060  19.051  0.00  0.00    +0.023 A 
ATOM     21  C   UNL     1      15.614   6.932  19.634  0.00  0.00    +0.033 A 
BRANCH  21   7
ATOM      4  O   UNL     1      14.514   8.988  17.733  0.00  0.00    -0.273 OA
ATOM      7  N   UNL     1      14.338   7.067  19.087  0.00  0.00    -0.284 N 
ATOM     22  C   UNL     1      13.878   8.048  18.198  0.00  0.00    +0.243 C 
ATOM     26  H   UNL     1      13.664   6.360  19.374  0.00  0.00    +0.155 HD
BRANCH  22  23
ATOM     23  C   UNL     1      12.422   7.852  17.834  0.00  0.00    +0.255 C 
BRANCH  23   5
ATOM      5  O   UNL     1      11.713   7.454  18.990  0.00  0.00    -0.374 OA
ATOM     24  C   UNL     1      11.145   8.567  19.673  0.00  0.00    +0.194 C 
ENDBRANCH  23   5
ENDBRANCH  22  23
ENDBRANCH  21   7
ENDBRANCH   9  13
BRANCH   6  10
ATOM     10  C   UNL     1      21.078   9.953  20.979  0.00  0.00    +0.070 C 
ATOM     15  C   UNL     1      19.674  10.528  21.129  0.00  0.00    +0.028 C 
ATOM     16  C   UNL     1      22.012  10.492  22.054  0.00  0.00    +0.028 C 
ENDBRANCH   6  10
BRANCH   8  11
ATOM     11  C   UNL     1      20.641   7.672  23.312  0.00  0.00    +0.181 C 
BRANCH  11   2
ATOM      2  O   UNL     1      19.980   6.583  23.921  0.00  0.00    -0.393 OA
ATOM     25  H   UNL     1      19.026   6.713  23.788  0.00  0.00    +0.209 HD
ENDBRANCH  11   2
ENDBRANCH   8  11
TORSDOF 7
ENDMDL
MODEL 2
REMARK VINA RESULT:      -6.0      2.534      8.041
REMARK  Name = 71693359
REMARK  10 active torsions:
REMARK  status: ('A' for Active; 'I' for Inactive)
REMARK    1  A    between atoms: O_2  and  C_11
REMARK    2  A    between atoms: O_5  and  C_23
REMARK    3  A    between atoms: O_5  and  C_24
REMARK    4  A    between atoms: N_6  and  C_10
REMARK    5  A    between atoms: N_7  and  C_21
REMARK    6  A    between atoms: C_8  and  C_11
REMARK    7  A    between atoms: C_9  and  C_13
REMARK    8  A    between atoms: C_10  and  C_15
REMARK    9  A    between atoms: C_10  and  C_16
REMARK   10  A    between atoms: C_22  and  C_23
REMARK                            x       y       z     vdW  Elec       q    Type
REMARK                         _______ _______ _______ _____ _____    ______ ____
ROOT
ATOM      1  O   UNL     1      12.589   6.518  21.047  0.00  0.00    -0.361 OA
ATOM      3  O   UNL     1      10.662   9.121  22.151  0.00  0.00    -0.273 OA
ATOM      6  N   UNL     1      12.208   9.120  20.402  0.00  0.00    -0.289 N 
ATOM      8  C   UNL     1      12.831   8.326  19.337  0.00  0.00    +0.135 C 
ATOM      9  C   UNL     1      13.237   6.913  19.833  0.00  0.00    +0.171 C 
ATOM     12  C   UNL     1      11.339   8.527  21.315  0.00  0.00    +0.242 C 
ATOM     14  C   UNL     1      11.277   7.024  21.182  0.00  0.00    +0.256 C 
ENDROOT
BRANCH   9  13
ATOM     13  C   UNL     1      14.732   6.826  20.078  0.00  0.00    -0.017 A 
ATOM     17  C   UNL     1      15.599   6.579  19.013  0.00  0.00    +0.008 A 
ATOM     18  C   UNL     1      15.240   6.995  21.366  0.00  0.00    +0.008 A 
ATOM     19  C   UNL     1      16.974   6.498  19.237  0.00  0.00    +0.023 A 
ATOM     20  C   UNL     1      16.614   6.915  21.589  0.00  0.00    +0.023 A 
ATOM     21  C   UNL     1      17.481   6.666  20.524  0.00  0.00    +0.033 A 
BRANCH  21   7
ATOM      4  O   UNL     1      19.424   4.439  19.962  0.00  0.00    -0.273 OA
ATOM      7  N   UNL     1      18.856   6.586  20.749  0.00  0.00    -0.284 N 
ATOM     22  C   UNL     1      19.718   5.518  20.464  0.00  0.00    +0.243 C 
ATOM     26  H   UNL     1      19.276   7.409  21.174  0.00  0.00    +0.155 HD
BRANCH  22  23
ATOM     23  C   UNL     1      21.148   5.817  20.860  0.00  0.00    +0.255 C 
BRANCH  23   5
ATOM      5  O   UNL     1      21.399   5.246  22.127  0.00  0.00    -0.374 OA
ATOM     24  C   UNL     1      22.222   4.088  22.034  0.00  0.00    +0.194 C 
ENDBRANCH  23   5
ENDBRANCH  22  23
ENDBRANCH  21   7
ENDBRANCH   9  13
BRANCH   6  10
ATOM     10  C   UNL     1      12.418  10.560  20.395  0.00  0.00    +0.070 C 
ATOM     15  C   UNL     1      13.126  11.001  21.670  0.00  0.00    +0.028 C 
ATOM     16  C   UNL     1      13.200  10.976  19.157  0.00  0.00    +0.028 C 
ENDBRANCH   6  10
BRANCH   8  11
ATOM     11  C   UNL     1      11.907   8.240  18.115  0.00  0.00    +0.181 C 
BRANCH  11   2
ATOM      2  O   UNL     1      12.043   6.953  17.549  0.00  0.00    -0.393 OA
ATOM     25  H   UNL     1      12.587   6.426  18.156  0.00  0.00    +0.209 HD
ENDBRANCH  11   2
ENDBRANCH   8  11
TORSDOF 7
ENDMDL
MODEL 3
REMARK VINA RESULT:      -5.9      2.304      7.636
REMARK  Name = 71693359
REMARK  10 active torsions:
REMARK  status: ('A' for Active; 'I' for Inactive)
REMARK    1  A    between atoms: O_2  and  C_11
REMARK    2  A    between atoms: O_5  and  C_23
REMARK    3  A    between atoms: O_5  and  C_24
REMARK    4  A    between atoms: N_6  and  C_10
REMARK    5  A    between atoms: N_7  and  C_21
REMARK    6  A    between atoms: C_8  and  C_11
REMARK    7  A    between atoms: C_9  and  C_13
REMARK    8  A    between atoms: C_10  and  C_15
REMARK    9  A    between atoms: C_10  and  C_16
REMARK   10  A    between atoms: C_22  and  C_23
REMARK                            x       y       z     vdW  Elec       q    Type
REMARK                         _______ _______ _______ _____ _____    ______ ____
ROOT
ATOM      1  O   UNL     1      14.100   7.613  21.674  0.00  0.00    -0.361 OA
ATOM      3  O   UNL     1      12.716  10.707  21.209  0.00  0.00    -0.273 OA
ATOM      6  N   UNL     1      13.640   9.291  19.600  0.00  0.00    -0.289 N 
ATOM      8  C   UNL     1      13.869   7.899  19.201  0.00  0.00    +0.135 C 
ATOM      9  C   UNL     1      14.353   7.029  20.391  0.00  0.00    +0.171 C 
ATOM     12  C   UNL     1      13.075   9.592  20.837  0.00  0.00    +0.242 C 
ATOM     14  C   UNL     1      12.915   8.381  21.725  0.00  0.00    +0.256 C 
ENDROOT
BRANCH   9  13
ATOM     13  C   UNL     1      15.845   6.768  20.308  0.00  0.00    -0.017 A 
ATOM     17  C   UNL     1      16.693   7.252  21.304  0.00  0.00    +0.008 A 
ATOM     18  C   UNL     1      16.369   6.043  19.237  0.00  0.00    +0.008 A 
ATOM     19  C   UNL     1      18.066   7.012  21.229  0.00  0.00    +0.023 A 
ATOM     20  C   UNL     1      17.741   5.804  19.163  0.00  0.00    +0.023 A 
ATOM     21  C   UNL     1      18.590   6.289  20.159  0.00  0.00    +0.033 A 
BRANCH  21   7
ATOM      4  O   UNL     1      20.541   5.429  22.281  0.00  0.00    -0.273 OA
ATOM      7  N   UNL     1      19.962   6.048  20.083  0.00  0.00    -0.284 N 
ATOM     22  C   UNL     1      20.827   5.645  21.108  0.00  0.00    +0.243 C 
ATOM     26  H   UNL     1      20.377   6.186  19.164  0.00  0.00    +0.155 HD
BRANCH  22  23
ATOM     23  C   UNL     1      22.253   5.491  20.625  0.00  0.00    +0.255 C 
BRANCH  23   5
ATOM      5  O   UNL     1      22.831   6.774  20.494  0.00  0.00    -0.374 OA
ATOM     24  C   UNL     1      24.210   6.774  20.847  0.00  0.00    +0.194 C 
ENDBRANCH  23   5
ENDBRANCH  22  23
ENDBRANCH  21   7
ENDBRANCH   9  13
BRANCH   6  10
ATOM     10  C   UNL     1      13.894  10.336  18.619  0.00  0.00    +0.070 C 
ATOM     15  C   UNL     1      15.219  11.031  18.911  0.00  0.00    +0.028 C 
ATOM     16  C   UNL     1      13.873   9.758  17.211  0.00  0.00    +0.028 C 
ENDBRANCH   6  10
BRANCH   8  11
ATOM     11  C   UNL     1      12.609   7.306  18.558  0.00  0.00    +0.181 C 
BRANCH  11   2
ATOM      2  O   UNL     1      12.233   6.161  19.296  0.00  0.00    -0.393 OA
ATOM     25  H   UNL     1      11.378   6.355  19.715  0.00  0.00    +0.209 HD
ENDBRANCH  11   2
ENDBRANCH   8  11
TORSDOF 7
ENDMDL
MODEL 4
REMARK VINA RESULT:      -5.8      5.159      8.240
REMARK  Name = 71693359
REMARK  10 active torsions:
REMARK  status: ('A' for Active; 'I' for Inactive)
REMARK    1  A    between atoms: O_2  and  C_11
REMARK    2  A    between atoms: O_5  and  C_23
REMARK    3  A    between atoms: O_5  and  C_24
REMARK    4  A    between atoms: N_6  and  C_10
REMARK    5  A    between atoms: N_7  and  C_21
REMARK    6  A    between atoms: C_8  and  C_11
REMARK    7  A    between atoms: C_9  and  C_13
REMARK    8  A    between atoms: C_10  and  C_15
REMARK    9  A    between atoms: C_10  and  C_16
REMARK   10  A    between atoms: C_22  and  C_23
REMARK                            x       y       z     vdW  Elec       q    Type
REMARK                         _______ _______ _______ _____ _____    ______ ____
ROOT
ATOM      1  O   UNL     1      11.089   8.166  19.018  0.00  0.00    -0.361 OA
ATOM      3  O   UNL     1      12.691   8.998  16.112  0.00  0.00    -0.273 OA
ATOM      6  N   UNL     1      13.557   8.997  18.279  0.00  0.00    -0.289 N 
ATOM      8  C   UNL     1      13.512   8.362  19.601  0.00  0.00    +0.135 C 
ATOM      9  C   UNL     1      12.055   8.116  20.074  0.00  0.00    +0.171 C 
ATOM     12  C   UNL     1      12.653   8.633  17.285  0.00  0.00    +0.242 C 
ATOM     14  C   UNL     1      11.576   7.695  17.778  0.00  0.00    +0.256 C 
ENDROOT
BRANCH   9  13
ATOM     13  C   UNL     1      11.634   9.140  21.111  0.00  0.00    -0.017 A 
ATOM     17  C   UNL     1      10.990   8.726  22.277  0.00  0.00    +0.008 A 
ATOM     18  C   UNL     1      11.891  10.495  20.900  0.00  0.00    +0.008 A 
ATOM     19  C   UNL     1      10.601   9.667  23.231  0.00  0.00    +0.023 A 
ATOM     20  C   UNL     1      11.503  11.434  21.854  0.00  0.00    +0.023 A 
ATOM     21  C   UNL     1      10.858  11.021  23.020  0.00  0.00    +0.033 A 
BRANCH  21   7
ATOM      4  O   UNL     1      12.231  11.925  25.540  0.00  0.00    -0.273 OA
ATOM      7  N   UNL     1      10.470  11.962  23.974  0.00  0.00    -0.284 N 
ATOM     22  C   UNL     1      11.154  12.349  25.134  0.00  0.00    +0.243 C 
ATOM     26  H   UNL     1       9.579  12.420  23.796  0.00  0.00    +0.155 HD
BRANCH  22  23
ATOM     23  C   UNL     1      10.401  13.405  25.915  0.00  0.00    +0.255 C 
BRANCH  23   5
ATOM      5  O   UNL     1      11.175  14.586  25.947  0.00  0.00    -0.374 OA
ATOM     24  C   UNL     1      10.817  15.483  24.900  0.00  0.00    +0.194 C 
ENDBRANCH  23   5
ENDBRANCH  22  23
ENDBRANCH  21   7
ENDBRANCH   9  13
BRANCH   6  10
ATOM     10  C   UNL     1      14.650   9.915  17.997  0.00  0.00    +0.070 C 
ATOM     15  C   UNL     1      14.122  11.193  17.356  0.00  0.00    +0.028 C 
ATOM     16  C   UNL     1      15.431  10.217  19.269  0.00  0.00    +0.028 C 
ENDBRANCH   6  10
BRANCH   8  11
ATOM     11  C   UNL     1      14.323   7.060  19.604  0.00  0.00    +0.181 C 
BRANCH  11   2
ATOM      2  O   UNL     1      13.903   6.280  20.704  0.00  0.00    -0.393 OA
ATOM     25  H   UNL     1      14.114   6.780  21.510  0.00  0.00    +0.209 HD
ENDBRANCH  11   2
ENDBRANCH   8  11
TORSDOF 7
ENDMDL
MODEL 5
REMARK VINA RESULT:      -5.7      2.340      7.734
REMARK  Name = 71693359
REMARK  10 active torsions:
REMARK  status: ('A' for Active; 'I' for Inactive)
REMARK    1  A    between atoms: O_2  and  C_11
REMARK    2  A    between atoms: O_5  and  C_23
REMARK    3  A    between atoms: O_5  and  C_24
REMARK    4  A    between atoms: N_6  and  C_10
REMARK    5  A    between atoms: N_7  and  C_21
REMARK    6  A    between atoms: C_8  and  C_11
REMARK    7  A    between atoms: C_9  and  C_13
REMARK    8  A    between atoms: C_10  and  C_15
REMARK    9  A    between atoms: C_10  and  C_16
REMARK   10  A    between atoms: C_22  and  C_23
REMARK                            x       y       z     vdW  Elec       q    Type
REMARK                         _______ _______ _______ _____ _____    ______ ____
ROOT
ATOM      1  O   UNL     1      13.832   6.625  19.677  0.00  0.00    -0.361 OA
ATOM      3  O   UNL     1      11.400   7.540  21.904  0.00  0.00    -0.273 OA
ATOM      6  N   UNL     1      13.231   8.795  21.181  0.00  0.00    -0.289 N 
ATOM      8  C   UNL     1      14.143   9.075  20.067  0.00  0.00    +0.135 C 
ATOM      9  C   UNL     1      14.636   7.773  19.382  0.00  0.00    +0.171 C 
ATOM     12  C   UNL     1      12.295   7.767  21.092  0.00  0.00    +0.242 C 
ATOM     14  C   UNL     1      12.461   6.921  19.853  0.00  0.00    +0.256 C 
ENDROOT
BRANCH   9  13
ATOM     13  C   UNL     1      16.057   7.439  19.797  0.00  0.00    -0.017 A 
ATOM     17  C   UNL     1      16.663   6.273  19.329  0.00  0.00    +0.008 A 
ATOM     18  C   UNL     1      16.757   8.297  20.645  0.00  0.00    +0.008 A 
ATOM     19  C   UNL     1      17.969   5.965  19.710  0.00  0.00    +0.023 A 
ATOM     20  C   UNL     1      18.062   7.989  21.025  0.00  0.00    +0.023 A 
ATOM     21  C   UNL     1      18.669   6.822  20.558  0.00  0.00    +0.033 A 
BRANCH  21   7
ATOM      4  O   UNL     1      19.812   6.187  23.267  0.00  0.00    -0.273 OA
ATOM      7  N   UNL     1      19.975   6.515  20.939  0.00  0.00    -0.284 N 
ATOM     22  C   UNL     1      20.455   6.223  22.223  0.00  0.00    +0.243 C 
ATOM     26  H   UNL     1      20.658   6.505  20.184  0.00  0.00    +0.155 HD
BRANCH  22  23
ATOM     23  C   UNL     1      21.942   5.942  22.227  0.00  0.00    +0.255 C 
BRANCH  23   5
ATOM      5  O   UNL     1      22.159   4.643  22.740  0.00  0.00    -0.374 OA
ATOM     24  C   UNL     1      21.910   3.638  21.762  0.00  0.00    +0.194 C 
ENDBRANCH  23   5
ENDBRANCH  22  23
ENDBRANCH  21   7
ENDBRANCH   9  13
BRANCH   6  10
ATOM     10  C   UNL     1      13.243   9.700  22.320  0.00  0.00    +0.070 C 
ATOM     15  C   UNL     1      14.647  10.247  22.552  0.00  0.00    +0.028 C 
ATOM     16  C   UNL     1      12.240  10.827  22.113  0.00  0.00    +0.028 C 
ENDBRANCH   6  10
BRANCH   8  11
ATOM     11  C   UNL     1      13.483  10.018  19.052  0.00  0.00    +0.181 C 
BRANCH  11   2
ATOM      2  O   UNL     1      14.365  11.096  18.812  0.00  0.00    -0.393 OA
ATOM     25  H   UNL     1      13.967  11.889  19.208  0.00  0.00    +0.209 HD
ENDBRANCH  11   2
ENDBRANCH   8  11
TORSDOF 7
ENDMDL
MODEL 6
REMARK VINA RESULT:      -5.4      1.436      3.227
REMARK  Name = 71693359
REMARK  10 active torsions:
REMARK  status: ('A' for Active; 'I' for Inactive)
REMARK    1  A    between atoms: O_2  and  C_11
REMARK    2  A    between atoms: O_5  and  C_23
REMARK    3  A    between atoms: O_5  and  C_24
REMARK    4  A    between atoms: N_6  and  C_10
REMARK    5  A    between atoms: N_7  and  C_21
REMARK    6  A    between atoms: C_8  and  C_11
REMARK    7  A    between atoms: C_9  and  C_13
REMARK    8  A    between atoms: C_10  and  C_15
REMARK    9  A    between atoms: C_10  and  C_16
REMARK   10  A    between atoms: C_22  and  C_23
REMARK                            x       y       z     vdW  Elec       q    Type
REMARK                         _______ _______ _______ _____ _____    ______ ____
ROOT
ATOM      1  O   UNL     1      19.655   8.230  23.357  0.00  0.00    -0.361 OA
ATOM      3  O   UNL     1      21.673   5.759  24.593  0.00  0.00    -0.273 OA
ATOM      6  N   UNL     1      21.226   6.264  22.359  0.00  0.00    -0.289 N 
ATOM      8  C   UNL     1      20.916   7.326  21.396  0.00  0.00    +0.135 C 
ATOM      9  C   UNL     1      19.835   8.299  21.938  0.00  0.00    +0.171 C 
ATOM     12  C   UNL     1      21.289   6.537  23.723  0.00  0.00    +0.242 C 
ATOM     14  C   UNL     1      20.841   7.938  24.067  0.00  0.00    +0.256 C 
ENDROOT
BRANCH   9  13
ATOM     13  C   UNL     1      18.484   8.026  21.304  0.00  0.00    -0.017 A 
ATOM     17  C   UNL     1      18.298   6.883  20.527  0.00  0.00    +0.008 A 
ATOM     18  C   UNL     1      17.428   8.917  21.499  0.00  0.00    +0.008 A 
ATOM     19  C   UNL     1      17.056   6.631  19.943  0.00  0.00    +0.023 A 
ATOM     20  C   UNL     1      16.187   8.664  20.916  0.00  0.00    +0.023 A 
ATOM     21  C   UNL     1      16.001   7.521  20.137  0.00  0.00    +0.033 A 
BRANCH  21   7
ATOM      4  O   UNL     1      14.584   8.923  17.883  0.00  0.00    -0.273 OA
ATOM      7  N   UNL     1      14.758   7.270  19.554  0.00  0.00    -0.284 N 
ATOM     22  C   UNL     1      14.144   7.957  18.498  0.00  0.00    +0.243 C 
ATOM     26  H   UNL     1      14.241   6.489  19.951  0.00  0.00    +0.155 HD
BRANCH  22  23
ATOM     23  C   UNL     1      12.789   7.379  18.152  0.00  0.00    +0.255 C 
BRANCH  23   5
ATOM      5  O   UNL     1      12.008   7.313  19.328  0.00  0.00    -0.374 OA
ATOM     24  C   UNL     1      11.262   8.508  19.537  0.00  0.00    +0.194 C 
ENDBRANCH  23   5
ENDBRANCH  22  23
ENDBRANCH  21   7
ENDBRANCH   9  13
BRANCH   6  10
ATOM     10  C   UNL     1      21.595   4.955  21.840  0.00  0.00    +0.070 C 
ATOM     15  C   UNL     1      20.891   4.689  20.514  0.00  0.00    +0.028 C 
ATOM     16  C   UNL     1      23.107   4.850  21.692  0.00  0.00    +0.028 C 
ENDBRANCH   6  10
BRANCH   8  11
ATOM     11  C   UNL     1      22.189   8.081  20.994  0.00  0.00    +0.181 C 
BRANCH  11   2
ATOM      2  O   UNL     1      22.375   7.924  19.603  0.00  0.00    -0.393 OA
ATOM     25  H   UNL     1      22.838   8.716  19.282  0.00  0.00    +0.209 HD
ENDBRANCH  11   2
ENDBRANCH   8  11
TORSDOF 7
ENDMDL
MODEL 7
REMARK VINA RESULT:      -5.3     27.924     30.661
REMARK  Name = 71693359
REMARK  10 active torsions:
REMARK  status: ('A' for Active; 'I' for Inactive)
REMARK    1  A    between atoms: O_2  and  C_11
REMARK    2  A    between atoms: O_5  and  C_23
REMARK    3  A    between atoms: O_5  and  C_24
REMARK    4  A    between atoms: N_6  and  C_10
REMARK    5  A    between atoms: N_7  and  C_21
REMARK    6  A    between atoms: C_8  and  C_11
REMARK    7  A    between atoms: C_9  and  C_13
REMARK    8  A    between atoms: C_10  and  C_15
REMARK    9  A    between atoms: C_10  and  C_16
REMARK   10  A    between atoms: C_22  and  C_23
REMARK                            x       y       z     vdW  Elec       q    Type
REMARK                         _______ _______ _______ _____ _____    ______ ____
ROOT
ATOM      1  O   UNL     1      -1.950 -10.117  13.086  0.00  0.00    -0.361 OA
ATOM      3  O   UNL     1      -3.369 -10.584  16.164  0.00  0.00    -0.273 OA
ATOM      6  N   UNL     1      -3.579 -11.929  14.268  0.00  0.00    -0.289 N 
ATOM      8  C   UNL     1      -2.918 -12.422  13.055  0.00  0.00    +0.135 C 
ATOM      9  C   UNL     1      -2.186 -11.286  12.293  0.00  0.00    +0.171 C 
ATOM     12  C   UNL     1      -2.971 -10.961  15.064  0.00  0.00    +0.242 C 
ATOM     14  C   UNL     1      -1.712 -10.395  14.451  0.00  0.00    +0.256 C 
ENDROOT
BRANCH   9  13
ATOM     13  C   UNL     1      -2.975 -10.845  11.074  0.00  0.00    -0.017 A 
ATOM     17  C   UNL     1      -2.981  -9.502  10.698  0.00  0.00    +0.008 A 
ATOM     18  C   UNL     1      -3.694 -11.781  10.331  0.00  0.00    +0.008 A 
ATOM     19  C   UNL     1      -3.707  -9.095   9.578  0.00  0.00    +0.023 A 
ATOM     20  C   UNL     1      -4.418 -11.374   9.211  0.00  0.00    +0.023 A 
ATOM     21  C   UNL     1      -4.425 -10.030   8.835  0.00  0.00    +0.033 A 
BRANCH  21   7
ATOM      4  O   UNL     1      -7.393  -9.749   8.429  0.00  0.00    -0.273 OA
ATOM      7  N   UNL     1      -5.151  -9.625   7.715  0.00  0.00    -0.284 N 
ATOM     22  C   UNL     1      -6.541  -9.508   7.580  0.00  0.00    +0.243 C 
ATOM     26  H   UNL     1      -4.593  -9.385   6.898  0.00  0.00    +0.155 HD
BRANCH  22  23
ATOM     23  C   UNL     1      -6.944  -9.035   6.201  0.00  0.00    +0.255 C 
BRANCH  23   5
ATOM      5  O   UNL     1      -8.323  -8.726   6.210  0.00  0.00    -0.374 OA
ATOM     24  C   UNL     1      -8.557  -7.336   6.009  0.00  0.00    +0.194 C 
ENDBRANCH  23   5
ENDBRANCH  22  23
ENDBRANCH  21   7
ENDBRANCH   9  13
BRANCH   6  10
ATOM     10  C   UNL     1      -4.817 -12.571  14.683  0.00  0.00    +0.070 C 
ATOM     15  C   UNL     1      -5.629 -13.001  13.467  0.00  0.00    +0.028 C 
ATOM     16  C   UNL     1      -4.521 -13.753  15.596  0.00  0.00    +0.028 C 
ENDBRANCH   6  10
BRANCH   8  11
ATOM     11  C   UNL     1      -1.960 -13.572  13.390  0.00  0.00    +0.181 C 
BRANCH  11   2
ATOM      2  O   UNL     1      -1.893 -14.432  12.272  0.00  0.00    -0.393 OA
ATOM     25  H   UNL     1      -2.137 -15.322  12.577  0.00  0.00    +0.209 HD
ENDBRANCH  11   2
ENDBRANCH   8  11
TORSDOF 7
ENDMDL
MODEL 8
REMARK VINA RESULT:      -5.2     29.179     32.632
REMARK  Name = 71693359
REMARK  10 active torsions:
REMARK  status: ('A' for Active; 'I' for Inactive)
REMARK    1  A    between atoms: O_2  and  C_11
REMARK    2  A    between atoms: O_5  and  C_23
REMARK    3  A    between atoms: O_5  and  C_24
REMARK    4  A    between atoms: N_6  and  C_10
REMARK    5  A    between atoms: N_7  and  C_21
REMARK    6  A    between atoms: C_8  and  C_11
REMARK    7  A    between atoms: C_9  and  C_13
REMARK    8  A    between atoms: C_10  and  C_15
REMARK    9  A    between atoms: C_10  and  C_16
REMARK   10  A    between atoms: C_22  and  C_23
REMARK                            x       y       z     vdW  Elec       q    Type
REMARK                         _______ _______ _______ _____ _____    ______ ____
ROOT
ATOM      1  O   UNL     1     -14.864   7.978  22.768  0.00  0.00    -0.361 OA
ATOM      3  O   UNL     1     -18.231   7.456  23.078  0.00  0.00    -0.273 OA
ATOM      6  N   UNL     1     -16.642   6.042  22.117  0.00  0.00    -0.289 N 
ATOM      8  C   UNL     1     -15.249   5.585  22.154  0.00  0.00    +0.135 C 
ATOM      9  C   UNL     1     -14.256   6.768  22.300  0.00  0.00    +0.171 C 
ATOM     12  C   UNL     1     -17.067   7.090  22.930  0.00  0.00    +0.242 C 
ATOM     14  C   UNL     1     -15.935   7.766  23.665  0.00  0.00    +0.256 C 
ENDROOT
BRANCH   9  13
ATOM     13  C   UNL     1     -13.585   7.090  20.978  0.00  0.00    -0.017 A 
ATOM     17  C   UNL     1     -14.335   7.620  19.928  0.00  0.00    +0.008 A 
ATOM     18  C   UNL     1     -12.220   6.855  20.812  0.00  0.00    +0.008 A 
ATOM     19  C   UNL     1     -13.719   7.916  18.711  0.00  0.00    +0.023 A 
ATOM     20  C   UNL     1     -11.606   7.150  19.595  0.00  0.00    +0.023 A 
ATOM     21  C   UNL     1     -12.355   7.681  18.545  0.00  0.00    +0.033 A 
BRANCH  21   7
ATOM      4  O   UNL     1     -10.680  10.042  17.728  0.00  0.00    -0.273 OA
ATOM      7  N   UNL     1     -11.739   7.975  17.329  0.00  0.00    -0.284 N 
ATOM     22  C   UNL     1     -10.963   9.095  17.002  0.00  0.00    +0.243 C 
ATOM     26  H   UNL     1     -11.875   7.285  16.593  0.00  0.00    +0.155 HD
BRANCH  22  23
ATOM     23  C   UNL     1     -10.469   9.051  15.572  0.00  0.00    +0.255 C 
BRANCH  23   5
ATOM      5  O   UNL     1     -10.372   7.701  15.165  0.00  0.00    -0.374 OA
ATOM     24  C   UNL     1     -10.366   7.573  13.747  0.00  0.00    +0.194 C 
ENDBRANCH  23   5
ENDBRANCH  22  23
ENDBRANCH  21   7
ENDBRANCH   9  13
BRANCH   6  10
ATOM     10  C   UNL     1     -17.590   5.287  21.312  0.00  0.00    +0.070 C 
ATOM     15  C   UNL     1     -17.000   4.982  19.940  0.00  0.00    +0.028 C 
ATOM     16  C   UNL     1     -18.000   4.010  22.032  0.00  0.00    +0.028 C 
ENDBRANCH   6  10
BRANCH   8  11
ATOM     11  C   UNL     1     -15.047   4.551  23.269  0.00  0.00    +0.181 C 
BRANCH  11   2
ATOM      2  O   UNL     1     -13.719   4.659  23.737  0.00  0.00    -0.393 OA
ATOM     25  H   UNL     1     -13.132   4.489  22.981  0.00  0.00    +0.209 HD
ENDBRANCH  11   2
ENDBRANCH   8  11
TORSDOF 7
ENDMDL
MODEL 9
REMARK VINA RESULT:      -5.2     15.138     18.969
REMARK  Name = 71693359
REMARK  10 active torsions:
REMARK  status: ('A' for Active; 'I' for Inactive)
REMARK    1  A    between atoms: O_2  and  C_11
REMARK    2  A    between atoms: O_5  and  C_23
REMARK    3  A    between atoms: O_5  and  C_24
REMARK    4  A    between atoms: N_6  and  C_10
REMARK    5  A    between atoms: N_7  and  C_21
REMARK    6  A    between atoms: C_8  and  C_11
REMARK    7  A    between atoms: C_9  and  C_13
REMARK    8  A    between atoms: C_10  and  C_15
REMARK    9  A    between atoms: C_10  and  C_16
REMARK   10  A    between atoms: C_22  and  C_23
REMARK                            x       y       z     vdW  Elec       q    Type
REMARK                         _______ _______ _______ _____ _____    ______ ____
ROOT
ATOM      1  O   UNL     1      10.512   8.479   4.809  0.00  0.00    -0.361 OA
ATOM      3  O   UNL     1       8.248   7.980   7.325  0.00  0.00    -0.273 OA
ATOM      6  N   UNL     1      10.055   6.627   6.731  0.00  0.00    -0.289 N 
ATOM      8  C   UNL     1      11.415   6.596   6.184  0.00  0.00    +0.135 C 
ATOM      9  C   UNL     1      11.558   7.509   4.937  0.00  0.00    +0.171 C 
ATOM     12  C   UNL     1       9.331   7.816   6.767  0.00  0.00    +0.242 C 
ATOM     14  C   UNL     1      10.019   8.951   6.046  0.00  0.00    +0.256 C 
ENDROOT
BRANCH   9  13
ATOM     13  C   UNL     1      11.568   6.693   3.658  0.00  0.00    -0.017 A 
ATOM     17  C   UNL     1      12.558   6.914   2.700  0.00  0.00    +0.008 A 
ATOM     18  C   UNL     1      10.590   5.723   3.440  0.00  0.00    +0.008 A 
ATOM     19  C   UNL     1      12.568   6.165   1.523  0.00  0.00    +0.023 A 
ATOM     20  C   UNL     1      10.601   4.975   2.263  0.00  0.00    +0.023 A 
ATOM     21  C   UNL     1      11.590   5.196   1.304  0.00  0.00    +0.033 A 
BRANCH  21   7
ATOM      4  O   UNL     1      13.589   3.192   0.283  0.00  0.00    -0.273 OA
ATOM      7  N   UNL     1      11.600   4.446   0.128  0.00  0.00    -0.284 N 
ATOM     22  C   UNL     1      12.560   3.520  -0.299  0.00  0.00    +0.243 C 
ATOM     26  H   UNL     1      10.806   4.598  -0.491  0.00  0.00    +0.155 HD
BRANCH  22  23
ATOM     23  C   UNL     1      12.211   2.912  -1.641  0.00  0.00    +0.255 C 
BRANCH  23   5
ATOM      5  O   UNL     1      10.823   3.059  -1.860  0.00  0.00    -0.374 OA
ATOM     24  C   UNL     1      10.454   2.692  -3.186  0.00  0.00    +0.194 C 
ENDBRANCH  23   5
ENDBRANCH  22  23
ENDBRANCH  21   7
ENDBRANCH   9  13
BRANCH   6  10
ATOM     10  C   UNL     1       9.538   5.417   7.352  0.00  0.00    +0.070 C 
ATOM     15  C   UNL     1      10.015   4.183   6.594  0.00  0.00    +0.028 C 
ATOM     16  C   UNL     1       9.946   5.357   8.817  0.00  0.00    +0.028 C 
ENDBRANCH   6  10
BRANCH   8  11
ATOM     11  C   UNL     1      12.441   6.967   7.263  0.00  0.00    +0.181 C 
BRANCH  11   2
ATOM      2  O   UNL     1      13.251   5.837   7.509  0.00  0.00    -0.393 OA
ATOM     25  H   UNL     1      13.495   5.856   8.450  0.00  0.00    +0.209 HD
ENDBRANCH  11   2
ENDBRANCH   8  11
TORSDOF 7
ENDMDL
MODEL 10
REMARK VINA RESULT:      -5.2     27.644     30.634
REMARK  Name = 71693359
REMARK  10 active torsions:
REMARK  status: ('A' for Active; 'I' for Inactive)
REMARK    1  A    between atoms: O_2  and  C_11
REMARK    2  A    between atoms: O_5  and  C_23
REMARK    3  A    between atoms: O_5  and  C_24
REMARK    4  A    between atoms: N_6  and  C_10
REMARK    5  A    between atoms: N_7  and  C_21
REMARK    6  A    between atoms: C_8  and  C_11
REMARK    7  A    between atoms: C_9  and  C_13
REMARK    8  A    between atoms: C_10  and  C_15
REMARK    9  A    between atoms: C_10  and  C_16
REMARK   10  A    between atoms: C_22  and  C_23
REMARK                            x       y       z     vdW  Elec       q    Type
REMARK                         _______ _______ _______ _____ _____    ______ ____
ROOT
ATOM      1  O   UNL     1      -3.089 -13.175  14.817  0.00  0.00    -0.361 OA
ATOM      3  O   UNL     1      -2.978 -13.442  11.407  0.00  0.00    -0.273 OA
ATOM      6  N   UNL     1      -3.357 -11.526  12.685  0.00  0.00    -0.289 N 
ATOM      8  C   UNL     1      -3.062 -10.832  13.943  0.00  0.00    +0.135 C 
ATOM      9  C   UNL     1      -3.147 -11.787  15.164  0.00  0.00    +0.171 C 
ATOM     12  C   UNL     1      -2.906 -12.826  12.468  0.00  0.00    +0.242 C 
ATOM     14  C   UNL     1      -2.276 -13.446  13.693  0.00  0.00    +0.256 C 
ENDROOT
BRANCH   9  13
ATOM     13  C   UNL     1      -4.435 -11.575  15.937  0.00  0.00    -0.017 A 
ATOM     17  C   UNL     1      -4.552 -10.495  16.812  0.00  0.00    +0.008 A 
ATOM     18  C   UNL     1      -5.502 -12.459  15.774  0.00  0.00    +0.008 A 
ATOM     19  C   UNL     1      -5.736 -10.300  17.525  0.00  0.00    +0.023 A 
ATOM     20  C   UNL     1      -6.684 -12.263  16.485  0.00  0.00    +0.023 A 
ATOM     21  C   UNL     1      -6.802 -11.183  17.362  0.00  0.00    +0.033 A 
BRANCH  21   7
ATOM      4  O   UNL     1      -7.578 -12.058  20.133  0.00  0.00    -0.273 OA
ATOM      7  N   UNL     1      -7.986 -10.989  18.073  0.00  0.00    -0.284 N 
ATOM     22  C   UNL     1      -8.295 -11.418  19.371  0.00  0.00    +0.243 C 
ATOM     26  H   UNL     1      -8.709 -10.470  17.580  0.00  0.00    +0.155 HD
BRANCH  22  23
ATOM     23  C   UNL     1      -9.690 -11.010  19.790  0.00  0.00    +0.255 C 
BRANCH  23   5
ATOM      5  O   UNL     1     -10.109  -9.926  18.986  0.00  0.00    -0.374 OA
ATOM     24  C   UNL     1     -11.524  -9.892  18.836  0.00  0.00    +0.194 C 
ENDBRANCH  23   5
ENDBRANCH  22  23
ENDBRANCH  21   7
ENDBRANCH   9  13
BRANCH   6  10
ATOM     10  C   UNL     1      -4.015 -10.775  11.627  0.00  0.00    +0.070 C 
ATOM     15  C   UNL     1      -5.113  -9.890  12.204  0.00  0.00    +0.028 C 
ATOM     16  C   UNL     1      -2.997  -9.955  10.847  0.00  0.00    +0.028 C 
ENDBRANCH   6  10
BRANCH   8  11
ATOM     11  C   UNL     1      -1.693 -10.143  13.873  0.00  0.00    +0.181 C 
BRANCH  11   2
ATOM      2  O   UNL     1      -1.432  -9.549  15.127  0.00  0.00    -0.393 OA
ATOM     25  H   UNL     1      -2.247  -9.099  15.409  0.00  0.00    +0.209 HD
ENDBRANCH  11   2
ENDBRANCH   8  11
TORSDOF 7
ENDMDL
