REMARK  Name = 7164930
REMARK  8 active torsions:
REMARK  status: ('A' for Active; 'I' for Inactive)
REMARK    1  A    between atoms: S_1  and  N_7
REMARK    2  A    between atoms: S_1  and  C_26
REMARK    3  A    between atoms: N_8  and  C_18
REMARK    4  A    between atoms: C_11  and  C_14
REMARK    5  A    between atoms: C_14  and  C_18
REMARK    6  A    between atoms: C_18  and  C_24
REMARK    7  A    between atoms: C_19  and  C_23
REMARK    8  A    between atoms: C_25  and  C_27
REMARK                            x       y       z     vdW  Elec       q    Type
REMARK                         _______ _______ _______ _____ _____    ______ ____
ROOT
ATOM      6  O   UNL     1       2.866  -3.603  -2.034  0.00  0.00    -0.276 OA
ATOM      7  N   UNL     1       1.474  -0.237   1.508  0.00  0.00    -0.162 NA
ATOM      9  N   UNL     1       2.877  -1.992  -0.360  0.00  0.00    -0.298 N 
ATOM     19  C   UNL     1       0.775  -0.968   0.411  0.00  0.00    +0.183 C 
ATOM     20  C   UNL     1       1.497  -2.260   0.044  0.00  0.00    +0.137 C 
ATOM     21  C   UNL     1       2.899  -0.632   1.714  0.00  0.00    +0.129 C 
ATOM     22  C   UNL     1       3.575  -0.939   0.385  0.00  0.00    +0.125 C 
ATOM     25  C   UNL     1       3.448  -2.717  -1.405  0.00  0.00    +0.213 C 
ATOM     27  C   UNL     1       4.875  -2.369  -1.753  0.00  0.00    +0.109 C 
ENDROOT
BRANCH  19  23
ATOM      2  O   UNL     1      -0.785  -1.491   2.132  0.00  0.00    -0.274 OA
ATOM      8  N   UNL     1      -1.542  -1.307  -0.062  0.00  0.00    -0.303 N 
ATOM     23  C   UNL     1      -0.586  -1.276   0.939  0.00  0.00    +0.234 C 
ATOM     33  H   UNL     1      -1.247  -1.196  -1.028  0.00  0.00    +0.149 HD
BRANCH   8  18
ATOM     18  C   UNL     1      -2.934  -1.606   0.183  0.00  0.00    +0.159 C 
BRANCH  18  24
ATOM      5  O   UNL     1      -2.500  -3.870  -0.585  0.00  0.00    -0.274 OA
ATOM     10  N   UNL     1      -4.085  -3.551   1.047  0.00  0.00    -0.328 N 
ATOM     24  C   UNL     1      -3.121  -3.117   0.162  0.00  0.00    +0.231 C 
ATOM     34  H   UNL     1      -4.312  -4.537   1.126  0.00  0.00    +0.145 HD
ATOM     35  H   UNL     1      -4.604  -2.917   1.645  0.00  0.00    +0.145 HD
ENDBRANCH  18  24
BRANCH  18  14
ATOM     14  C   UNL     1      -3.863  -0.879  -0.795  0.00  0.00    +0.035 C 
BRANCH  14  11
ATOM     11  C   UNL     1      -3.679   0.637  -0.825  0.00  0.00    -0.009 C 
ATOM     12  C   UNL     1      -4.615   1.276  -1.860  0.00  0.00    +0.003 C 
ATOM     13  C   UNL     1      -3.914   1.238   0.568  0.00  0.00    +0.003 C 
ATOM     15  C   UNL     1      -4.488   2.797  -1.871  0.00  0.00    +0.000 C 
ATOM     16  C   UNL     1      -3.788   2.760   0.553  0.00  0.00    +0.000 C 
ATOM     17  C   UNL     1      -4.713   3.391  -0.484  0.00  0.00    +0.000 C 
ENDBRANCH  14  11
ENDBRANCH  18  14
ENDBRANCH   8  18
ENDBRANCH  19  23
BRANCH   7   1
ATOM      1  S   UNL     1       1.115   1.429   1.673  0.00  0.00    +0.062 S 
ATOM      3  O   UNL     1       1.614   1.897   2.949  0.00  0.00    -0.153 OA
ATOM      4  O   UNL     1      -0.260   1.656   1.282  0.00  0.00    -0.153 OA
BRANCH   1  26
ATOM     26  C   UNL     1       2.155   2.096   0.411  0.00  0.00    +0.106 A 
ATOM     28  C   UNL     1       1.668   2.245  -0.887  0.00  0.00    +0.028 A 
ATOM     29  C   UNL     1       3.464   2.473   0.713  0.00  0.00    +0.028 A 
ATOM     30  C   UNL     1       2.489   2.772  -1.884  0.00  0.00    +0.002 A 
ATOM     31  C   UNL     1       4.285   2.999  -0.284  0.00  0.00    +0.002 A 
ATOM     32  C   UNL     1       3.797   3.149  -1.583  0.00  0.00    +0.000 A 
ENDBRANCH   1  26
ENDBRANCH   7   1
TORSDOF 7
