MODEL 1
REMARK VINA RESULT:      -6.5      0.000      0.000
REMARK  Name = 75367701
REMARK  3 active torsions:
REMARK  status: ('A' for Active; 'I' for Inactive)
REMARK    1  A    between atoms: O_2  and  C_7
REMARK    2  A    between atoms: O_2  and  C_14
REMARK    3  A    between atoms: C_12  and  C_13
REMARK                            x       y       z     vdW  Elec       q    Type
REMARK                         _______ _______ _______ _____ _____    ______ ____
ROOT
ATOM      1  O   UNL     1      10.911   7.562  22.343  0.00  0.00    -0.375 OA
ATOM      3  O   UNL     1      14.295   6.924  18.960  0.00  0.00    -0.270 OA
ATOM      4  N   UNL     1      13.305   8.390  20.496  0.00  0.00    -0.292 N 
ATOM      7  C   UNL     1      11.726   9.820  21.904  0.00  0.00    +0.216 C 
ATOM      8  C   UNL     1      12.771   9.725  20.789  0.00  0.00    +0.155 C 
ATOM      9  C   UNL     1      13.213   7.363  21.535  0.00  0.00    +0.136 C 
ATOM     10  C   UNL     1      10.587   8.815  21.747  0.00  0.00    +0.206 C 
ATOM     11  C   UNL     1      11.816   6.760  21.589  0.00  0.00    +0.179 C 
ATOM     12  C   UNL     1      13.866   8.038  19.257  0.00  0.00    +0.247 C 
ENDROOT
BRANCH  12  13
ATOM      6  N   UNL     1      14.139  11.034  16.232  0.00  0.00    -0.263 NA
ATOM     13  C   UNL     1      13.958   9.072  18.214  0.00  0.00    +0.040 A 
ATOM     15  C   UNL     1      13.153   8.997  17.085  0.00  0.00    +0.033 A 
ATOM     16  C   UNL     1      14.855  10.126  18.355  0.00  0.00    +0.033 A 
ATOM     19  C   UNL     1      13.281   9.995  16.130  0.00  0.00    +0.111 A 
ATOM     20  C   UNL     1      14.906  11.072  17.345  0.00  0.00    +0.111 A 
ENDBRANCH  12  13
BRANCH   7   2
ATOM      2  O   UNL     1      11.189  11.142  21.856  0.00  0.00    -0.483 OA
BRANCH   2  14
ATOM      5  N   UNL     1      10.940  11.632  25.469  0.00  0.00    -0.260 NA
ATOM     14  C   UNL     1      10.990  11.765  23.056  0.00  0.00    +0.139 A 
ATOM     17  C   UNL     1      10.645  13.112  23.116  0.00  0.00    +0.049 A 
ATOM     18  C   UNL     1      11.124  11.076  24.251  0.00  0.00    +0.156 A 
ATOM     21  C   UNL     1      10.449  13.719  24.351  0.00  0.00    +0.023 A 
ATOM     22  C   UNL     1      10.607  12.943  25.488  0.00  0.00    +0.111 A 
ENDBRANCH   2  14
ENDBRANCH   7   2
TORSDOF 3
ENDMDL
MODEL 2
REMARK VINA RESULT:      -6.0      1.393      1.687
REMARK  Name = 75367701
REMARK  3 active torsions:
REMARK  status: ('A' for Active; 'I' for Inactive)
REMARK    1  A    between atoms: O_2  and  C_7
REMARK    2  A    between atoms: O_2  and  C_14
REMARK    3  A    between atoms: C_12  and  C_13
REMARK                            x       y       z     vdW  Elec       q    Type
REMARK                         _______ _______ _______ _____ _____    ______ ____
ROOT
ATOM      1  O   UNL     1      11.113   7.381  21.220  0.00  0.00    -0.375 OA
ATOM      3  O   UNL     1      15.745   7.782  19.920  0.00  0.00    -0.270 OA
ATOM      4  N   UNL     1      13.934   8.740  21.057  0.00  0.00    -0.292 N 
ATOM      7  C   UNL     1      11.677   9.687  21.786  0.00  0.00    +0.216 C 
ATOM      8  C   UNL     1      13.125   9.929  21.349  0.00  0.00    +0.155 C 
ATOM      9  C   UNL     1      13.524   7.461  21.640  0.00  0.00    +0.136 C 
ATOM     10  C   UNL     1      10.918   8.744  20.855  0.00  0.00    +0.206 C 
ATOM     11  C   UNL     1      12.378   6.840  20.851  0.00  0.00    +0.179 C 
ATOM     12  C   UNL     1      15.059   8.760  20.216  0.00  0.00    +0.247 C 
ENDROOT
BRANCH  12  13
ATOM      6  N   UNL     1      16.257  12.487  18.521  0.00  0.00    -0.263 NA
ATOM     13  C   UNL     1      15.470  10.046  19.632  0.00  0.00    +0.040 A 
ATOM     15  C   UNL     1      14.904  10.485  18.442  0.00  0.00    +0.033 A 
ATOM     16  C   UNL     1      16.430  10.826  20.269  0.00  0.00    +0.033 A 
ATOM     19  C   UNL     1      15.328  11.702  17.932  0.00  0.00    +0.111 A 
ATOM     20  C   UNL     1      16.786  12.027  19.678  0.00  0.00    +0.111 A 
ENDBRANCH  12  13
BRANCH   7   2
ATOM      2  O   UNL     1      11.029  10.959  21.789  0.00  0.00    -0.483 OA
BRANCH   2  14
ATOM      5  N   UNL     1      10.956  11.465  25.409  0.00  0.00    -0.260 NA
ATOM     14  C   UNL     1      10.942  11.598  22.994  0.00  0.00    +0.139 A 
ATOM     17  C   UNL     1      10.758  12.975  23.064  0.00  0.00    +0.049 A 
ATOM     18  C   UNL     1      11.034  10.895  24.185  0.00  0.00    +0.156 A 
ATOM     21  C   UNL     1      10.673  13.598  24.305  0.00  0.00    +0.023 A 
ATOM     22  C   UNL     1      10.778  12.806  25.436  0.00  0.00    +0.111 A 
ENDBRANCH   2  14
ENDBRANCH   7   2
TORSDOF 3
ENDMDL
MODEL 3
REMARK VINA RESULT:      -5.9      3.670      5.300
REMARK  Name = 75367701
REMARK  3 active torsions:
REMARK  status: ('A' for Active; 'I' for Inactive)
REMARK    1  A    between atoms: O_2  and  C_7
REMARK    2  A    between atoms: O_2  and  C_14
REMARK    3  A    between atoms: C_12  and  C_13
REMARK                            x       y       z     vdW  Elec       q    Type
REMARK                         _______ _______ _______ _____ _____    ______ ____
ROOT
ATOM      1  O   UNL     1      16.415   5.792  18.930  0.00  0.00    -0.375 OA
ATOM      3  O   UNL     1      18.878   8.974  21.597  0.00  0.00    -0.270 OA
ATOM      4  N   UNL     1      16.782   8.101  21.018  0.00  0.00    -0.292 N 
ATOM      7  C   UNL     1      14.683   7.253  19.836  0.00  0.00    +0.216 C 
ATOM      8  C   UNL     1      15.380   8.342  20.656  0.00  0.00    +0.155 C 
ATOM      9  C   UNL     1      17.268   6.720  21.028  0.00  0.00    +0.136 C 
ATOM     10  C   UNL     1      15.482   6.820  18.609  0.00  0.00    +0.206 C 
ATOM     11  C   UNL     1      17.580   6.238  19.618  0.00  0.00    +0.179 C 
ATOM     12  C   UNL     1      17.688   9.130  21.320  0.00  0.00    +0.247 C 
ENDROOT
BRANCH  12  13
ATOM      6  N   UNL     1      16.270  13.154  21.298  0.00  0.00    -0.263 NA
ATOM     13  C   UNL     1      17.198  10.517  21.311  0.00  0.00    +0.040 A 
ATOM     15  C   UNL     1      17.369  11.311  20.183  0.00  0.00    +0.033 A 
ATOM     16  C   UNL     1      16.564  11.040  22.433  0.00  0.00    +0.033 A 
ATOM     19  C   UNL     1      16.892  12.611  20.227  0.00  0.00    +0.111 A 
ATOM     20  C   UNL     1      16.122  12.351  22.377  0.00  0.00    +0.111 A 
ENDBRANCH  12  13
BRANCH   7   2
ATOM      2  O   UNL     1      13.432   7.794  19.410  0.00  0.00    -0.483 OA
BRANCH   2  14
ATOM      5  N   UNL     1      10.949   6.519  21.771  0.00  0.00    -0.260 NA
ATOM     14  C   UNL     1      12.418   7.785  20.327  0.00  0.00    +0.139 A 
ATOM     17  C   UNL     1      11.826   8.970  20.753  0.00  0.00    +0.049 A 
ATOM     18  C   UNL     1      11.947   6.597  20.862  0.00  0.00    +0.156 A 
ATOM     21  C   UNL     1      10.797   8.930  21.687  0.00  0.00    +0.023 A 
ATOM     22  C   UNL     1      10.399   7.691  22.161  0.00  0.00    +0.111 A 
ENDBRANCH   2  14
ENDBRANCH   7   2
TORSDOF 3
ENDMDL
MODEL 4
REMARK VINA RESULT:      -5.9     26.391     28.343
REMARK  Name = 75367701
REMARK  3 active torsions:
REMARK  status: ('A' for Active; 'I' for Inactive)
REMARK    1  A    between atoms: O_2  and  C_7
REMARK    2  A    between atoms: O_2  and  C_14
REMARK    3  A    between atoms: C_12  and  C_13
REMARK                            x       y       z     vdW  Elec       q    Type
REMARK                         _______ _______ _______ _____ _____    ______ ____
ROOT
ATOM      1  O   UNL     1      -8.449 -11.253  19.077  0.00  0.00    -0.375 OA
ATOM      3  O   UNL     1      -3.657 -11.812  18.884  0.00  0.00    -0.270 OA
ATOM      4  N   UNL     1      -5.533 -10.649  18.097  0.00  0.00    -0.292 N 
ATOM      7  C   UNL     1      -7.787  -9.924  17.140  0.00  0.00    +0.216 C 
ATOM      8  C   UNL     1      -6.275 -10.090  16.961  0.00  0.00    +0.155 C 
ATOM      9  C   UNL     1      -6.130 -10.553  19.431  0.00  0.00    +0.136 C 
ATOM     10  C   UNL     1      -8.473 -11.188  17.653  0.00  0.00    +0.206 C 
ATOM     11  C   UNL     1      -7.192 -11.626  19.634  0.00  0.00    +0.179 C 
ATOM     12  C   UNL     1      -4.297 -11.302  17.964  0.00  0.00    +0.247 C 
ENDROOT
BRANCH  12  13
ATOM      6  N   UNL     1      -2.554 -11.576  14.080  0.00  0.00    -0.263 NA
ATOM     13  C   UNL     1      -3.697 -11.396  16.624  0.00  0.00    +0.040 A 
ATOM     15  C   UNL     1      -4.131 -12.369  15.732  0.00  0.00    +0.033 A 
ATOM     16  C   UNL     1      -2.692 -10.512  16.247  0.00  0.00    +0.033 A 
ATOM     19  C   UNL     1      -3.532 -12.417  14.483  0.00  0.00    +0.111 A 
ATOM     20  C   UNL     1      -2.158 -10.642  14.975  0.00  0.00    +0.111 A 
ENDBRANCH  12  13
BRANCH   7   2
ATOM      2  O   UNL     1      -8.320  -9.593  15.858  0.00  0.00    -0.483 OA
BRANCH   2  14
ATOM      5  N   UNL     1     -11.389  -7.982  14.693  0.00  0.00    -0.260 NA
ATOM     14  C   UNL     1      -9.415  -8.774  15.844  0.00  0.00    +0.139 A 
ATOM     17  C   UNL     1      -9.685  -7.921  16.909  0.00  0.00    +0.049 A 
ATOM     18  C   UNL     1     -10.290  -8.766  14.769  0.00  0.00    +0.156 A 
ATOM     21  C   UNL     1     -10.807  -7.099  16.868  0.00  0.00    +0.023 A 
ATOM     22  C   UNL     1     -11.619  -7.167  15.748  0.00  0.00    +0.111 A 
ENDBRANCH   2  14
ENDBRANCH   7   2
TORSDOF 3
ENDMDL
MODEL 5
REMARK VINA RESULT:      -5.9      2.676      3.075
REMARK  Name = 75367701
REMARK  3 active torsions:
REMARK  status: ('A' for Active; 'I' for Inactive)
REMARK    1  A    between atoms: O_2  and  C_7
REMARK    2  A    between atoms: O_2  and  C_14
REMARK    3  A    between atoms: C_12  and  C_13
REMARK                            x       y       z     vdW  Elec       q    Type
REMARK                         _______ _______ _______ _____ _____    ______ ____
ROOT
ATOM      1  O   UNL     1      11.135   9.774  22.847  0.00  0.00    -0.375 OA
ATOM      3  O   UNL     1      12.061   6.461  19.460  0.00  0.00    -0.270 OA
ATOM      4  N   UNL     1      12.656   8.519  20.411  0.00  0.00    -0.292 N 
ATOM      7  C   UNL     1      12.731  10.883  21.372  0.00  0.00    +0.216 C 
ATOM      8  C   UNL     1      13.042   9.922  20.221  0.00  0.00    +0.155 C 
ATOM      9  C   UNL     1      12.476   8.028  21.778  0.00  0.00    +0.136 C 
ATOM     10  C   UNL     1      11.287  10.790  21.860  0.00  0.00    +0.206 C 
ATOM     11  C   UNL     1      11.122   8.445  22.337  0.00  0.00    +0.179 C 
ATOM     12  C   UNL     1      12.416   7.635  19.347  0.00  0.00    +0.247 C 
ENDROOT
BRANCH  12  13
ATOM      6  N   UNL     1      12.948   9.064  15.362  0.00  0.00    -0.263 NA
ATOM     13  C   UNL     1      12.600   8.129  17.973  0.00  0.00    +0.040 A 
ATOM     15  C   UNL     1      11.529   8.683  17.282  0.00  0.00    +0.033 A 
ATOM     16  C   UNL     1      13.845   8.042  17.361  0.00  0.00    +0.033 A 
ATOM     19  C   UNL     1      11.753   9.132  15.990  0.00  0.00    +0.111 A 
ATOM     20  C   UNL     1      13.966   8.519  16.066  0.00  0.00    +0.111 A 
ENDBRANCH  12  13
BRANCH   7   2
ATOM      2  O   UNL     1      12.974  12.203  20.884  0.00  0.00    -0.483 OA
BRANCH   2  14
ATOM      5  N   UNL     1      16.191  13.595  21.921  0.00  0.00    -0.260 NA
ATOM     14  C   UNL     1      13.886  12.952  21.573  0.00  0.00    +0.139 A 
ATOM     17  C   UNL     1      13.486  13.809  22.594  0.00  0.00    +0.049 A 
ATOM     18  C   UNL     1      15.239  12.882  21.279  0.00  0.00    +0.156 A 
ATOM     21  C   UNL     1      14.436  14.559  23.277  0.00  0.00    +0.023 A 
ATOM     22  C   UNL     1      15.763  14.418  22.906  0.00  0.00    +0.111 A 
ENDBRANCH   2  14
ENDBRANCH   7   2
TORSDOF 3
ENDMDL
MODEL 6
REMARK VINA RESULT:      -5.7     26.400     27.971
REMARK  Name = 75367701
REMARK  3 active torsions:
REMARK  status: ('A' for Active; 'I' for Inactive)
REMARK    1  A    between atoms: O_2  and  C_7
REMARK    2  A    between atoms: O_2  and  C_14
REMARK    3  A    between atoms: C_12  and  C_13
REMARK                            x       y       z     vdW  Elec       q    Type
REMARK                         _______ _______ _______ _____ _____    ______ ____
ROOT
ATOM      1  O   UNL     1      -3.512 -12.106  15.717  0.00  0.00    -0.375 OA
ATOM      3  O   UNL     1      -1.300 -10.427  11.768  0.00  0.00    -0.270 OA
ATOM      4  N   UNL     1      -3.204 -10.360  13.132  0.00  0.00    -0.292 N 
ATOM      7  C   UNL     1      -5.265 -10.874  14.549  0.00  0.00    +0.216 C 
ATOM      8  C   UNL     1      -4.668 -10.349  13.240  0.00  0.00    +0.155 C 
ATOM      9  C   UNL     1      -2.417 -10.384  14.366  0.00  0.00    +0.136 C 
ATOM     10  C   UNL     1      -4.712 -12.237  14.959  0.00  0.00    +0.206 C 
ATOM     11  C   UNL     1      -2.355 -11.789  14.950  0.00  0.00    +0.179 C 
ATOM     12  C   UNL     1      -2.523 -10.385  11.904  0.00  0.00    +0.247 C 
ENDROOT
BRANCH  12  13
ATOM      6  N   UNL     1      -4.824 -10.313   8.313  0.00  0.00    -0.263 NA
ATOM     13  C   UNL     1      -3.315 -10.360  10.665  0.00  0.00    +0.040 A 
ATOM     15  C   UNL     1      -3.632  -9.148  10.064  0.00  0.00    +0.033 A 
ATOM     16  C   UNL     1      -3.751 -11.550  10.092  0.00  0.00    +0.033 A 
ATOM     19  C   UNL     1      -4.383  -9.178   8.899  0.00  0.00    +0.111 A 
ATOM     20  C   UNL     1      -4.496 -11.473   8.926  0.00  0.00    +0.111 A 
ENDBRANCH  12  13
BRANCH   7   2
ATOM      2  O   UNL     1      -6.674 -10.986  14.344  0.00  0.00    -0.483 OA
BRANCH   2  14
ATOM      5  N   UNL     1      -9.441  -8.809  15.326  0.00  0.00    -0.260 NA
ATOM     14  C   UNL     1      -7.470 -10.194  15.124  0.00  0.00    +0.139 A 
ATOM     17  C   UNL     1      -7.159  -9.958  16.459  0.00  0.00    +0.049 A 
ATOM     18  C   UNL     1      -8.612  -9.601  14.610  0.00  0.00    +0.156 A 
ATOM     21  C   UNL     1      -7.988  -9.149  17.228  0.00  0.00    +0.023 A 
ATOM     22  C   UNL     1      -9.107  -8.603  16.620  0.00  0.00    +0.111 A 
ENDBRANCH   2  14
ENDBRANCH   7   2
TORSDOF 3
ENDMDL
MODEL 7
REMARK VINA RESULT:      -5.7     29.049     30.303
REMARK  Name = 75367701
REMARK  3 active torsions:
REMARK  status: ('A' for Active; 'I' for Inactive)
REMARK    1  A    between atoms: O_2  and  C_7
REMARK    2  A    between atoms: O_2  and  C_14
REMARK    3  A    between atoms: C_12  and  C_13
REMARK                            x       y       z     vdW  Elec       q    Type
REMARK                         _______ _______ _______ _____ _____    ______ ____
ROOT
ATOM      1  O   UNL     1     -14.735   1.762  33.417  0.00  0.00    -0.375 OA
ATOM      3  O   UNL     1     -15.458   0.404  28.841  0.00  0.00    -0.270 OA
ATOM      4  N   UNL     1     -14.960   2.156  30.315  0.00  0.00    -0.292 N 
ATOM      7  C   UNL     1     -14.899   3.873  32.204  0.00  0.00    +0.216 C 
ATOM      8  C   UNL     1     -15.192   3.542  30.738  0.00  0.00    +0.155 C 
ATOM      9  C   UNL     1     -14.045   1.332  31.108  0.00  0.00    +0.136 C 
ATOM     10  C   UNL     1     -15.557   2.902  33.182  0.00  0.00    +0.206 C 
ATOM     11  C   UNL     1     -14.729   0.805  32.362  0.00  0.00    +0.179 C 
ATOM     12  C   UNL     1     -15.599   1.570  29.211  0.00  0.00    +0.247 C 
ENDROOT
BRANCH  12  13
ATOM      6  N   UNL     1     -18.260   3.971  26.896  0.00  0.00    -0.263 NA
ATOM     13  C   UNL     1     -16.517   2.399  28.414  0.00  0.00    +0.040 A 
ATOM     15  C   UNL     1     -17.881   2.380  28.678  0.00  0.00    +0.033 A 
ATOM     16  C   UNL     1     -16.022   3.202  27.392  0.00  0.00    +0.033 A 
ATOM     19  C   UNL     1     -18.703   3.177  27.896  0.00  0.00    +0.111 A 
ATOM     20  C   UNL     1     -16.926   3.963  26.670  0.00  0.00    +0.111 A 
ENDBRANCH  12  13
BRANCH   7   2
ATOM      2  O   UNL     1     -15.407   5.187  32.440  0.00  0.00    -0.483 OA
BRANCH   2  14
ATOM      5  N   UNL     1     -13.538   6.711  35.187  0.00  0.00    -0.260 NA
ATOM     14  C   UNL     1     -14.585   6.049  33.110  0.00  0.00    +0.139 A 
ATOM     17  C   UNL     1     -13.969   7.109  32.453  0.00  0.00    +0.049 A 
ATOM     18  C   UNL     1     -14.339   5.895  34.466  0.00  0.00    +0.156 A 
ATOM     21  C   UNL     1     -13.137   7.970  33.162  0.00  0.00    +0.023 A 
ATOM     22  C   UNL     1     -12.956   7.730  34.514  0.00  0.00    +0.111 A 
ENDBRANCH   2  14
ENDBRANCH   7   2
TORSDOF 3
ENDMDL
MODEL 8
REMARK VINA RESULT:      -5.6      2.939      3.944
REMARK  Name = 75367701
REMARK  3 active torsions:
REMARK  status: ('A' for Active; 'I' for Inactive)
REMARK    1  A    between atoms: O_2  and  C_7
REMARK    2  A    between atoms: O_2  and  C_14
REMARK    3  A    between atoms: C_12  and  C_13
REMARK                            x       y       z     vdW  Elec       q    Type
REMARK                         _______ _______ _______ _____ _____    ______ ____
ROOT
ATOM      1  O   UNL     1      12.235   8.966  18.682  0.00  0.00    -0.375 OA
ATOM      3  O   UNL     1      15.921   5.934  19.408  0.00  0.00    -0.270 OA
ATOM      4  N   UNL     1      14.534   7.592  20.312  0.00  0.00    -0.292 N 
ATOM      7  C   UNL     1      13.179   9.698  20.811  0.00  0.00    +0.216 C 
ATOM      8  C   UNL     1      14.403   8.824  21.098  0.00  0.00    +0.155 C 
ATOM      9  C   UNL     1      13.329   7.028  19.700  0.00  0.00    +0.136 C 
ATOM     10  C   UNL     1      12.986   9.993  19.325  0.00  0.00    +0.206 C 
ATOM     11  C   UNL     1      12.963   7.770  18.422  0.00  0.00    +0.179 C 
ATOM     12  C   UNL     1      15.761   6.949  20.086  0.00  0.00    +0.247 C 
ENDROOT
BRANCH  12  13
ATOM      6  N   UNL     1      19.266   8.596  21.876  0.00  0.00    -0.263 NA
ATOM     13  C   UNL     1      16.971   7.516  20.702  0.00  0.00    +0.040 A 
ATOM     15  C   UNL     1      17.915   6.680  21.286  0.00  0.00    +0.033 A 
ATOM     16  C   UNL     1      17.172   8.892  20.704  0.00  0.00    +0.033 A 
ATOM     19  C   UNL     1      19.035   7.265  21.856  0.00  0.00    +0.111 A 
ATOM     20  C   UNL     1      18.326   9.378  21.298  0.00  0.00    +0.111 A 
ENDBRANCH  12  13
BRANCH   7   2
ATOM      2  O   UNL     1      13.376  10.928  21.508  0.00  0.00    -0.483 OA
BRANCH   2  14
ATOM      5  N   UNL     1      10.596  10.817  23.878  0.00  0.00    -0.260 NA
ATOM     14  C   UNL     1      12.669  11.096  22.665  0.00  0.00    +0.139 A 
ATOM     17  C   UNL     1      13.250  11.690  23.781  0.00  0.00    +0.049 A 
ATOM     18  C   UNL     1      11.350  10.681  22.765  0.00  0.00    +0.156 A 
ATOM     21  C   UNL     1      12.506  11.847  24.945  0.00  0.00    +0.023 A 
ATOM     22  C   UNL     1      11.195  11.398  24.943  0.00  0.00    +0.111 A 
ENDBRANCH   2  14
ENDBRANCH   7   2
TORSDOF 3
ENDMDL
MODEL 9
REMARK VINA RESULT:      -5.5     15.312     18.366
REMARK  Name = 75367701
REMARK  3 active torsions:
REMARK  status: ('A' for Active; 'I' for Inactive)
REMARK    1  A    between atoms: O_2  and  C_7
REMARK    2  A    between atoms: O_2  and  C_14
REMARK    3  A    between atoms: C_12  and  C_13
REMARK                            x       y       z     vdW  Elec       q    Type
REMARK                         _______ _______ _______ _____ _____    ______ ____
ROOT
ATOM      1  O   UNL     1       8.281   5.820   5.414  0.00  0.00    -0.375 OA
ATOM      3  O   UNL     1      11.146   9.670   5.942  0.00  0.00    -0.270 OA
ATOM      4  N   UNL     1      10.704   7.698   4.756  0.00  0.00    -0.292 N 
ATOM      7  C   UNL     1      10.206   5.309   4.003  0.00  0.00    +0.216 C 
ATOM      8  C   UNL     1      11.208   6.458   4.154  0.00  0.00    +0.155 C 
ATOM      9  C   UNL     1       9.262   7.952   4.718  0.00  0.00    +0.136 C 
ATOM     10  C   UNL     1       9.443   5.004   5.290  0.00  0.00    +0.206 C 
ATOM     11  C   UNL     1       8.538   7.166   5.803  0.00  0.00    +0.179 C 
ATOM     12  C   UNL     1      11.530   8.635   5.398  0.00  0.00    +0.247 C 
ENDROOT
BRANCH  12  13
ATOM      6  N   UNL     1      15.731   7.898   5.502  0.00  0.00    -0.263 NA
ATOM     13  C   UNL     1      12.979   8.379   5.433  0.00  0.00    +0.040 A 
ATOM     15  C   UNL     1      13.541   7.698   6.507  0.00  0.00    +0.033 A 
ATOM     16  C   UNL     1      13.790   8.820   4.394  0.00  0.00    +0.033 A 
ATOM     19  C   UNL     1      14.911   7.486   6.494  0.00  0.00    +0.111 A 
ATOM     20  C   UNL     1      15.148   8.556   4.475  0.00  0.00    +0.111 A 
ENDBRANCH  12  13
BRANCH   7   2
ATOM      2  O   UNL     1      10.956   4.155   3.622  0.00  0.00    -0.483 OA
BRANCH   2  14
ATOM      5  N   UNL     1      10.485   4.152  -0.003  0.00  0.00    -0.260 NA
ATOM     14  C   UNL     1      11.237   4.022   2.291  0.00  0.00    +0.139 A 
ATOM     17  C   UNL     1      12.503   3.636   1.861  0.00  0.00    +0.049 A 
ATOM     18  C   UNL     1      10.272   4.266   1.327  0.00  0.00    +0.156 A 
ATOM     21  C   UNL     1      12.761   3.508   0.501  0.00  0.00    +0.023 A 
ATOM     22  C   UNL     1      11.728   3.776  -0.383  0.00  0.00    +0.111 A 
ENDBRANCH   2  14
ENDBRANCH   7   2
TORSDOF 3
ENDMDL
MODEL 10
REMARK VINA RESULT:      -5.5      2.549      3.563
REMARK  Name = 75367701
REMARK  3 active torsions:
REMARK  status: ('A' for Active; 'I' for Inactive)
REMARK    1  A    between atoms: O_2  and  C_7
REMARK    2  A    between atoms: O_2  and  C_14
REMARK    3  A    between atoms: C_12  and  C_13
REMARK                            x       y       z     vdW  Elec       q    Type
REMARK                         _______ _______ _______ _____ _____    ______ ____
ROOT
ATOM      1  O   UNL     1      10.839   8.455  19.230  0.00  0.00    -0.375 OA
ATOM      3  O   UNL     1      15.305   6.959  18.169  0.00  0.00    -0.270 OA
ATOM      4  N   UNL     1      13.690   7.298  19.833  0.00  0.00    -0.292 N 
ATOM      7  C   UNL     1      11.903   8.210  21.413  0.00  0.00    +0.216 C 
ATOM      8  C   UNL     1      13.357   7.792  21.174  0.00  0.00    +0.155 C 
ATOM      9  C   UNL     1      12.607   6.778  18.996  0.00  0.00    +0.136 C 
ATOM     10  C   UNL     1      11.369   9.164  20.347  0.00  0.00    +0.206 C 
ATOM     11  C   UNL     1      11.819   7.911  18.351  0.00  0.00    +0.179 C 
ATOM     12  C   UNL     1      14.988   7.333  19.298  0.00  0.00    +0.247 C 
ENDROOT
BRANCH  12  13
ATOM      6  N   UNL     1      18.146   8.845  21.736  0.00  0.00    -0.263 NA
ATOM     13  C   UNL     1      16.076   7.855  20.140  0.00  0.00    +0.040 A 
ATOM     15  C   UNL     1      16.180   9.220  20.379  0.00  0.00    +0.033 A 
ATOM     16  C   UNL     1      17.005   6.984  20.698  0.00  0.00    +0.033 A 
ATOM     19  C   UNL     1      17.224   9.661  21.177  0.00  0.00    +0.111 A 
ATOM     20  C   UNL     1      18.012   7.524  21.481  0.00  0.00    +0.111 A 
ENDBRANCH  12  13
BRANCH   7   2
ATOM      2  O   UNL     1      11.864   8.862  22.683  0.00  0.00    -0.483 OA
BRANCH   2  14
ATOM      5  N   UNL     1      13.570  12.094  22.600  0.00  0.00    -0.260 NA
ATOM     14  C   UNL     1      12.049  10.216  22.681  0.00  0.00    +0.139 A 
ATOM     17  C   UNL     1      10.966  11.087  22.755  0.00  0.00    +0.049 A 
ATOM     18  C   UNL     1      13.319  10.765  22.606  0.00  0.00    +0.156 A 
ATOM     21  C   UNL     1      11.185  12.461  22.750  0.00  0.00    +0.023 A 
ATOM     22  C   UNL     1      12.493  12.909  22.672  0.00  0.00    +0.111 A 
ENDBRANCH   2  14
ENDBRANCH   7   2
TORSDOF 3
ENDMDL
