MODEL 1
REMARK VINA RESULT:      -7.3      0.000      0.000
REMARK  Name = 71693460
REMARK  8 active torsions:
REMARK  status: ('A' for Active; 'I' for Inactive)
REMARK    1  A    between atoms: O_5  and  C_13
REMARK    2  A    between atoms: N_8  and  C_15
REMARK    3  A    between atoms: N_9  and  C_23
REMARK    4  A    between atoms: C_11  and  C_13
REMARK    5  A    between atoms: C_12  and  C_14
REMARK    6  A    between atoms: C_15  and  C_18
REMARK    7  A    between atoms: C_28  and  C_29
REMARK    8  A    between atoms: C_32  and  C_35
REMARK                            x       y       z     vdW  Elec       q    Type
REMARK                         _______ _______ _______ _____ _____    ______ ____
ROOT
ATOM     14  C   UNL     1      14.426   6.736  19.826  0.00  0.00    -0.017 A 
ATOM     19  C   UNL     1      15.206   6.577  18.682  0.00  0.00    +0.008 A 
ATOM     20  C   UNL     1      15.016   6.660  21.088  0.00  0.00    +0.008 A 
ATOM     21  C   UNL     1      16.577   6.341  18.799  0.00  0.00    +0.023 A 
ATOM     22  C   UNL     1      16.385   6.426  21.205  0.00  0.00    +0.023 A 
ATOM     23  C   UNL     1      17.166   6.267  20.061  0.00  0.00    +0.034 A 
ENDROOT
BRANCH  14  12
ATOM      4  O   UNL     1      12.344   6.672  20.961  0.00  0.00    -0.361 OA
ATOM      6  O   UNL     1      10.817   9.476  22.193  0.00  0.00    -0.273 OA
ATOM      8  N   UNL     1      12.212   9.301  20.330  0.00  0.00    -0.287 N 
ATOM     11  C   UNL     1      12.655   8.443  19.225  0.00  0.00    +0.135 C 
ATOM     12  C   UNL     1      12.936   6.992  19.699  0.00  0.00    +0.171 C 
ATOM     16  C   UNL     1      11.356   8.809  21.311  0.00  0.00    +0.242 C 
ATOM     17  C   UNL     1      11.112   7.323  21.194  0.00  0.00    +0.256 C 
BRANCH  11  13
ATOM     13  C   UNL     1      11.635   8.464  18.079  0.00  0.00    +0.181 C 
BRANCH  13   5
ATOM      5  O   UNL     1      11.664   7.205  17.438  0.00  0.00    -0.393 OA
ATOM     36  H   UNL     1      11.002   6.644  17.874  0.00  0.00    +0.209 HD
ENDBRANCH  13   5
ENDBRANCH  11  13
BRANCH   8  15
ATOM     15  C   UNL     1      12.582  10.708  20.294  0.00  0.00    +0.143 C 
BRANCH  15  18
ATOM     10  N   UNL     1      16.838  11.254  20.511  0.00  0.00    -0.263 NA
ATOM     18  C   UNL     1      14.069  10.899  20.370  0.00  0.00    -0.027 A 
ATOM     24  C   UNL     1      14.740  11.564  19.350  0.00  0.00    +0.025 A 
ATOM     25  C   UNL     1      14.781  10.411  21.460  0.00  0.00    +0.025 A 
ATOM     26  C   UNL     1      16.113  11.714  19.467  0.00  0.00    +0.111 A 
ATOM     27  C   UNL     1      16.151  10.613  21.483  0.00  0.00    +0.111 A 
ENDBRANCH  15  18
ENDBRANCH   8  15
ENDBRANCH  14  12
BRANCH  23   9
ATOM      7  O   UNL     1      19.335   7.982  21.220  0.00  0.00    -0.270 OA
ATOM      9  N   UNL     1      18.537   6.032  20.178  0.00  0.00    -0.282 N 
ATOM     28  C   UNL     1      19.513   6.872  20.731  0.00  0.00    +0.248 C 
ATOM     37  H   UNL     1      18.823   5.115  19.848  0.00  0.00    +0.155 HD
BRANCH  28  29
ATOM     29  C   UNL     1      20.895   6.326  20.736  0.00  0.00    +0.037 A 
ATOM     30  C   UNL     1      21.105   4.963  20.946  0.00  0.00    +0.013 A 
ATOM     31  C   UNL     1      21.981   7.176  20.532  0.00  0.00    +0.013 A 
ATOM     32  C   UNL     1      23.489   5.301  20.748  0.00  0.00    +0.055 A 
ATOM     33  C   UNL     1      22.402   4.451  20.952  0.00  0.00    +0.013 A 
ATOM     34  C   UNL     1      23.279   6.664  20.539  0.00  0.00    +0.013 A 
BRANCH  32  35
ATOM      1  F   UNL     1      25.210   4.094  19.605  0.00  0.00    -0.166 F 
ATOM      2  F   UNL     1      25.103   3.853  21.758  0.00  0.00    -0.166 F 
ATOM      3  F   UNL     1      25.824   5.721  20.910  0.00  0.00    -0.166 F 
ATOM     35  C   UNL     1      24.876   4.752  20.755  0.00  0.00    +0.417 C 
ENDBRANCH  32  35
ENDBRANCH  28  29
ENDBRANCH  23   9
TORSDOF 8
ENDMDL
MODEL 2
REMARK VINA RESULT:      -7.1      1.904      2.668
REMARK  Name = 71693460
REMARK  8 active torsions:
REMARK  status: ('A' for Active; 'I' for Inactive)
REMARK    1  A    between atoms: O_5  and  C_13
REMARK    2  A    between atoms: N_8  and  C_15
REMARK    3  A    between atoms: N_9  and  C_23
REMARK    4  A    between atoms: C_11  and  C_13
REMARK    5  A    between atoms: C_12  and  C_14
REMARK    6  A    between atoms: C_15  and  C_18
REMARK    7  A    between atoms: C_28  and  C_29
REMARK    8  A    between atoms: C_32  and  C_35
REMARK                            x       y       z     vdW  Elec       q    Type
REMARK                         _______ _______ _______ _____ _____    ______ ____
ROOT
ATOM     14  C   UNL     1      15.257   7.030  19.690  0.00  0.00    -0.017 A 
ATOM     19  C   UNL     1      15.861   6.380  18.615  0.00  0.00    +0.008 A 
ATOM     20  C   UNL     1      15.928   7.132  20.909  0.00  0.00    +0.008 A 
ATOM     21  C   UNL     1      17.136   5.831  18.757  0.00  0.00    +0.023 A 
ATOM     22  C   UNL     1      17.202   6.584  21.052  0.00  0.00    +0.023 A 
ATOM     23  C   UNL     1      17.807   5.934  19.977  0.00  0.00    +0.034 A 
ENDROOT
BRANCH  14  12
ATOM      4  O   UNL     1      12.955   6.738  20.181  0.00  0.00    -0.361 OA
ATOM      6  O   UNL     1      11.361   8.445  22.684  0.00  0.00    -0.273 OA
ATOM      8  N   UNL     1      13.171   9.150  21.390  0.00  0.00    -0.287 N 
ATOM     11  C   UNL     1      13.822   9.080  20.076  0.00  0.00    +0.135 C 
ATOM     12  C   UNL     1      13.871   7.627  19.535  0.00  0.00    +0.171 C 
ATOM     16  C   UNL     1      12.061   8.362  21.675  0.00  0.00    +0.242 C 
ATOM     17  C   UNL     1      11.752   7.358  20.589  0.00  0.00    +0.256 C 
BRANCH  11  13
ATOM     13  C   UNL     1      13.133  10.020  19.079  0.00  0.00    +0.181 C 
BRANCH  13   5
ATOM      5  O   UNL     1      12.688   9.251  17.981  0.00  0.00    -0.393 OA
ATOM     36  H   UNL     1      12.596   9.854  17.224  0.00  0.00    +0.209 HD
ENDBRANCH  13   5
ENDBRANCH  11  13
BRANCH   8  15
ATOM     15  C   UNL     1      13.635  10.160  22.330  0.00  0.00    +0.143 C 
BRANCH  15  18
ATOM     10  N   UNL     1      10.593  13.067  23.198  0.00  0.00    -0.263 NA
ATOM     18  C   UNL     1      12.572  11.175  22.633  0.00  0.00    -0.027 A 
ATOM     24  C   UNL     1      11.972  11.888  21.600  0.00  0.00    +0.025 A 
ATOM     25  C   UNL     1      12.184  11.408  23.948  0.00  0.00    +0.025 A 
ATOM     26  C   UNL     1      10.996  12.814  21.933  0.00  0.00    +0.111 A 
ATOM     27  C   UNL     1      11.198  12.355  24.175  0.00  0.00    +0.111 A 
ENDBRANCH  15  18
ENDBRANCH   8  15
ENDBRANCH  14  12
BRANCH  23   9
ATOM      7  O   UNL     1      20.321   7.136  21.084  0.00  0.00    -0.270 OA
ATOM      9  N   UNL     1      19.082   5.386  20.118  0.00  0.00    -0.282 N 
ATOM     28  C   UNL     1      20.230   5.995  20.645  0.00  0.00    +0.248 C 
ATOM     37  H   UNL     1      19.142   4.413  19.832  0.00  0.00    +0.155 HD
BRANCH  28  29
ATOM     29  C   UNL     1      21.442   5.136  20.689  0.00  0.00    +0.037 A 
ATOM     30  C   UNL     1      22.692   5.679  20.395  0.00  0.00    +0.013 A 
ATOM     31  C   UNL     1      21.329   3.787  21.025  0.00  0.00    +0.013 A 
ATOM     32  C   UNL     1      23.717   3.523  20.771  0.00  0.00    +0.055 A 
ATOM     33  C   UNL     1      23.830   4.872  20.436  0.00  0.00    +0.013 A 
ATOM     34  C   UNL     1      22.466   2.980  21.065  0.00  0.00    +0.013 A 
BRANCH  32  35
ATOM      1  F   UNL     1      24.656   1.326  20.871  0.00  0.00    -0.166 F 
ATOM      2  F   UNL     1      25.738   2.905  21.891  0.00  0.00    -0.166 F 
ATOM      3  F   UNL     1      25.731   2.823  19.718  0.00  0.00    -0.166 F 
ATOM     35  C   UNL     1      24.934   2.662  20.814  0.00  0.00    +0.417 C 
ENDBRANCH  32  35
ENDBRANCH  28  29
ENDBRANCH  23   9
TORSDOF 8
ENDMDL
MODEL 3
REMARK VINA RESULT:      -6.8      5.463     10.480
REMARK  Name = 71693460
REMARK  8 active torsions:
REMARK  status: ('A' for Active; 'I' for Inactive)
REMARK    1  A    between atoms: O_5  and  C_13
REMARK    2  A    between atoms: N_8  and  C_15
REMARK    3  A    between atoms: N_9  and  C_23
REMARK    4  A    between atoms: C_11  and  C_13
REMARK    5  A    between atoms: C_12  and  C_14
REMARK    6  A    between atoms: C_15  and  C_18
REMARK    7  A    between atoms: C_28  and  C_29
REMARK    8  A    between atoms: C_32  and  C_35
REMARK                            x       y       z     vdW  Elec       q    Type
REMARK                         _______ _______ _______ _____ _____    ______ ____
ROOT
ATOM     14  C   UNL     1      21.758   5.470  20.481  0.00  0.00    -0.017 A 
ATOM     19  C   UNL     1      20.770   4.497  20.337  0.00  0.00    +0.008 A 
ATOM     20  C   UNL     1      21.402   6.815  20.576  0.00  0.00    +0.008 A 
ATOM     21  C   UNL     1      19.426   4.868  20.288  0.00  0.00    +0.023 A 
ATOM     22  C   UNL     1      20.060   7.187  20.527  0.00  0.00    +0.023 A 
ATOM     23  C   UNL     1      19.071   6.215  20.384  0.00  0.00    +0.034 A 
ENDROOT
BRANCH  14  12
ATOM      4  O   UNL     1      23.987   6.270  20.616  0.00  0.00    -0.361 OA
ATOM      6  O   UNL     1      25.806   6.211  23.514  0.00  0.00    -0.273 OA
ATOM      8  N   UNL     1      24.131   4.733  22.839  0.00  0.00    -0.287 N 
ATOM     11  C   UNL     1      23.484   4.074  21.698  0.00  0.00    +0.135 C 
ATOM     12  C   UNL     1      23.219   5.065  20.535  0.00  0.00    +0.171 C 
ATOM     16  C   UNL     1      25.107   5.703  22.638  0.00  0.00    +0.242 C 
ATOM     17  C   UNL     1      25.267   6.092  21.187  0.00  0.00    +0.256 C 
BRANCH  11  13
ATOM     13  C   UNL     1      24.313   2.873  21.225  0.00  0.00    +0.181 C 
BRANCH  13   5
ATOM      5  O   UNL     1      23.931   2.566  19.900  0.00  0.00    -0.393 OA
ATOM     36  H   UNL     1      24.705   2.176  19.459  0.00  0.00    +0.209 HD
ENDBRANCH  13   5
ENDBRANCH  11  13
BRANCH   8  15
ATOM     15  C   UNL     1      23.820   4.247  24.175  0.00  0.00    +0.143 C 
BRANCH  15  18
ATOM     10  N   UNL     1      20.842   6.666  26.110  0.00  0.00    -0.263 NA
ATOM     18  C   UNL     1      22.779   5.092  24.851  0.00  0.00    -0.027 A 
ATOM     24  C   UNL     1      22.051   6.023  24.118  0.00  0.00    +0.025 A 
ATOM     25  C   UNL     1      22.539   4.948  26.213  0.00  0.00    +0.025 A 
ATOM     26  C   UNL     1      21.102   6.778  24.789  0.00  0.00    +0.111 A 
ATOM     27  C   UNL     1      21.569   5.750  26.790  0.00  0.00    +0.111 A 
ENDBRANCH  15  18
ENDBRANCH   8  15
ENDBRANCH  14  12
BRANCH  23   9
ATOM      7  O   UNL     1      16.947   5.549  18.375  0.00  0.00    -0.270 OA
ATOM      9  N   UNL     1      17.726   6.586  20.336  0.00  0.00    -0.282 N 
ATOM     28  C   UNL     1      16.771   6.245  19.368  0.00  0.00    +0.248 C 
ATOM     37  H   UNL     1      17.426   7.136  21.135  0.00  0.00    +0.155 HD
BRANCH  28  29
ATOM     29  C   UNL     1      15.404   6.775  19.610  0.00  0.00    +0.037 A 
ATOM     30  C   UNL     1      14.871   6.769  20.899  0.00  0.00    +0.013 A 
ATOM     31  C   UNL     1      14.653   7.277  18.547  0.00  0.00    +0.013 A 
ATOM     32  C   UNL     1      12.836   7.768  20.062  0.00  0.00    +0.055 A 
ATOM     33  C   UNL     1      13.588   7.266  21.125  0.00  0.00    +0.013 A 
ATOM     34  C   UNL     1      13.369   7.773  18.773  0.00  0.00    +0.013 A 
BRANCH  32  35
ATOM      1  F   UNL     1      10.812   8.674  19.165  0.00  0.00    -0.166 F 
ATOM      2  F   UNL     1      11.438   9.403  21.109  0.00  0.00    -0.166 F 
ATOM      3  F   UNL     1      10.648   7.387  20.910  0.00  0.00    -0.166 F 
ATOM     35  C   UNL     1      11.464   8.298  20.305  0.00  0.00    +0.417 C 
ENDBRANCH  32  35
ENDBRANCH  28  29
ENDBRANCH  23   9
TORSDOF 8
ENDMDL
MODEL 4
REMARK VINA RESULT:      -6.7      5.801     11.399
REMARK  Name = 71693460
REMARK  8 active torsions:
REMARK  status: ('A' for Active; 'I' for Inactive)
REMARK    1  A    between atoms: O_5  and  C_13
REMARK    2  A    between atoms: N_8  and  C_15
REMARK    3  A    between atoms: N_9  and  C_23
REMARK    4  A    between atoms: C_11  and  C_13
REMARK    5  A    between atoms: C_12  and  C_14
REMARK    6  A    between atoms: C_15  and  C_18
REMARK    7  A    between atoms: C_28  and  C_29
REMARK    8  A    between atoms: C_32  and  C_35
REMARK                            x       y       z     vdW  Elec       q    Type
REMARK                         _______ _______ _______ _____ _____    ______ ____
ROOT
ATOM     14  C   UNL     1      21.518   5.747  20.873  0.00  0.00    -0.017 A 
ATOM     19  C   UNL     1      21.100   7.036  21.199  0.00  0.00    +0.008 A 
ATOM     20  C   UNL     1      20.595   4.813  20.400  0.00  0.00    +0.008 A 
ATOM     21  C   UNL     1      19.759   7.393  21.053  0.00  0.00    +0.023 A 
ATOM     22  C   UNL     1      19.255   5.169  20.254  0.00  0.00    +0.023 A 
ATOM     23  C   UNL     1      18.836   6.459  20.580  0.00  0.00    +0.034 A 
ENDROOT
BRANCH  14  12
ATOM      4  O   UNL     1      23.545   6.245  22.000  0.00  0.00    -0.361 OA
ATOM      6  O   UNL     1      24.713   4.384  24.624  0.00  0.00    -0.273 OA
ATOM      8  N   UNL     1      23.424   3.666  22.815  0.00  0.00    -0.287 N 
ATOM     11  C   UNL     1      23.121   3.858  21.392  0.00  0.00    +0.135 C 
ATOM     12  C   UNL     1      22.976   5.359  21.030  0.00  0.00    +0.171 C 
ATOM     16  C   UNL     1      24.285   4.534  23.480  0.00  0.00    +0.242 C 
ATOM     17  C   UNL     1      24.690   5.725  22.644  0.00  0.00    +0.256 C 
BRANCH  11  13
ATOM     13  C   UNL     1      24.181   3.177  20.517  0.00  0.00    +0.181 C 
BRANCH  13   5
ATOM      5  O   UNL     1      23.568   2.101  19.836  0.00  0.00    -0.393 OA
ATOM     36  H   UNL     1      23.959   1.281  20.181  0.00  0.00    +0.209 HD
ENDBRANCH  13   5
ENDBRANCH  11  13
BRANCH   8  15
ATOM     15  C   UNL     1      22.909   2.473  23.470  0.00  0.00    +0.143 C 
BRANCH  15  18
ATOM     10  N   UNL     1      26.032  -0.327  24.399  0.00  0.00    -0.263 NA
ATOM     18  C   UNL     1      24.000   1.495  23.794  0.00  0.00    -0.027 A 
ATOM     24  C   UNL     1      24.790   0.968  22.778  0.00  0.00    +0.025 A 
ATOM     25  C   UNL     1      24.225   1.112  25.112  0.00  0.00    +0.025 A 
ATOM     26  C   UNL     1      25.784   0.068  23.131  0.00  0.00    +0.111 A 
ATOM     27  C   UNL     1      25.244   0.206  25.359  0.00  0.00    +0.111 A 
ENDBRANCH  15  18
ENDBRANCH   8  15
ENDBRANCH  14  12
BRANCH  23   9
ATOM      7  O   UNL     1      16.805   5.581  18.556  0.00  0.00    -0.270 OA
ATOM      9  N   UNL     1      17.495   6.817  20.434  0.00  0.00    -0.282 N 
ATOM     28  C   UNL     1      16.585   6.374  19.464  0.00  0.00    +0.248 C 
ATOM     37  H   UNL     1      17.159   7.444  21.158  0.00  0.00    +0.155 HD
BRANCH  28  29
ATOM     29  C   UNL     1      15.208   6.920  19.589  0.00  0.00    +0.037 A 
ATOM     30  C   UNL     1      14.573   7.471  18.477  0.00  0.00    +0.013 A 
ATOM     31  C   UNL     1      14.552   6.881  20.819  0.00  0.00    +0.013 A 
ATOM     32  C   UNL     1      12.624   7.945  19.824  0.00  0.00    +0.055 A 
ATOM     33  C   UNL     1      13.281   7.983  18.594  0.00  0.00    +0.013 A 
ATOM     34  C   UNL     1      13.260   7.394  20.937  0.00  0.00    +0.013 A 
BRANCH  32  35
ATOM      1  F   UNL     1      10.595   8.622  18.753  0.00  0.00    -0.166 F 
ATOM      2  F   UNL     1      11.197   9.737  20.514  0.00  0.00    -0.166 F 
ATOM      3  F   UNL     1      10.434   7.711  20.721  0.00  0.00    -0.166 F 
ATOM     35  C   UNL     1      11.243   8.493  19.949  0.00  0.00    +0.417 C 
ENDBRANCH  32  35
ENDBRANCH  28  29
ENDBRANCH  23   9
TORSDOF 8
ENDMDL
MODEL 5
REMARK VINA RESULT:      -6.7     28.156     31.543
REMARK  Name = 71693460
REMARK  8 active torsions:
REMARK  status: ('A' for Active; 'I' for Inactive)
REMARK    1  A    between atoms: O_5  and  C_13
REMARK    2  A    between atoms: N_8  and  C_15
REMARK    3  A    between atoms: N_9  and  C_23
REMARK    4  A    between atoms: C_11  and  C_13
REMARK    5  A    between atoms: C_12  and  C_14
REMARK    6  A    between atoms: C_15  and  C_18
REMARK    7  A    between atoms: C_28  and  C_29
REMARK    8  A    between atoms: C_32  and  C_35
REMARK                            x       y       z     vdW  Elec       q    Type
REMARK                         _______ _______ _______ _____ _____    ______ ____
ROOT
ATOM     14  C   UNL     1      -2.943 -10.994  11.536  0.00  0.00    -0.017 A 
ATOM     19  C   UNL     1      -3.938 -11.822  11.018  0.00  0.00    +0.008 A 
ATOM     20  C   UNL     1      -2.726  -9.733  10.979  0.00  0.00    +0.008 A 
ATOM     21  C   UNL     1      -4.717 -11.390   9.944  0.00  0.00    +0.023 A 
ATOM     22  C   UNL     1      -3.504  -9.301   9.906  0.00  0.00    +0.023 A 
ATOM     23  C   UNL     1      -4.500 -10.129   9.388  0.00  0.00    +0.034 A 
ENDROOT
BRANCH  14  12
ATOM      4  O   UNL     1      -1.745 -10.301  13.462  0.00  0.00    -0.361 OA
ATOM      6  O   UNL     1      -2.973 -10.659  16.637  0.00  0.00    -0.273 OA
ATOM      8  N   UNL     1      -3.383 -12.009  14.778  0.00  0.00    -0.287 N 
ATOM     11  C   UNL     1      -2.833 -12.551  13.529  0.00  0.00    +0.135 C 
ATOM     12  C   UNL     1      -2.097 -11.463  12.704  0.00  0.00    +0.171 C 
ATOM     16  C   UNL     1      -2.672 -11.068  15.517  0.00  0.00    +0.242 C 
ATOM     17  C   UNL     1      -1.430 -10.577  14.812  0.00  0.00    +0.256 C 
BRANCH  11  13
ATOM     13  C   UNL     1      -1.915 -13.746  13.815  0.00  0.00    +0.181 C 
BRANCH  13   5
ATOM      5  O   UNL     1      -0.655 -13.485  13.232  0.00  0.00    -0.393 OA
ATOM     36  H   UNL     1      -0.790 -13.413  12.272  0.00  0.00    +0.209 HD
ENDBRANCH  13   5
ENDBRANCH  11  13
BRANCH   8  15
ATOM     15  C   UNL     1      -4.621 -12.582  15.285  0.00  0.00    +0.143 C 
BRANCH  15  18
ATOM     10  N   UNL     1      -7.908  -9.832  14.978  0.00  0.00    -0.263 NA
ATOM     18  C   UNL     1      -5.769 -11.621  15.178  0.00  0.00    -0.027 A 
ATOM     24  C   UNL     1      -6.492 -11.268  16.312  0.00  0.00    +0.025 A 
ATOM     25  C   UNL     1      -6.114 -11.081  13.944  0.00  0.00    +0.025 A 
ATOM     26  C   UNL     1      -7.543 -10.377  16.159  0.00  0.00    +0.111 A 
ATOM     27  C   UNL     1      -7.181 -10.198  13.898  0.00  0.00    +0.111 A 
ENDBRANCH  15  18
ENDBRANCH   8  15
ENDBRANCH  14  12
BRANCH  23   9
ATOM      7  O   UNL     1      -7.246  -8.926   9.346  0.00  0.00    -0.270 OA
ATOM      9  N   UNL     1      -5.280  -9.698   8.314  0.00  0.00    -0.282 N 
ATOM     28  C   UNL     1      -6.565  -9.139   8.350  0.00  0.00    +0.248 C 
ATOM     37  H   UNL     1      -4.814  -9.774   7.415  0.00  0.00    +0.155 HD
BRANCH  28  29
ATOM     29  C   UNL     1      -7.126  -8.750   7.030  0.00  0.00    +0.037 A 
ATOM     30  C   UNL     1      -8.096  -7.751   6.952  0.00  0.00    +0.013 A 
ATOM     31  C   UNL     1      -6.685  -9.386   5.870  0.00  0.00    +0.013 A 
ATOM     32  C   UNL     1      -8.182  -8.022   4.552  0.00  0.00    +0.055 A 
ATOM     33  C   UNL     1      -8.623  -7.387   5.713  0.00  0.00    +0.013 A 
ATOM     34  C   UNL     1      -7.213  -9.023   4.631  0.00  0.00    +0.013 A 
BRANCH  32  35
ATOM      1  F   UNL     1      -9.567  -6.542   3.283  0.00  0.00    -0.166 F 
ATOM      2  F   UNL     1      -9.499  -8.614   2.645  0.00  0.00    -0.166 F 
ATOM      3  F   UNL     1      -7.782  -7.320   2.316  0.00  0.00    -0.166 F 
ATOM     35  C   UNL     1      -8.747  -7.633   3.228  0.00  0.00    +0.417 C 
ENDBRANCH  32  35
ENDBRANCH  28  29
ENDBRANCH  23   9
TORSDOF 8
ENDMDL
MODEL 6
REMARK VINA RESULT:      -6.6     13.917     15.771
REMARK  Name = 71693460
REMARK  8 active torsions:
REMARK  status: ('A' for Active; 'I' for Inactive)
REMARK    1  A    between atoms: O_5  and  C_13
REMARK    2  A    between atoms: N_8  and  C_15
REMARK    3  A    between atoms: N_9  and  C_23
REMARK    4  A    between atoms: C_11  and  C_13
REMARK    5  A    between atoms: C_12  and  C_14
REMARK    6  A    between atoms: C_15  and  C_18
REMARK    7  A    between atoms: C_28  and  C_29
REMARK    8  A    between atoms: C_32  and  C_35
REMARK                            x       y       z     vdW  Elec       q    Type
REMARK                         _______ _______ _______ _____ _____    ______ ____
ROOT
ATOM     14  C   UNL     1      12.276   8.003   7.002  0.00  0.00    -0.017 A 
ATOM     19  C   UNL     1      13.065   6.854   6.956  0.00  0.00    +0.008 A 
ATOM     20  C   UNL     1      12.853   9.253   6.778  0.00  0.00    +0.008 A 
ATOM     21  C   UNL     1      14.430   6.955   6.688  0.00  0.00    +0.023 A 
ATOM     22  C   UNL     1      14.217   9.355   6.510  0.00  0.00    +0.023 A 
ATOM     23  C   UNL     1      15.007   8.206   6.464  0.00  0.00    +0.034 A 
ENDROOT
BRANCH  14  12
ATOM      4  O   UNL     1      10.132   8.882   6.495  0.00  0.00    -0.361 OA
ATOM      6  O   UNL     1       7.928   7.303   4.405  0.00  0.00    -0.273 OA
ATOM      8  N   UNL     1       9.540   6.336   5.788  0.00  0.00    -0.287 N 
ATOM     11  C   UNL     1      10.278   6.449   7.052  0.00  0.00    +0.135 C 
ATOM     12  C   UNL     1      10.791   7.893   7.292  0.00  0.00    +0.171 C 
ATOM     16  C   UNL     1       8.693   7.357   5.367  0.00  0.00    +0.242 C 
ATOM     17  C   UNL     1       8.774   8.590   6.235  0.00  0.00    +0.256 C 
BRANCH  11  13
ATOM     13  C   UNL     1       9.418   5.964   8.226  0.00  0.00    +0.181 C 
BRANCH  13   5
ATOM      5  O   UNL     1      10.203   5.100   9.022  0.00  0.00    -0.393 OA
ATOM     36  H   UNL     1       9.771   4.229   9.015  0.00  0.00    +0.209 HD
ENDBRANCH  13   5
ENDBRANCH  11  13
BRANCH   8  15
ATOM     15  C   UNL     1       9.616   5.077   5.062  0.00  0.00    +0.143 C 
BRANCH  15  18
ATOM     10  N   UNL     1      12.667   5.148   2.037  0.00  0.00    -0.263 NA
ATOM     18  C   UNL     1      10.683   5.102   4.006  0.00  0.00    -0.027 A 
ATOM     24  C   UNL     1      11.450   6.246   3.815  0.00  0.00    +0.025 A 
ATOM     25  C   UNL     1      10.906   3.982   3.213  0.00  0.00    +0.025 A 
ATOM     26  C   UNL     1      12.421   6.218   2.826  0.00  0.00    +0.111 A 
ATOM     27  C   UNL     1      11.901   4.055   2.252  0.00  0.00    +0.111 A 
ENDBRANCH  15  18
ENDBRANCH   8  15
ENDBRANCH  14  12
BRANCH  23   9
ATOM      7  O   UNL     1      16.474   8.185   3.849  0.00  0.00    -0.270 OA
ATOM      9  N   UNL     1      16.372   8.306   6.195  0.00  0.00    -0.282 N 
ATOM     28  C   UNL     1      17.010   8.291   4.947  0.00  0.00    +0.248 C 
ATOM     37  H   UNL     1      16.942   8.446   7.025  0.00  0.00    +0.155 HD
BRANCH  28  29
ATOM     29  C   UNL     1      18.487   8.446   4.986  0.00  0.00    +0.037 A 
ATOM     30  C   UNL     1      19.205   8.584   3.798  0.00  0.00    +0.013 A 
ATOM     31  C   UNL     1      19.156   8.453   6.209  0.00  0.00    +0.013 A 
ATOM     32  C   UNL     1      21.261   8.736   5.058  0.00  0.00    +0.055 A 
ATOM     33  C   UNL     1      20.592   8.729   3.834  0.00  0.00    +0.013 A 
ATOM     34  C   UNL     1      20.543   8.598   6.246  0.00  0.00    +0.013 A 
BRANCH  32  35
ATOM      1  F   UNL     1      23.247   9.597   4.040  0.00  0.00    -0.166 F 
ATOM      2  F   UNL     1      23.418   7.702   5.082  0.00  0.00    -0.166 F 
ATOM      3  F   UNL     1      23.176   9.544   6.212  0.00  0.00    -0.166 F 
ATOM     35  C   UNL     1      22.744   8.891   5.095  0.00  0.00    +0.417 C 
ENDBRANCH  32  35
ENDBRANCH  28  29
ENDBRANCH  23   9
TORSDOF 8
ENDMDL
MODEL 7
REMARK VINA RESULT:      -6.5     29.951     33.000
REMARK  Name = 71693460
REMARK  8 active torsions:
REMARK  status: ('A' for Active; 'I' for Inactive)
REMARK    1  A    between atoms: O_5  and  C_13
REMARK    2  A    between atoms: N_8  and  C_15
REMARK    3  A    between atoms: N_9  and  C_23
REMARK    4  A    between atoms: C_11  and  C_13
REMARK    5  A    between atoms: C_12  and  C_14
REMARK    6  A    between atoms: C_15  and  C_18
REMARK    7  A    between atoms: C_28  and  C_29
REMARK    8  A    between atoms: C_32  and  C_35
REMARK                            x       y       z     vdW  Elec       q    Type
REMARK                         _______ _______ _______ _____ _____    ______ ____
ROOT
ATOM     14  C   UNL     1      -8.802 -10.263  16.992  0.00  0.00    -0.017 A 
ATOM     19  C   UNL     1      -8.852  -8.929  17.392  0.00  0.00    +0.008 A 
ATOM     20  C   UNL     1      -9.566 -10.695  15.907  0.00  0.00    +0.008 A 
ATOM     21  C   UNL     1      -9.666  -8.025  16.709  0.00  0.00    +0.023 A 
ATOM     22  C   UNL     1     -10.380  -9.792  15.224  0.00  0.00    +0.023 A 
ATOM     23  C   UNL     1     -10.430  -8.457  15.624  0.00  0.00    +0.034 A 
ENDROOT
BRANCH  14  12
ATOM      4  O   UNL     1      -8.094 -12.524  17.116  0.00  0.00    -0.361 OA
ATOM      6  O   UNL     1      -5.069 -13.589  15.919  0.00  0.00    -0.273 OA
ATOM      8  N   UNL     1      -5.611 -11.495  16.796  0.00  0.00    -0.287 N 
ATOM     11  C   UNL     1      -6.441 -10.762  17.760  0.00  0.00    +0.135 C 
ATOM     12  C   UNL     1      -7.915 -11.246  17.734  0.00  0.00    +0.171 C 
ATOM     16  C   UNL     1      -5.796 -12.859  16.592  0.00  0.00    +0.242 C 
ATOM     17  C   UNL     1      -7.007 -13.406  17.309  0.00  0.00    +0.256 C 
BRANCH  11  13
ATOM     13  C   UNL     1      -5.849 -10.863  19.171  0.00  0.00    +0.181 C 
BRANCH  13   5
ATOM      5  O   UNL     1      -6.572  -9.992  20.017  0.00  0.00    -0.393 OA
ATOM     36  H   UNL     1      -6.060  -9.896  20.838  0.00  0.00    +0.209 HD
ENDBRANCH  13   5
ENDBRANCH  11  13
BRANCH   8  15
ATOM     15  C   UNL     1      -4.507 -10.785  16.166  0.00  0.00    +0.143 C 
BRANCH  15  18
ATOM     10  N   UNL     1      -5.333  -9.857  12.054  0.00  0.00    -0.263 NA
ATOM     18  C   UNL     1      -4.796 -10.460  14.730  0.00  0.00    -0.027 A 
ATOM     24  C   UNL     1      -6.030  -9.931  14.368  0.00  0.00    +0.025 A 
ATOM     25  C   UNL     1      -3.831 -10.688  13.755  0.00  0.00    +0.025 A 
ATOM     26  C   UNL     1      -6.246  -9.649  13.028  0.00  0.00    +0.111 A 
ATOM     27  C   UNL     1      -4.145 -10.372  12.444  0.00  0.00    +0.111 A 
ENDBRANCH  15  18
ENDBRANCH   8  15
ENDBRANCH  14  12
BRANCH  23   9
ATOM      7  O   UNL     1     -13.109  -7.326  16.354  0.00  0.00    -0.270 OA
ATOM      9  N   UNL     1     -11.244  -7.553  14.941  0.00  0.00    -0.282 N 
ATOM     28  C   UNL     1     -12.495  -7.054  15.328  0.00  0.00    +0.248 C 
ATOM     37  H   UNL     1     -10.832  -7.203  14.081  0.00  0.00    +0.155 HD
BRANCH  28  29
ATOM     29  C   UNL     1     -13.107  -6.075  14.393  0.00  0.00    +0.037 A 
ATOM     30  C   UNL     1     -14.476  -6.123  14.131  0.00  0.00    +0.013 A 
ATOM     31  C   UNL     1     -12.312  -5.109  13.777  0.00  0.00    +0.013 A 
ATOM     32  C   UNL     1     -14.256  -4.237  12.636  0.00  0.00    +0.055 A 
ATOM     33  C   UNL     1     -15.050  -5.204  13.253  0.00  0.00    +0.013 A 
ATOM     34  C   UNL     1     -12.886  -4.190  12.898  0.00  0.00    +0.013 A 
BRANCH  32  35
ATOM      1  F   UNL     1     -14.000  -2.777  10.759  0.00  0.00    -0.166 F 
ATOM      2  F   UNL     1     -15.373  -2.146  12.316  0.00  0.00    -0.166 F 
ATOM      3  F   UNL     1     -15.913  -3.785  10.992  0.00  0.00    -0.166 F 
ATOM     35  C   UNL     1     -14.871  -3.256  11.696  0.00  0.00    +0.417 C 
ENDBRANCH  32  35
ENDBRANCH  28  29
ENDBRANCH  23   9
TORSDOF 8
ENDMDL
MODEL 8
REMARK VINA RESULT:      -6.3     14.973     16.939
REMARK  Name = 71693460
REMARK  8 active torsions:
REMARK  status: ('A' for Active; 'I' for Inactive)
REMARK    1  A    between atoms: O_5  and  C_13
REMARK    2  A    between atoms: N_8  and  C_15
REMARK    3  A    between atoms: N_9  and  C_23
REMARK    4  A    between atoms: C_11  and  C_13
REMARK    5  A    between atoms: C_12  and  C_14
REMARK    6  A    between atoms: C_15  and  C_18
REMARK    7  A    between atoms: C_28  and  C_29
REMARK    8  A    between atoms: C_32  and  C_35
REMARK                            x       y       z     vdW  Elec       q    Type
REMARK                         _______ _______ _______ _____ _____    ______ ____
ROOT
ATOM     14  C   UNL     1      12.761   7.367   6.169  0.00  0.00    -0.017 A 
ATOM     19  C   UNL     1      12.839   7.362   4.777  0.00  0.00    +0.008 A 
ATOM     20  C   UNL     1      13.929   7.373   6.933  0.00  0.00    +0.008 A 
ATOM     21  C   UNL     1      14.084   7.362   4.148  0.00  0.00    +0.023 A 
ATOM     22  C   UNL     1      15.173   7.374   6.304  0.00  0.00    +0.023 A 
ATOM     23  C   UNL     1      15.252   7.369   4.912  0.00  0.00    +0.034 A 
ENDROOT
BRANCH  14  12
ATOM      4  O   UNL     1      10.708   8.532   6.402  0.00  0.00    -0.361 OA
ATOM      6  O   UNL     1       7.825   7.538   4.848  0.00  0.00    -0.273 OA
ATOM      8  N   UNL     1       9.592   6.204   5.588  0.00  0.00    -0.287 N 
ATOM     11  C   UNL     1      10.648   6.041   6.595  0.00  0.00    +0.135 C 
ATOM     12  C   UNL     1      11.407   7.368   6.854  0.00  0.00    +0.171 C 
ATOM     16  C   UNL     1       8.818   7.360   5.552  0.00  0.00    +0.242 C 
ATOM     17  C   UNL     1       9.302   8.427   6.505  0.00  0.00    +0.256 C 
BRANCH  11  13
ATOM     13  C   UNL     1      10.071   5.469   7.896  0.00  0.00    +0.181 C 
BRANCH  13   5
ATOM      5  O   UNL     1      10.550   4.149   8.051  0.00  0.00    -0.393 OA
ATOM     36  H   UNL     1      11.450   4.210   8.414  0.00  0.00    +0.209 HD
ENDBRANCH  13   5
ENDBRANCH  11  13
BRANCH   8  15
ATOM     15  C   UNL     1       9.291   5.074   4.723  0.00  0.00    +0.143 C 
BRANCH  15  18
ATOM     10  N   UNL     1      11.865   4.951   1.285  0.00  0.00    -0.263 NA
ATOM     18  C   UNL     1      10.191   5.031   3.522  0.00  0.00    -0.027 A 
ATOM     24  C   UNL     1      10.189   6.082   2.610  0.00  0.00    +0.025 A 
ATOM     25  C   UNL     1      11.028   3.941   3.315  0.00  0.00    +0.025 A 
ATOM     26  C   UNL     1      11.038   5.993   1.518  0.00  0.00    +0.111 A 
ATOM     27  C   UNL     1      11.840   3.949   2.192  0.00  0.00    +0.111 A 
ENDBRANCH  15  18
ENDBRANCH   8  15
ENDBRANCH  14  12
BRANCH  23   9
ATOM      7  O   UNL     1      17.479   9.374   5.021  0.00  0.00    -0.270 OA
ATOM      9  N   UNL     1      16.497   7.370   4.282  0.00  0.00    -0.282 N 
ATOM     28  C   UNL     1      17.507   8.338   4.367  0.00  0.00    +0.248 C 
ATOM     37  H   UNL     1      16.677   6.534   3.734  0.00  0.00    +0.155 HD
BRANCH  28  29
ATOM     29  C   UNL     1      18.741   8.039   3.595  0.00  0.00    +0.037 A 
ATOM     30  C   UNL     1      18.771   8.254   2.217  0.00  0.00    +0.013 A 
ATOM     31  C   UNL     1      19.869   7.543   4.248  0.00  0.00    +0.013 A 
ATOM     32  C   UNL     1      21.058   7.477   2.146  0.00  0.00    +0.055 A 
ATOM     33  C   UNL     1      19.930   7.973   1.493  0.00  0.00    +0.013 A 
ATOM     34  C   UNL     1      21.027   7.261   3.524  0.00  0.00    +0.013 A 
BRANCH  32  35
ATOM      1  F   UNL     1      23.425   7.728   1.906  0.00  0.00    -0.166 F 
ATOM      2  F   UNL     1      22.256   7.627   0.081  0.00  0.00    -0.166 F 
ATOM      3  F   UNL     1      22.548   5.838   1.282  0.00  0.00    -0.166 F 
ATOM     35  C   UNL     1      22.296   7.176   1.370  0.00  0.00    +0.417 C 
ENDBRANCH  32  35
ENDBRANCH  28  29
ENDBRANCH  23   9
TORSDOF 8
ENDMDL
MODEL 9
REMARK VINA RESULT:      -6.3     24.603     26.616
REMARK  Name = 71693460
REMARK  8 active torsions:
REMARK  status: ('A' for Active; 'I' for Inactive)
REMARK    1  A    between atoms: O_5  and  C_13
REMARK    2  A    between atoms: N_8  and  C_15
REMARK    3  A    between atoms: N_9  and  C_23
REMARK    4  A    between atoms: C_11  and  C_13
REMARK    5  A    between atoms: C_12  and  C_14
REMARK    6  A    between atoms: C_15  and  C_18
REMARK    7  A    between atoms: C_28  and  C_29
REMARK    8  A    between atoms: C_32  and  C_35
REMARK                            x       y       z     vdW  Elec       q    Type
REMARK                         _______ _______ _______ _____ _____    ______ ____
ROOT
ATOM     14  C   UNL     1      16.826  -4.726  -3.197  0.00  0.00    -0.017 A 
ATOM     19  C   UNL     1      17.507  -5.938  -3.098  0.00  0.00    +0.008 A 
ATOM     20  C   UNL     1      17.288  -3.608  -2.501  0.00  0.00    +0.008 A 
ATOM     21  C   UNL     1      18.649  -6.034  -2.302  0.00  0.00    +0.023 A 
ATOM     22  C   UNL     1      18.430  -3.704  -1.707  0.00  0.00    +0.023 A 
ATOM     23  C   UNL     1      19.111  -4.916  -1.607  0.00  0.00    +0.034 A 
ENDROOT
BRANCH  14  12
ATOM      4  O   UNL     1      16.025  -4.414  -5.408  0.00  0.00    -0.361 OA
ATOM      6  O   UNL     1      14.871  -6.990  -7.342  0.00  0.00    -0.273 OA
ATOM      8  N   UNL     1      14.787  -6.789  -5.018  0.00  0.00    -0.287 N 
ATOM     11  C   UNL     1      14.672  -5.863  -3.886  0.00  0.00    +0.135 C 
ATOM     12  C   UNL     1      15.584  -4.621  -4.062  0.00  0.00    +0.171 C 
ATOM     16  C   UNL     1      14.909  -6.309  -6.319  0.00  0.00    +0.242 C 
ATOM     17  C   UNL     1      15.082  -4.810  -6.383  0.00  0.00    +0.256 C 
BRANCH  11  13
ATOM     13  C   UNL     1      13.210  -5.451  -3.670  0.00  0.00    +0.181 C 
BRANCH  13   5
ATOM      5  O   UNL     1      12.712  -6.156  -2.551  0.00  0.00    -0.393 OA
ATOM     36  H   UNL     1      12.200  -6.910  -2.890  0.00  0.00    +0.209 HD
ENDBRANCH  13   5
ENDBRANCH  11  13
BRANCH   8  15
ATOM     15  C   UNL     1      14.634  -8.213  -4.757  0.00  0.00    +0.143 C 
BRANCH  15  18
ATOM     10  N   UNL     1      18.376 -10.075  -3.761  0.00  0.00    -0.263 NA
ATOM     18  C   UNL     1      15.942  -8.863  -4.409  0.00  0.00    -0.027 A 
ATOM     24  C   UNL     1      16.805  -9.278  -5.417  0.00  0.00    +0.025 A 
ATOM     25  C   UNL     1      16.294  -9.054  -3.077  0.00  0.00    +0.025 A 
ATOM     26  C   UNL     1      18.000  -9.874  -5.043  0.00  0.00    +0.111 A 
ATOM     27  C   UNL     1      17.511  -9.658  -2.808  0.00  0.00    +0.111 A 
ENDBRANCH  15  18
ENDBRANCH   8  15
ENDBRANCH  14  12
BRANCH  23   9
ATOM      7  O   UNL     1      19.395  -5.016   1.376  0.00  0.00    -0.270 OA
ATOM      9  N   UNL     1      20.254  -5.013  -0.813  0.00  0.00    -0.282 N 
ATOM     28  C   UNL     1      20.332  -5.055   0.586  0.00  0.00    +0.248 C 
ATOM     37  H   UNL     1      21.115  -5.101  -1.345  0.00  0.00    +0.155 HD
BRANCH  28  29
ATOM     29  C   UNL     1      21.703  -5.190   1.143  0.00  0.00    +0.037 A 
ATOM     30  C   UNL     1      22.696  -5.833   0.405  0.00  0.00    +0.013 A 
ATOM     31  C   UNL     1      21.996  -4.673   2.405  0.00  0.00    +0.013 A 
ATOM     32  C   UNL     1      24.277  -5.443   2.191  0.00  0.00    +0.055 A 
ATOM     33  C   UNL     1      23.983  -5.960   0.929  0.00  0.00    +0.013 A 
ATOM     34  C   UNL     1      23.283  -4.800   2.930  0.00  0.00    +0.013 A 
BRANCH  32  35
ATOM      1  F   UNL     1      26.580  -5.980   1.831  0.00  0.00    -0.166 F 
ATOM      2  F   UNL     1      25.742  -6.490   3.765  0.00  0.00    -0.166 F 
ATOM      3  F   UNL     1      26.129  -4.410   3.265  0.00  0.00    -0.166 F 
ATOM     35  C   UNL     1      25.652  -5.580   2.750  0.00  0.00    +0.417 C 
ENDBRANCH  32  35
ENDBRANCH  28  29
ENDBRANCH  23   9
TORSDOF 8
ENDMDL
MODEL 10
REMARK VINA RESULT:      -6.1      5.296     10.144
REMARK  Name = 71693460
REMARK  8 active torsions:
REMARK  status: ('A' for Active; 'I' for Inactive)
REMARK    1  A    between atoms: O_5  and  C_13
REMARK    2  A    between atoms: N_8  and  C_15
REMARK    3  A    between atoms: N_9  and  C_23
REMARK    4  A    between atoms: C_11  and  C_13
REMARK    5  A    between atoms: C_12  and  C_14
REMARK    6  A    between atoms: C_15  and  C_18
REMARK    7  A    between atoms: C_28  and  C_29
REMARK    8  A    between atoms: C_32  and  C_35
REMARK                            x       y       z     vdW  Elec       q    Type
REMARK                         _______ _______ _______ _____ _____    ______ ____
ROOT
ATOM     14  C   UNL     1      21.427   5.565  21.582  0.00  0.00    -0.017 A 
ATOM     19  C   UNL     1      20.857   6.302  22.619  0.00  0.00    +0.008 A 
ATOM     20  C   UNL     1      20.648   5.180  20.491  0.00  0.00    +0.008 A 
ATOM     21  C   UNL     1      19.507   6.652  22.567  0.00  0.00    +0.023 A 
ATOM     22  C   UNL     1      19.300   5.530  20.437  0.00  0.00    +0.023 A 
ATOM     23  C   UNL     1      18.729   6.266  21.475  0.00  0.00    +0.034 A 
ENDROOT
BRANCH  14  12
ATOM      4  O   UNL     1      23.305   4.887  20.300  0.00  0.00    -0.361 OA
ATOM      6  O   UNL     1      25.827   7.030  19.429  0.00  0.00    -0.273 OA
ATOM      8  N   UNL     1      24.484   7.092  21.337  0.00  0.00    -0.287 N 
ATOM     11  C   UNL     1      23.736   6.297  22.319  0.00  0.00    +0.135 C 
ATOM     12  C   UNL     1      22.895   5.185  21.639  0.00  0.00    +0.171 C 
ATOM     16  C   UNL     1      25.068   6.485  20.229  0.00  0.00    +0.242 C 
ATOM     17  C   UNL     1      24.694   5.029  20.086  0.00  0.00    +0.256 C 
BRANCH  11  13
ATOM     13  C   UNL     1      24.682   5.710  23.374  0.00  0.00    +0.181 C 
BRANCH  13   5
ATOM      5  O   UNL     1      24.325   4.359  23.584  0.00  0.00    -0.393 OA
ATOM     36  H   UNL     1      25.027   3.811  23.194  0.00  0.00    +0.209 HD
ENDBRANCH  13   5
ENDBRANCH  11  13
BRANCH   8  15
ATOM     15  C   UNL     1      24.711   8.500  21.627  0.00  0.00    +0.143 C 
BRANCH  15  18
ATOM     10  N   UNL     1      21.028  10.640  22.187  0.00  0.00    -0.263 NA
ATOM     18  C   UNL     1      23.424   9.247  21.823  0.00  0.00    -0.027 A 
ATOM     24  C   UNL     1      22.437   9.207  20.844  0.00  0.00    +0.025 A 
ATOM     25  C   UNL     1      23.214   9.983  22.983  0.00  0.00    +0.025 A 
ATOM     26  C   UNL     1      21.268   9.914  21.073  0.00  0.00    +0.111 A 
ATOM     27  C   UNL     1      22.010  10.655  23.117  0.00  0.00    +0.111 A 
ENDBRANCH  15  18
ENDBRANCH   8  15
ENDBRANCH  14  12
BRANCH  23   9
ATOM      7  O   UNL     1      17.431   8.881  20.788  0.00  0.00    -0.270 OA
ATOM      9  N   UNL     1      17.379   6.617  21.422  0.00  0.00    -0.282 N 
ATOM     28  C   UNL     1      16.823   7.861  21.094  0.00  0.00    +0.248 C 
ATOM     37  H   UNL     1      16.749   5.844  21.612  0.00  0.00    +0.155 HD
BRANCH  28  29
ATOM     29  C   UNL     1      15.338   7.916  21.099  0.00  0.00    +0.037 A 
ATOM     30  C   UNL     1      14.605   7.023  20.318  0.00  0.00    +0.013 A 
ATOM     31  C   UNL     1      14.678   8.861  21.883  0.00  0.00    +0.013 A 
ATOM     32  C   UNL     1      12.550   8.020  21.107  0.00  0.00    +0.055 A 
ATOM     33  C   UNL     1      13.211   7.075  20.322  0.00  0.00    +0.013 A 
ATOM     34  C   UNL     1      13.284   8.914  21.887  0.00  0.00    +0.013 A 
BRANCH  32  35
ATOM      1  F   UNL     1      10.470   6.906  21.498  0.00  0.00    -0.166 F 
ATOM      2  F   UNL     1      10.521   8.357  19.886  0.00  0.00    -0.166 F 
ATOM      3  F   UNL     1      10.571   9.029  21.954  0.00  0.00    -0.166 F 
ATOM     35  C   UNL     1      11.060   8.075  21.110  0.00  0.00    +0.417 C 
ENDBRANCH  32  35
ENDBRANCH  28  29
ENDBRANCH  23   9
TORSDOF 8
ENDMDL
