REMARK  Name = 75367729
REMARK  8 active torsions:
REMARK  status: ('A' for Active; 'I' for Inactive)
REMARK    1  A    between atoms: S_2  and  C_22
REMARK    2  A    between atoms: S_2  and  C_26
REMARK    3  A    between atoms: O_4  and  C_10
REMARK    4  A    between atoms: O_4  and  C_16
REMARK    5  A    between atoms: N_7  and  C_13
REMARK    6  A    between atoms: C_13  and  C_15
REMARK    7  A    between atoms: C_17  and  C_21
REMARK    8  A    between atoms: C_18  and  C_25
REMARK                            x       y       z     vdW  Elec       q    Type
REMARK                         _______ _______ _______ _____ _____    ______ ____
ROOT
ATOM      3  O   UNL     1      -1.258   4.058  -0.174  0.00  0.00    -0.375 OA
ATOM      7  N   UNL     1      -2.362   1.302   0.781  0.00  0.00    -0.292 NA
ATOM      9  C   UNL     1      -1.144   0.838   0.107  0.00  0.00    +0.131 C 
ATOM     10  C   UNL     1      -0.209   1.899  -0.495  0.00  0.00    +0.213 C 
ATOM     11  C   UNL     1      -2.197   2.544   1.538  0.00  0.00    +0.113 C 
ATOM     12  C   UNL     1      -0.928   3.072  -1.148  0.00  0.00    +0.205 C 
ATOM     14  C   UNL     1      -2.397   3.747   0.616  0.00  0.00    +0.175 C 
ENDROOT
BRANCH  10   4
ATOM      4  O   UNL     1       0.597   1.268  -1.490  0.00  0.00    -0.485 OA
BRANCH   4  16
ATOM     16  C   UNL     1       1.763   0.696  -1.060  0.00  0.00    +0.121 A 
ATOM     19  C   UNL     1       1.978  -0.670  -1.241  0.00  0.00    +0.047 A 
ATOM     20  C   UNL     1       2.736   1.479  -0.440  0.00  0.00    +0.047 A 
ATOM     22  C   UNL     1       4.140  -0.470  -0.182  0.00  0.00    +0.088 A 
ATOM     23  C   UNL     1       3.167  -1.253  -0.802  0.00  0.00    +0.030 A 
ATOM     24  C   UNL     1       3.925   0.896  -0.001  0.00  0.00    +0.030 A 
BRANCH  22   2
ATOM      2  S   UNL     1       5.627  -1.200   0.370  0.00  0.00    -0.006 S 
ATOM      5  O   UNL     1       5.869  -2.415  -0.395  0.00  0.00    -0.170 OA
ATOM      6  O   UNL     1       6.646  -0.161   0.418  0.00  0.00    -0.170 OA
ATOM     26  C   UNL     1       5.279  -1.702   2.041  0.00  0.00    +0.200 C 
ENDBRANCH  22   2
ENDBRANCH   4  16
ENDBRANCH  10   4
BRANCH   7  13
ATOM     13  C   UNL     1      -2.912   0.234   1.617  0.00  0.00    +0.129 C 
BRANCH  13  15
ATOM      1  S   UNL     1      -5.066  -0.637   0.063  0.00  0.00    -0.076 S 
ATOM      8  N   UNL     1      -3.872  -2.899  -0.309  0.00  0.00    -0.249 NA
ATOM     15  C   UNL     1      -3.529  -0.863   0.791  0.00  0.00    +0.026 A 
ATOM     17  C   UNL     1      -3.052  -2.119   0.483  0.00  0.00    +0.050 A 
ATOM     18  C   UNL     1      -4.962  -2.220  -0.591  0.00  0.00    +0.076 A 
ATOM     21  C   UNL     1      -1.762  -2.691   0.922  0.00  0.00    +0.066 C 
ATOM     25  C   UNL     1      -6.076  -2.731  -1.419  0.00  0.00    +0.073 C 
ENDBRANCH  13  15
ENDBRANCH   7  13
TORSDOF 5
