MODEL 1
REMARK VINA RESULT:      -7.4      0.000      0.000
REMARK  Name = 45361323
REMARK  11 active torsions:
REMARK  status: ('A' for Active; 'I' for Inactive)
REMARK    1  A    between atoms: O_2  and  C_10
REMARK    2  A    between atoms: O_4  and  C_28
REMARK    3  A    between atoms: O_4  and  C_29
REMARK    4  A    between atoms: O_5  and  C_34
REMARK    5  A    between atoms: O_5  and  C_35
REMARK    6  A    between atoms: C_8  and  C_16
REMARK    7  A    between atoms: C_11  and  C_17
REMARK    8  A    between atoms: C_13  and  C_20
REMARK    9  A    between atoms: C_17  and  C_21
REMARK   10  A    between atoms: C_17  and  C_22
REMARK   11  A    between atoms: C_23  and  C_28
REMARK                            x       y       z     vdW  Elec       q    Type
REMARK                         _______ _______ _______ _____ _____    ______ ____
ROOT
ATOM      1  S   UNL     1      -6.601  -9.374   7.263  0.00  0.00    -0.073 S 
ATOM      6  N   UNL     1      -7.571  -8.151   9.324  0.00  0.00    -0.245 NA
ATOM      8  C   UNL     1      -4.212 -10.519  10.410  0.00  0.00    -0.022 C 
ATOM      9  C   UNL     1      -5.326 -10.377  11.521  0.00  0.00    +0.033 C 
ATOM     10  C   UNL     1      -4.707 -10.383  12.948  0.00  0.00    +0.123 C 
ATOM     11  C   UNL     1      -3.770 -11.586  13.187  0.00  0.00    +0.029 C 
ATOM     12  C   UNL     1      -3.333 -11.756  10.710  0.00  0.00    +0.008 C 
ATOM     13  C   UNL     1      -6.275  -9.138  11.251  0.00  0.00    +0.042 C 
ATOM     14  C   UNL     1      -2.708 -11.725  12.097  0.00  0.00    +0.007 C 
ATOM     15  C   UNL     1      -4.880 -10.747   9.018  0.00  0.00    +0.051 C 
ATOM     16  C   UNL     1      -3.304  -9.264  10.331  0.00  0.00    +0.012 C 
ATOM     18  C   UNL     1      -6.615  -9.040   9.783  0.00  0.00    +0.055 A 
ATOM     19  C   UNL     1      -5.972  -9.761   8.798  0.00  0.00    +0.014 A 
ATOM     20  C   UNL     1      -7.566  -9.171  12.084  0.00  0.00    +0.014 C 
ATOM     23  C   UNL     1      -7.657  -8.249   8.016  0.00  0.00    +0.116 A 
ENDROOT
BRANCH  10   2
ATOM      2  O   UNL     1      -5.753 -10.461  13.916  0.00  0.00    -0.391 OA
ATOM     36  H   UNL     1      -5.994 -11.396  14.023  0.00  0.00    +0.210 HD
ENDBRANCH  10   2
BRANCH  11  17
ATOM     17  C   UNL     1      -3.091 -11.516  14.560  0.00  0.00    +0.078 C 
ATOM     21  C   UNL     1      -1.598 -11.762  14.444  0.00  0.00    +0.017 C 
BRANCH  17  22
ATOM      3  O   UNL     1      -3.739 -13.736  15.131  0.00  0.00    -0.275 OA
ATOM      7  N   UNL     1      -4.251 -12.065  16.641  0.00  0.00    -0.301 N 
ATOM     22  C   UNL     1      -3.718 -12.549  15.461  0.00  0.00    +0.219 C 
ATOM     24  C   UNL     1      -4.898 -12.932  17.615  0.00  0.00    +0.108 C 
ATOM     25  C   UNL     1      -4.256 -10.677  17.093  0.00  0.00    +0.108 C 
ATOM     26  C   UNL     1      -5.033 -12.072  18.862  0.00  0.00    +0.020 C 
ATOM     27  C   UNL     1      -5.197 -10.669  18.288  0.00  0.00    +0.020 C 
ENDBRANCH  17  22
ENDBRANCH  11  17
BRANCH  23  28
ATOM     28  C   UNL     1      -8.585  -7.462   7.177  0.00  0.00    +0.291 C 
BRANCH  28   4
ATOM      4  O   UNL     1      -8.573  -6.096   7.587  0.00  0.00    -0.485 OA
BRANCH   4  29
ATOM     29  C   UNL     1      -9.735  -5.603   8.114  0.00  0.00    +0.121 A 
ATOM     30  C   UNL     1     -10.933  -6.294   7.928  0.00  0.00    +0.049 A 
ATOM     31  C   UNL     1      -9.722  -4.411   8.838  0.00  0.00    +0.049 A 
ATOM     32  C   UNL     1     -12.117  -5.792   8.466  0.00  0.00    +0.049 A 
ATOM     33  C   UNL     1     -10.907  -3.909   9.375  0.00  0.00    +0.049 A 
ATOM     34  C   UNL     1     -12.104  -4.598   9.189  0.00  0.00    +0.120 A 
BRANCH  34   5
ATOM      5  O   UNL     1     -13.261  -4.108   9.713  0.00  0.00    -0.495 OA
ATOM     35  C   UNL     1     -13.208  -3.609  11.049  0.00  0.00    +0.277 C 
ENDBRANCH  34   5
ENDBRANCH   4  29
ENDBRANCH  28   4
ENDBRANCH  23  28
TORSDOF 7
ENDMDL
MODEL 2
REMARK VINA RESULT:      -7.1      2.980      3.847
REMARK  Name = 45361323
REMARK  11 active torsions:
REMARK  status: ('A' for Active; 'I' for Inactive)
REMARK    1  A    between atoms: O_2  and  C_10
REMARK    2  A    between atoms: O_4  and  C_28
REMARK    3  A    between atoms: O_4  and  C_29
REMARK    4  A    between atoms: O_5  and  C_34
REMARK    5  A    between atoms: O_5  and  C_35
REMARK    6  A    between atoms: C_8  and  C_16
REMARK    7  A    between atoms: C_11  and  C_17
REMARK    8  A    between atoms: C_13  and  C_20
REMARK    9  A    between atoms: C_17  and  C_21
REMARK   10  A    between atoms: C_17  and  C_22
REMARK   11  A    between atoms: C_23  and  C_28
REMARK                            x       y       z     vdW  Elec       q    Type
REMARK                         _______ _______ _______ _____ _____    ______ ____
ROOT
ATOM      1  S   UNL     1      -6.028  -9.901   6.791  0.00  0.00    -0.073 S 
ATOM      6  N   UNL     1      -7.301  -8.498   8.550  0.00  0.00    -0.245 NA
ATOM      8  C   UNL     1      -4.002 -10.513  10.319  0.00  0.00    -0.022 C 
ATOM      9  C   UNL     1      -5.252 -10.304  11.262  0.00  0.00    +0.033 C 
ATOM     10  C   UNL     1      -4.817 -10.101  12.742  0.00  0.00    +0.123 C 
ATOM     11  C   UNL     1      -3.864 -11.209  13.241  0.00  0.00    +0.029 C 
ATOM     12  C   UNL     1      -3.114 -11.650  10.875  0.00  0.00    +0.008 C 
ATOM     13  C   UNL     1      -6.214  -9.166  10.727  0.00  0.00    +0.042 C 
ATOM     14  C   UNL     1      -2.669 -11.414  12.311  0.00  0.00    +0.007 C 
ATOM     15  C   UNL     1      -4.481 -10.947   8.898  0.00  0.00    +0.051 C 
ATOM     16  C   UNL     1      -3.149  -9.225  10.189  0.00  0.00    +0.012 C 
ATOM     18  C   UNL     1      -6.371  -9.266   9.228  0.00  0.00    +0.055 A 
ATOM     19  C   UNL     1      -5.579 -10.061   8.426  0.00  0.00    +0.014 A 
ATOM     20  C   UNL     1      -7.596  -9.175  11.399  0.00  0.00    +0.014 C 
ATOM     23  C   UNL     1      -7.219  -8.758   7.264  0.00  0.00    +0.116 A 
ENDROOT
BRANCH  10   2
ATOM      2  O   UNL     1      -5.970 -10.124  13.581  0.00  0.00    -0.391 OA
ATOM     36  H   UNL     1      -5.872 -10.860  14.208  0.00  0.00    +0.210 HD
ENDBRANCH  10   2
BRANCH  11  17
ATOM     17  C   UNL     1      -3.366 -10.933  14.665  0.00  0.00    +0.078 C 
ATOM     21  C   UNL     1      -1.858 -10.766  14.693  0.00  0.00    +0.017 C 
BRANCH  17  22
ATOM      3  O   UNL     1      -3.570 -13.245  15.199  0.00  0.00    -0.275 OA
ATOM      7  N   UNL     1      -4.386 -11.729  16.740  0.00  0.00    -0.301 N 
ATOM     22  C   UNL     1      -3.776 -12.082  15.550  0.00  0.00    +0.219 C 
ATOM     24  C   UNL     1      -4.847 -12.720  17.701  0.00  0.00    +0.108 C 
ATOM     25  C   UNL     1      -4.656 -10.376  17.215  0.00  0.00    +0.108 C 
ATOM     26  C   UNL     1      -5.138 -11.922  18.962  0.00  0.00    +0.020 C 
ATOM     27  C   UNL     1      -5.574 -10.569  18.413  0.00  0.00    +0.020 C 
ENDBRANCH  17  22
ENDBRANCH  11  17
BRANCH  23  28
ATOM     28  C   UNL     1      -8.069  -8.135   6.228  0.00  0.00    +0.291 C 
BRANCH  28   4
ATOM      4  O   UNL     1      -7.544  -8.421   4.932  0.00  0.00    -0.485 OA
BRANCH   4  29
ATOM     29  C   UNL     1      -8.294  -8.015   3.863  0.00  0.00    +0.121 A 
ATOM     30  C   UNL     1      -7.921  -8.381   2.569  0.00  0.00    +0.049 A 
ATOM     31  C   UNL     1      -9.433  -7.235   4.066  0.00  0.00    +0.049 A 
ATOM     32  C   UNL     1      -8.686  -7.967   1.480  0.00  0.00    +0.049 A 
ATOM     33  C   UNL     1     -10.197  -6.820   2.976  0.00  0.00    +0.049 A 
ATOM     34  C   UNL     1      -9.825  -7.186   1.683  0.00  0.00    +0.120 A 
BRANCH  34   5
ATOM      5  O   UNL     1     -10.571  -6.781   0.619  0.00  0.00    -0.495 OA
ATOM     35  C   UNL     1     -11.141  -5.474   0.685  0.00  0.00    +0.277 C 
ENDBRANCH  34   5
ENDBRANCH   4  29
ENDBRANCH  28   4
ENDBRANCH  23  28
TORSDOF 7
ENDMDL
MODEL 3
REMARK VINA RESULT:      -6.9      2.702      9.459
REMARK  Name = 45361323
REMARK  11 active torsions:
REMARK  status: ('A' for Active; 'I' for Inactive)
REMARK    1  A    between atoms: O_2  and  C_10
REMARK    2  A    between atoms: O_4  and  C_28
REMARK    3  A    between atoms: O_4  and  C_29
REMARK    4  A    between atoms: O_5  and  C_34
REMARK    5  A    between atoms: O_5  and  C_35
REMARK    6  A    between atoms: C_8  and  C_16
REMARK    7  A    between atoms: C_11  and  C_17
REMARK    8  A    between atoms: C_13  and  C_20
REMARK    9  A    between atoms: C_17  and  C_21
REMARK   10  A    between atoms: C_17  and  C_22
REMARK   11  A    between atoms: C_23  and  C_28
REMARK                            x       y       z     vdW  Elec       q    Type
REMARK                         _______ _______ _______ _____ _____    ______ ____
ROOT
ATOM      1  S   UNL     1      -2.583 -10.672  13.777  0.00  0.00    -0.073 S 
ATOM      6  N   UNL     1      -5.106 -10.936  14.278  0.00  0.00    -0.245 NA
ATOM      8  C   UNL     1      -4.454 -10.171  10.147  0.00  0.00    -0.022 C 
ATOM      9  C   UNL     1      -5.801  -9.596  10.737  0.00  0.00    +0.033 C 
ATOM     10  C   UNL     1      -6.936  -9.609   9.673  0.00  0.00    +0.123 C 
ATOM     11  C   UNL     1      -6.522  -8.932   8.349  0.00  0.00    +0.029 C 
ATOM     12  C   UNL     1      -4.098  -9.427   8.839  0.00  0.00    +0.008 C 
ATOM     13  C   UNL     1      -6.203 -10.304  12.096  0.00  0.00    +0.042 C 
ATOM     14  C   UNL     1      -5.208  -9.484   7.798  0.00  0.00    +0.007 C 
ATOM     15  C   UNL     1      -3.288  -9.923  11.156  0.00  0.00    +0.051 C 
ATOM     16  C   UNL     1      -4.548 -11.690   9.853  0.00  0.00    +0.012 C 
ATOM     18  C   UNL     1      -4.987 -10.503  12.969  0.00  0.00    +0.055 A 
ATOM     19  C   UNL     1      -3.691 -10.337  12.527  0.00  0.00    +0.014 A 
ATOM     20  C   UNL     1      -7.288  -9.547  12.876  0.00  0.00    +0.014 C 
ATOM     23  C   UNL     1      -3.907 -11.048  14.804  0.00  0.00    +0.116 A 
ENDROOT
BRANCH  10   2
ATOM      2  O   UNL     1      -8.066  -8.898  10.178  0.00  0.00    -0.391 OA
ATOM     36  H   UNL     1      -7.774  -8.373  10.941  0.00  0.00    +0.210 HD
ENDBRANCH  10   2
BRANCH  11  17
ATOM     17  C   UNL     1      -7.616  -9.050   7.281  0.00  0.00    +0.078 C 
ATOM     21  C   UNL     1      -7.019  -9.344   5.918  0.00  0.00    +0.017 C 
BRANCH  17  22
ATOM      3  O   UNL     1      -7.807  -6.677   7.343  0.00  0.00    -0.275 OA
ATOM      7  N   UNL     1      -9.759  -7.887   7.090  0.00  0.00    -0.301 N 
ATOM     22  C   UNL     1      -8.390  -7.757   7.240  0.00  0.00    +0.219 C 
ATOM     24  C   UNL     1     -10.647  -6.735   7.039  0.00  0.00    +0.108 C 
ATOM     25  C   UNL     1     -10.509  -9.132   6.960  0.00  0.00    +0.108 C 
ATOM     26  C   UNL     1     -11.972  -7.297   6.549  0.00  0.00    +0.020 C 
ATOM     27  C   UNL     1     -11.965  -8.716   7.106  0.00  0.00    +0.020 C 
ENDBRANCH  17  22
ENDBRANCH  11  17
BRANCH  23  28
ATOM     28  C   UNL     1      -3.638 -11.473  16.195  0.00  0.00    +0.291 C 
BRANCH  28   4
ATOM      4  O   UNL     1      -4.016 -10.438  17.101  0.00  0.00    -0.485 OA
BRANCH   4  29
ATOM     29  C   UNL     1      -5.146 -10.654  17.842  0.00  0.00    +0.121 A 
ATOM     30  C   UNL     1      -5.088 -11.451  18.986  0.00  0.00    +0.049 A 
ATOM     31  C   UNL     1      -6.355 -10.077  17.454  0.00  0.00    +0.049 A 
ATOM     32  C   UNL     1      -6.240 -11.670  19.741  0.00  0.00    +0.049 A 
ATOM     33  C   UNL     1      -7.506 -10.297  18.208  0.00  0.00    +0.049 A 
ATOM     34  C   UNL     1      -7.449 -11.093  19.352  0.00  0.00    +0.120 A 
BRANCH  34   5
ATOM      5  O   UNL     1      -8.574 -11.308  20.089  0.00  0.00    -0.495 OA
ATOM     35  C   UNL     1      -9.783 -10.714  19.616  0.00  0.00    +0.277 C 
ENDBRANCH  34   5
ENDBRANCH   4  29
ENDBRANCH  28   4
ENDBRANCH  23  28
TORSDOF 7
ENDMDL
MODEL 4
REMARK VINA RESULT:      -6.4      3.415      6.042
REMARK  Name = 45361323
REMARK  11 active torsions:
REMARK  status: ('A' for Active; 'I' for Inactive)
REMARK    1  A    between atoms: O_2  and  C_10
REMARK    2  A    between atoms: O_4  and  C_28
REMARK    3  A    between atoms: O_4  and  C_29
REMARK    4  A    between atoms: O_5  and  C_34
REMARK    5  A    between atoms: O_5  and  C_35
REMARK    6  A    between atoms: C_8  and  C_16
REMARK    7  A    between atoms: C_11  and  C_17
REMARK    8  A    between atoms: C_13  and  C_20
REMARK    9  A    between atoms: C_17  and  C_21
REMARK   10  A    between atoms: C_17  and  C_22
REMARK   11  A    between atoms: C_23  and  C_28
REMARK                            x       y       z     vdW  Elec       q    Type
REMARK                         _______ _______ _______ _____ _____    ______ ____
ROOT
ATOM      1  S   UNL     1      -3.131 -12.249  12.060  0.00  0.00    -0.073 S 
ATOM      6  N   UNL     1      -4.642 -10.152  12.144  0.00  0.00    -0.245 NA
ATOM      8  C   UNL     1      -4.526 -12.089  15.927  0.00  0.00    -0.022 C 
ATOM      9  C   UNL     1      -5.886 -11.365  15.579  0.00  0.00    +0.033 C 
ATOM     10  C   UNL     1      -6.565 -10.792  16.856  0.00  0.00    +0.123 C 
ATOM     11  C   UNL     1      -6.713 -11.845  17.976  0.00  0.00    +0.029 C 
ATOM     12  C   UNL     1      -4.763 -13.139  17.037  0.00  0.00    +0.008 C 
ATOM     13  C   UNL     1      -5.709 -10.294  14.426  0.00  0.00    +0.042 C 
ATOM     14  C   UNL     1      -5.395 -12.551  18.291  0.00  0.00    +0.007 C 
ATOM     15  C   UNL     1      -3.997 -12.850  14.670  0.00  0.00    +0.051 C 
ATOM     16  C   UNL     1      -3.440 -11.090  16.402  0.00  0.00    +0.012 C 
ATOM     18  C   UNL     1      -4.806 -10.828  13.340  0.00  0.00    +0.055 A 
ATOM     19  C   UNL     1      -4.040 -11.969  13.472  0.00  0.00    +0.014 A 
ATOM     20  C   UNL     1      -7.042  -9.833  13.817  0.00  0.00    +0.014 C 
ATOM     23  C   UNL     1      -3.794 -10.814  11.388  0.00  0.00    +0.116 A 
ENDROOT
BRANCH  10   2
ATOM      2  O   UNL     1      -7.877 -10.335  16.529  0.00  0.00    -0.391 OA
ATOM     36  H   UNL     1      -8.439 -10.448  17.313  0.00  0.00    +0.210 HD
ENDBRANCH  10   2
BRANCH  11  17
ATOM     17  C   UNL     1      -7.288 -11.234  19.260  0.00  0.00    +0.078 C 
ATOM     21  C   UNL     1      -6.211 -11.071  20.317  0.00  0.00    +0.017 C 
BRANCH  17  22
ATOM      3  O   UNL     1      -8.126 -13.268  20.172  0.00  0.00    -0.275 OA
ATOM      7  N   UNL     1      -9.657 -11.592  19.747  0.00  0.00    -0.301 N 
ATOM     22  C   UNL     1      -8.385 -12.132  19.772  0.00  0.00    +0.219 C 
ATOM     24  C   UNL     1     -10.825 -12.333  20.201  0.00  0.00    +0.108 C 
ATOM     25  C   UNL     1     -10.031 -10.257  19.290  0.00  0.00    +0.108 C 
ATOM     26  C   UNL     1     -11.923 -11.286  20.309  0.00  0.00    +0.020 C 
ATOM     27  C   UNL     1     -11.550 -10.291  19.216  0.00  0.00    +0.020 C 
ENDBRANCH  17  22
ENDBRANCH  11  17
BRANCH  23  28
ATOM     28  C   UNL     1      -3.384 -10.401  10.030  0.00  0.00    +0.291 C 
BRANCH  28   4
ATOM      4  O   UNL     1      -3.877  -9.091   9.750  0.00  0.00    -0.485 OA
BRANCH   4  29
ATOM     29  C   UNL     1      -5.006  -9.012   8.982  0.00  0.00    +0.121 A 
ATOM     30  C   UNL     1      -6.066  -8.197   9.381  0.00  0.00    +0.049 A 
ATOM     31  C   UNL     1      -5.098  -9.746   7.799  0.00  0.00    +0.049 A 
ATOM     32  C   UNL     1      -7.216  -8.116   8.598  0.00  0.00    +0.049 A 
ATOM     33  C   UNL     1      -6.249  -9.666   7.017  0.00  0.00    +0.049 A 
ATOM     34  C   UNL     1      -7.308  -8.851   7.415  0.00  0.00    +0.120 A 
BRANCH  34   5
ATOM      5  O   UNL     1      -8.432  -8.773   6.651  0.00  0.00    -0.495 OA
ATOM     35  C   UNL     1      -8.734  -7.506   6.068  0.00  0.00    +0.277 C 
ENDBRANCH  34   5
ENDBRANCH   4  29
ENDBRANCH  28   4
ENDBRANCH  23  28
TORSDOF 7
ENDMDL
MODEL 5
REMARK VINA RESULT:      -6.4      3.446      9.698
REMARK  Name = 45361323
REMARK  11 active torsions:
REMARK  status: ('A' for Active; 'I' for Inactive)
REMARK    1  A    between atoms: O_2  and  C_10
REMARK    2  A    between atoms: O_4  and  C_28
REMARK    3  A    between atoms: O_4  and  C_29
REMARK    4  A    between atoms: O_5  and  C_34
REMARK    5  A    between atoms: O_5  and  C_35
REMARK    6  A    between atoms: C_8  and  C_16
REMARK    7  A    between atoms: C_11  and  C_17
REMARK    8  A    between atoms: C_13  and  C_20
REMARK    9  A    between atoms: C_17  and  C_21
REMARK   10  A    between atoms: C_17  and  C_22
REMARK   11  A    between atoms: C_23  and  C_28
REMARK                            x       y       z     vdW  Elec       q    Type
REMARK                         _______ _______ _______ _____ _____    ______ ____
ROOT
ATOM      1  S   UNL     1      -5.768 -12.147  14.025  0.00  0.00    -0.073 S 
ATOM      6  N   UNL     1      -4.054 -10.356  13.292  0.00  0.00    -0.245 NA
ATOM      8  C   UNL     1      -7.258 -10.613  10.510  0.00  0.00    -0.022 C 
ATOM      9  C   UNL     1      -5.855 -10.231   9.892  0.00  0.00    +0.033 C 
ATOM     10  C   UNL     1      -6.014  -9.272   8.677  0.00  0.00    +0.123 C 
ATOM     11  C   UNL     1      -7.010  -9.804   7.625  0.00  0.00    +0.029 C 
ATOM     12  C   UNL     1      -8.186 -11.156   9.398  0.00  0.00    +0.008 C 
ATOM     13  C   UNL     1      -4.851  -9.692  10.993  0.00  0.00    +0.042 C 
ATOM     14  C   UNL     1      -8.357 -10.188   8.236  0.00  0.00    +0.007 C 
ATOM     15  C   UNL     1      -7.077 -11.750  11.564  0.00  0.00    +0.051 C 
ATOM     16  C   UNL     1      -7.944  -9.402  11.192  0.00  0.00    +0.012 C 
ATOM     18  C   UNL     1      -4.954 -10.516  12.253  0.00  0.00    +0.055 A 
ATOM     19  C   UNL     1      -5.963 -11.425  12.495  0.00  0.00    +0.014 A 
ATOM     20  C   UNL     1      -3.392  -9.650  10.513  0.00  0.00    +0.014 C 
ATOM     23  C   UNL     1      -4.377 -11.172  14.271  0.00  0.00    +0.116 A 
ENDROOT
BRANCH  10   2
ATOM      2  O   UNL     1      -4.752  -9.119   8.028  0.00  0.00    -0.391 OA
ATOM     36  H   UNL     1      -4.106  -9.678   8.491  0.00  0.00    +0.210 HD
ENDBRANCH  10   2
BRANCH  11  17
ATOM     17  C   UNL     1      -7.230  -8.798   6.488  0.00  0.00    +0.078 C 
ATOM     21  C   UNL     1      -8.088  -7.633   6.949  0.00  0.00    +0.017 C 
BRANCH  17  22
ATOM      3  O   UNL     1      -9.031  -9.189   4.980  0.00  0.00    -0.275 OA
ATOM      7  N   UNL     1      -7.151 -10.512   4.747  0.00  0.00    -0.301 N 
ATOM     22  C   UNL     1      -7.895  -9.508   5.337  0.00  0.00    +0.219 C 
ATOM     24  C   UNL     1      -7.654 -11.296   3.628  0.00  0.00    +0.108 C 
ATOM     25  C   UNL     1      -5.804 -10.934   5.118  0.00  0.00    +0.108 C 
ATOM     26  C   UNL     1      -6.432 -12.030   3.097  0.00  0.00    +0.020 C 
ATOM     27  C   UNL     1      -5.586 -12.229   4.349  0.00  0.00    +0.020 C 
ENDBRANCH  17  22
ENDBRANCH  11  17
BRANCH  23  28
ATOM     28  C   UNL     1      -3.632 -11.290  15.543  0.00  0.00    +0.291 C 
BRANCH  28   4
ATOM      4  O   UNL     1      -3.955 -10.196  16.399  0.00  0.00    -0.485 OA
BRANCH   4  29
ATOM     29  C   UNL     1      -4.971 -10.396  17.293  0.00  0.00    +0.121 A 
ATOM     30  C   UNL     1      -4.747 -11.146  18.448  0.00  0.00    +0.049 A 
ATOM     31  C   UNL     1      -6.232  -9.852  17.049  0.00  0.00    +0.049 A 
ATOM     32  C   UNL     1      -5.782 -11.349  19.359  0.00  0.00    +0.049 A 
ATOM     33  C   UNL     1      -7.268 -10.056  17.960  0.00  0.00    +0.049 A 
ATOM     34  C   UNL     1      -7.043 -10.804  19.115  0.00  0.00    +0.120 A 
BRANCH  34   5
ATOM      5  O   UNL     1      -8.055 -11.004  20.004  0.00  0.00    -0.495 OA
ATOM     35  C   UNL     1      -9.387 -10.962  19.492  0.00  0.00    +0.277 C 
ENDBRANCH  34   5
ENDBRANCH   4  29
ENDBRANCH  28   4
ENDBRANCH  23  28
TORSDOF 7
ENDMDL
MODEL 6
REMARK VINA RESULT:      -6.4      4.730      8.343
REMARK  Name = 45361323
REMARK  11 active torsions:
REMARK  status: ('A' for Active; 'I' for Inactive)
REMARK    1  A    between atoms: O_2  and  C_10
REMARK    2  A    between atoms: O_4  and  C_28
REMARK    3  A    between atoms: O_4  and  C_29
REMARK    4  A    between atoms: O_5  and  C_34
REMARK    5  A    between atoms: O_5  and  C_35
REMARK    6  A    between atoms: C_8  and  C_16
REMARK    7  A    between atoms: C_11  and  C_17
REMARK    8  A    between atoms: C_13  and  C_20
REMARK    9  A    between atoms: C_17  and  C_21
REMARK   10  A    between atoms: C_17  and  C_22
REMARK   11  A    between atoms: C_23  and  C_28
REMARK                            x       y       z     vdW  Elec       q    Type
REMARK                         _______ _______ _______ _____ _____    ______ ____
ROOT
ATOM      1  S   UNL     1      -2.980 -12.245  15.212  0.00  0.00    -0.073 S 
ATOM      6  N   UNL     1      -4.277 -10.268  14.168  0.00  0.00    -0.245 NA
ATOM      8  C   UNL     1      -6.266 -11.723  17.631  0.00  0.00    -0.022 C 
ATOM      9  C   UNL     1      -7.208 -11.146  16.503  0.00  0.00    +0.033 C 
ATOM     10  C   UNL     1      -8.474 -10.475  17.110  0.00  0.00    +0.123 C 
ATOM     11  C   UNL     1      -9.217 -11.393  18.104  0.00  0.00    +0.029 C 
ATOM     12  C   UNL     1      -7.080 -12.647  18.568  0.00  0.00    +0.008 C 
ATOM     13  C   UNL     1      -6.421 -10.211  15.495  0.00  0.00    +0.042 C 
ATOM     14  C   UNL     1      -8.292 -11.960  19.180  0.00  0.00    +0.007 C 
ATOM     15  C   UNL     1      -5.139 -12.590  16.985  0.00  0.00    +0.051 C 
ATOM     16  C   UNL     1      -5.613 -10.600  18.476  0.00  0.00    +0.012 C 
ATOM     18  C   UNL     1      -5.074 -10.805  15.163  0.00  0.00    +0.055 A 
ATOM     19  C   UNL     1      -4.513 -11.864  15.848  0.00  0.00    +0.014 A 
ATOM     20  C   UNL     1      -7.199  -9.923  14.202  0.00  0.00    +0.014 C 
ATOM     23  C   UNL     1      -3.157 -10.953  14.096  0.00  0.00    +0.116 A 
ENDROOT
BRANCH  10   2
ATOM      2  O   UNL     1      -9.388 -10.154  16.062  0.00  0.00    -0.391 OA
ATOM     36  H   UNL     1      -9.741  -9.265  16.232  0.00  0.00    +0.210 HD
ENDBRANCH  10   2
BRANCH  11  17
ATOM     17  C   UNL     1     -10.399 -10.675  18.768  0.00  0.00    +0.078 C 
ATOM     21  C   UNL     1     -10.256 -10.672  20.279  0.00  0.00    +0.017 C 
BRANCH  17  22
ATOM      3  O   UNL     1     -11.821 -12.577  18.592  0.00  0.00    -0.275 OA
ATOM      7  N   UNL     1     -12.621 -10.579  17.752  0.00  0.00    -0.301 N 
ATOM     22  C   UNL     1     -11.673 -11.374  18.370  0.00  0.00    +0.219 C 
ATOM     24  C   UNL     1     -13.901 -11.105  17.301  0.00  0.00    +0.108 C 
ATOM     25  C   UNL     1     -12.510  -9.153  17.464  0.00  0.00    +0.108 C 
ATOM     26  C   UNL     1     -14.735  -9.870  16.996  0.00  0.00    +0.020 C 
ATOM     27  C   UNL     1     -13.687  -8.858  16.545  0.00  0.00    +0.020 C 
ENDBRANCH  17  22
ENDBRANCH  11  17
BRANCH  23  28
ATOM     28  C   UNL     1      -2.066 -10.677  13.137  0.00  0.00    +0.291 C 
BRANCH  28   4
ATOM      4  O   UNL     1      -2.205 -11.514  11.990  0.00  0.00    -0.485 OA
BRANCH   4  29
ATOM     29  C   UNL     1      -2.965 -11.027  10.963  0.00  0.00    +0.121 A 
ATOM     30  C   UNL     1      -3.773 -11.890  10.222  0.00  0.00    +0.049 A 
ATOM     31  C   UNL     1      -2.933  -9.666  10.656  0.00  0.00    +0.049 A 
ATOM     32  C   UNL     1      -4.549 -11.393   9.175  0.00  0.00    +0.049 A 
ATOM     33  C   UNL     1      -3.708  -9.170   9.609  0.00  0.00    +0.049 A 
ATOM     34  C   UNL     1      -4.516 -10.032   8.869  0.00  0.00    +0.120 A 
BRANCH  34   5
ATOM      5  O   UNL     1      -5.273  -9.547   7.846  0.00  0.00    -0.495 OA
ATOM     35  C   UNL     1      -5.582 -10.448   6.783  0.00  0.00    +0.277 C 
ENDBRANCH  34   5
ENDBRANCH   4  29
ENDBRANCH  28   4
ENDBRANCH  23  28
TORSDOF 7
ENDMDL
MODEL 7
REMARK VINA RESULT:      -6.3      1.834      2.238
REMARK  Name = 45361323
REMARK  11 active torsions:
REMARK  status: ('A' for Active; 'I' for Inactive)
REMARK    1  A    between atoms: O_2  and  C_10
REMARK    2  A    between atoms: O_4  and  C_28
REMARK    3  A    between atoms: O_4  and  C_29
REMARK    4  A    between atoms: O_5  and  C_34
REMARK    5  A    between atoms: O_5  and  C_35
REMARK    6  A    between atoms: C_8  and  C_16
REMARK    7  A    between atoms: C_11  and  C_17
REMARK    8  A    between atoms: C_13  and  C_20
REMARK    9  A    between atoms: C_17  and  C_21
REMARK   10  A    between atoms: C_17  and  C_22
REMARK   11  A    between atoms: C_23  and  C_28
REMARK                            x       y       z     vdW  Elec       q    Type
REMARK                         _______ _______ _______ _____ _____    ______ ____
ROOT
ATOM      1  S   UNL     1      -7.750  -9.141   7.379  0.00  0.00    -0.073 S 
ATOM      6  N   UNL     1      -8.542  -8.310   9.696  0.00  0.00    -0.245 NA
ATOM      8  C   UNL     1      -4.801 -10.306  10.000  0.00  0.00    -0.022 C 
ATOM      9  C   UNL     1      -5.748 -10.448  11.257  0.00  0.00    +0.033 C 
ATOM     10  C   UNL     1      -4.928 -10.536  12.576  0.00  0.00    +0.123 C 
ATOM     11  C   UNL     1      -3.829 -11.619  12.525  0.00  0.00    +0.029 C 
ATOM     12  C   UNL     1      -3.747 -11.438  10.012  0.00  0.00    +0.008 C 
ATOM     13  C   UNL     1      -6.867  -9.328  11.284  0.00  0.00    +0.042 C 
ATOM     14  C   UNL     1      -2.931 -11.483  11.296  0.00  0.00    +0.007 C 
ATOM     15  C   UNL     1      -5.637 -10.460   8.690  0.00  0.00    +0.051 C 
ATOM     16  C   UNL     1      -4.072  -8.939   9.972  0.00  0.00    +0.012 C 
ATOM     18  C   UNL     1      -7.430  -9.107   9.900  0.00  0.00    +0.055 A 
ATOM     19  C   UNL     1      -6.859  -9.614   8.751  0.00  0.00    +0.014 A 
ATOM     20  C   UNL     1      -8.007  -9.634  12.268  0.00  0.00    +0.014 C 
ATOM     23  C   UNL     1      -8.809  -8.266   8.409  0.00  0.00    +0.116 A 
ENDROOT
BRANCH  10   2
ATOM      2  O   UNL     1      -5.802 -10.869  13.654  0.00  0.00    -0.391 OA
ATOM     36  H   UNL     1      -6.673 -11.082  13.281  0.00  0.00    +0.210 HD
ENDBRANCH  10   2
BRANCH  11  17
ATOM     17  C   UNL     1      -2.967 -11.617  13.794  0.00  0.00    +0.078 C 
ATOM     21  C   UNL     1      -1.941 -10.499  13.755  0.00  0.00    +0.017 C 
BRANCH  17  22
ATOM      3  O   UNL     1      -1.106 -13.082  13.545  0.00  0.00    -0.275 OA
ATOM      7  N   UNL     1      -3.042 -13.976  14.432  0.00  0.00    -0.301 N 
ATOM     22  C   UNL     1      -2.276 -12.951  13.909  0.00  0.00    +0.219 C 
ATOM     24  C   UNL     1      -2.524 -15.325  14.602  0.00  0.00    +0.108 C 
ATOM     25  C   UNL     1      -4.427 -13.887  14.884  0.00  0.00    +0.108 C 
ATOM     26  C   UNL     1      -3.550 -16.020  15.484  0.00  0.00    +0.020 C 
ATOM     27  C   UNL     1      -4.853 -15.334  15.092  0.00  0.00    +0.020 C 
ENDBRANCH  17  22
ENDBRANCH  11  17
BRANCH  23  28
ATOM     28  C   UNL     1      -9.939  -7.521   7.813  0.00  0.00    +0.291 C 
BRANCH  28   4
ATOM      4  O   UNL     1      -9.698  -6.118   7.905  0.00  0.00    -0.485 OA
BRANCH   4  29
ATOM     29  C   UNL     1     -10.470  -5.420   8.791  0.00  0.00    +0.121 A 
ATOM     30  C   UNL     1     -10.389  -4.027   8.842  0.00  0.00    +0.049 A 
ATOM     31  C   UNL     1     -11.340  -6.099   9.645  0.00  0.00    +0.049 A 
ATOM     32  C   UNL     1     -11.177  -3.316   9.746  0.00  0.00    +0.049 A 
ATOM     33  C   UNL     1     -12.127  -5.387  10.549  0.00  0.00    +0.049 A 
ATOM     34  C   UNL     1     -12.046  -3.996  10.599  0.00  0.00    +0.120 A 
BRANCH  34   5
ATOM      5  O   UNL     1     -12.815  -3.301  11.483  0.00  0.00    -0.495 OA
ATOM     35  C   UNL     1     -13.156  -3.957  12.703  0.00  0.00    +0.277 C 
ENDBRANCH  34   5
ENDBRANCH   4  29
ENDBRANCH  28   4
ENDBRANCH  23  28
TORSDOF 7
ENDMDL
MODEL 8
REMARK VINA RESULT:      -6.3     26.663     29.163
REMARK  Name = 45361323
REMARK  11 active torsions:
REMARK  status: ('A' for Active; 'I' for Inactive)
REMARK    1  A    between atoms: O_2  and  C_10
REMARK    2  A    between atoms: O_4  and  C_28
REMARK    3  A    between atoms: O_4  and  C_29
REMARK    4  A    between atoms: O_5  and  C_34
REMARK    5  A    between atoms: O_5  and  C_35
REMARK    6  A    between atoms: C_8  and  C_16
REMARK    7  A    between atoms: C_11  and  C_17
REMARK    8  A    between atoms: C_13  and  C_20
REMARK    9  A    between atoms: C_17  and  C_21
REMARK   10  A    between atoms: C_17  and  C_22
REMARK   11  A    between atoms: C_23  and  C_28
REMARK                            x       y       z     vdW  Elec       q    Type
REMARK                         _______ _______ _______ _____ _____    ______ ____
ROOT
ATOM      1  S   UNL     1      11.606   9.309   4.656  0.00  0.00    -0.073 S 
ATOM      6  N   UNL     1      12.499   7.487   3.054  0.00  0.00    -0.245 NA
ATOM      8  C   UNL     1      15.602   8.951   5.563  0.00  0.00    -0.022 C 
ATOM      9  C   UNL     1      16.057   8.498   4.120  0.00  0.00    +0.033 C 
ATOM     10  C   UNL     1      17.495   7.905   4.138  0.00  0.00    +0.123 C 
ATOM     11  C   UNL     1      18.515   8.837   4.826  0.00  0.00    +0.029 C 
ATOM     12  C   UNL     1      16.665   9.896   6.171  0.00  0.00    +0.008 C 
ATOM     13  C   UNL     1      14.992   7.546   3.435  0.00  0.00    +0.042 C 
ATOM     14  C   UNL     1      18.057   9.283   6.214  0.00  0.00    +0.007 C 
ATOM     15  C   UNL     1      14.265   9.750   5.469  0.00  0.00    +0.051 C 
ATOM     16  C   UNL     1      15.399   7.744   6.515  0.00  0.00    +0.012 C 
ATOM     18  C   UNL     1      13.590   8.044   3.696  0.00  0.00    +0.055 A 
ATOM     19  C   UNL     1      13.284   9.025   4.617  0.00  0.00    +0.014 A 
ATOM     20  C   UNL     1      15.213   7.376   1.925  0.00  0.00    +0.014 C 
ATOM     23  C   UNL     1      11.404   8.083   3.472  0.00  0.00    +0.116 A 
ENDROOT
BRANCH  10   2
ATOM      2  O   UNL     1      17.941   7.703   2.798  0.00  0.00    -0.391 OA
ATOM     36  H   UNL     1      18.640   8.352   2.613  0.00  0.00    +0.210 HD
ENDBRANCH  10   2
BRANCH  11  17
ATOM     17  C   UNL     1      19.902   8.189   4.926  0.00  0.00    +0.078 C 
ATOM     21  C   UNL     1      20.349   8.078   6.372  0.00  0.00    +0.017 C 
BRANCH  17  22
ATOM      3  O   UNL     1      21.038  10.217   4.408  0.00  0.00    -0.275 OA
ATOM      7  N   UNL     1      21.559   8.361   3.136  0.00  0.00    -0.301 N 
ATOM     22  C   UNL     1      20.882   9.024   4.143  0.00  0.00    +0.219 C 
ATOM     24  C   UNL     1      22.534   9.027   2.285  0.00  0.00    +0.108 C 
ATOM     25  C   UNL     1      21.424   6.954   2.774  0.00  0.00    +0.108 C 
ATOM     26  C   UNL     1      23.251   7.895   1.567  0.00  0.00    +0.020 C 
ATOM     27  C   UNL     1      22.167   6.828   1.452  0.00  0.00    +0.020 C 
ENDBRANCH  17  22
ENDBRANCH  11  17
BRANCH  23  28
ATOM     28  C   UNL     1      10.041   7.761   2.996  0.00  0.00    +0.291 C 
BRANCH  28   4
ATOM      4  O   UNL     1       9.666   6.458   3.440  0.00  0.00    -0.485 OA
BRANCH   4  29
ATOM     29  C   UNL     1       9.511   6.291   4.789  0.00  0.00    +0.121 A 
ATOM     30  C   UNL     1       8.697   7.164   5.511  0.00  0.00    +0.049 A 
ATOM     31  C   UNL     1      10.168   5.249   5.443  0.00  0.00    +0.049 A 
ATOM     32  C   UNL     1       8.539   6.993   6.886  0.00  0.00    +0.049 A 
ATOM     33  C   UNL     1      10.010   5.078   6.817  0.00  0.00    +0.049 A 
ATOM     34  C   UNL     1       9.196   5.950   7.540  0.00  0.00    +0.120 A 
BRANCH  34   5
ATOM      5  O   UNL     1       9.043   5.784   8.882  0.00  0.00    -0.495 OA
ATOM     35  C   UNL     1       9.418   4.519   9.427  0.00  0.00    +0.277 C 
ENDBRANCH  34   5
ENDBRANCH   4  29
ENDBRANCH  28   4
ENDBRANCH  23  28
TORSDOF 7
ENDMDL
MODEL 9
REMARK VINA RESULT:      -6.3      4.245      6.931
REMARK  Name = 45361323
REMARK  11 active torsions:
REMARK  status: ('A' for Active; 'I' for Inactive)
REMARK    1  A    between atoms: O_2  and  C_10
REMARK    2  A    between atoms: O_4  and  C_28
REMARK    3  A    between atoms: O_4  and  C_29
REMARK    4  A    between atoms: O_5  and  C_34
REMARK    5  A    between atoms: O_5  and  C_35
REMARK    6  A    between atoms: C_8  and  C_16
REMARK    7  A    between atoms: C_11  and  C_17
REMARK    8  A    between atoms: C_13  and  C_20
REMARK    9  A    between atoms: C_17  and  C_21
REMARK   10  A    between atoms: C_17  and  C_22
REMARK   11  A    between atoms: C_23  and  C_28
REMARK                            x       y       z     vdW  Elec       q    Type
REMARK                         _______ _______ _______ _____ _____    ______ ____
ROOT
ATOM      1  S   UNL     1      -4.538 -12.631   8.285  0.00  0.00    -0.073 S 
ATOM      6  N   UNL     1      -5.174 -10.191   8.855  0.00  0.00    -0.245 NA
ATOM      8  C   UNL     1      -3.875 -12.269  12.329  0.00  0.00    -0.022 C 
ATOM      9  C   UNL     1      -4.973 -11.161  12.575  0.00  0.00    +0.033 C 
ATOM     10  C   UNL     1      -4.791 -10.481  13.962  0.00  0.00    +0.123 C 
ATOM     11  C   UNL     1      -4.695 -11.500  15.118  0.00  0.00    +0.029 C 
ATOM     12  C   UNL     1      -3.858 -13.259  13.517  0.00  0.00    +0.008 C 
ATOM     13  C   UNL     1      -5.055 -10.131  11.374  0.00  0.00    +0.042 C 
ATOM     14  C   UNL     1      -3.642 -12.577  14.860  0.00  0.00    +0.007 C 
ATOM     15  C   UNL     1      -4.228 -13.086  11.046  0.00  0.00    +0.051 C 
ATOM     16  C   UNL     1      -2.459 -11.659  12.162  0.00  0.00    +0.012 C 
ATOM     18  C   UNL     1      -4.950 -10.850  10.051  0.00  0.00    +0.055 A 
ATOM     19  C   UNL     1      -4.569 -12.170   9.924  0.00  0.00    +0.014 A 
ATOM     20  C   UNL     1      -6.326  -9.269  11.401  0.00  0.00    +0.014 C 
ATOM     23  C   UNL     1      -4.999 -11.033   7.861  0.00  0.00    +0.116 A 
ENDROOT
BRANCH  10   2
ATOM      2  O   UNL     1      -5.914  -9.642  14.229  0.00  0.00    -0.391 OA
ATOM     36  H   UNL     1      -5.965  -8.975  13.525  0.00  0.00    +0.210 HD
ENDBRANCH  10   2
BRANCH  11  17
ATOM     17  C   UNL     1      -4.410 -10.814  16.460  0.00  0.00    +0.078 C 
ATOM     21  C   UNL     1      -2.918 -10.692  16.705  0.00  0.00    +0.017 C 
BRANCH  17  22
ATOM      3  O   UNL     1      -4.467 -12.592  18.044  0.00  0.00    -0.275 OA
ATOM      7  N   UNL     1      -6.307 -11.199  17.955  0.00  0.00    -0.301 N 
ATOM     22  C   UNL     1      -5.052 -11.622  17.559  0.00  0.00    +0.219 C 
ATOM     24  C   UNL     1      -7.062 -11.876  18.999  0.00  0.00    +0.108 C 
ATOM     25  C   UNL     1      -7.051 -10.060  17.426  0.00  0.00    +0.108 C 
ATOM     26  C   UNL     1      -8.195 -10.918  19.333  0.00  0.00    +0.020 C 
ATOM     27  C   UNL     1      -8.451 -10.220  18.002  0.00  0.00    +0.020 C 
ENDBRANCH  17  22
ENDBRANCH  11  17
BRANCH  23  28
ATOM     28  C   UNL     1      -5.166 -10.688   6.433  0.00  0.00    +0.291 C 
BRANCH  28   4
ATOM      4  O   UNL     1      -5.583 -11.840   5.700  0.00  0.00    -0.485 OA
BRANCH   4  29
ATOM     29  C   UNL     1      -4.828 -12.181   4.612  0.00  0.00    +0.121 A 
ATOM     30  C   UNL     1      -3.436 -12.186   4.702  0.00  0.00    +0.049 A 
ATOM     31  C   UNL     1      -5.450 -12.523   3.411  0.00  0.00    +0.049 A 
ATOM     32  C   UNL     1      -2.667 -12.534   3.592  0.00  0.00    +0.049 A 
ATOM     33  C   UNL     1      -4.681 -12.870   2.301  0.00  0.00    +0.049 A 
ATOM     34  C   UNL     1      -3.290 -12.876   2.391  0.00  0.00    +0.120 A 
BRANCH  34   5
ATOM      5  O   UNL     1      -2.538 -13.215   1.307  0.00  0.00    -0.495 OA
ATOM     35  C   UNL     1      -1.414 -14.063   1.536  0.00  0.00    +0.277 C 
ENDBRANCH  34   5
ENDBRANCH   4  29
ENDBRANCH  28   4
ENDBRANCH  23  28
TORSDOF 7
ENDMDL
MODEL 10
REMARK VINA RESULT:      -6.1     11.824     15.805
REMARK  Name = 45361323
REMARK  11 active torsions:
REMARK  status: ('A' for Active; 'I' for Inactive)
REMARK    1  A    between atoms: O_2  and  C_10
REMARK    2  A    between atoms: O_4  and  C_28
REMARK    3  A    between atoms: O_4  and  C_29
REMARK    4  A    between atoms: O_5  and  C_34
REMARK    5  A    between atoms: O_5  and  C_35
REMARK    6  A    between atoms: C_8  and  C_16
REMARK    7  A    between atoms: C_11  and  C_17
REMARK    8  A    between atoms: C_13  and  C_20
REMARK    9  A    between atoms: C_17  and  C_21
REMARK   10  A    between atoms: C_17  and  C_22
REMARK   11  A    between atoms: C_23  and  C_28
REMARK                            x       y       z     vdW  Elec       q    Type
REMARK                         _______ _______ _______ _____ _____    ______ ____
ROOT
ATOM      1  S   UNL     1      -0.343 -14.611   4.010  0.00  0.00    -0.073 S 
ATOM      6  N   UNL     1      -2.303 -14.698   2.327  0.00  0.00    -0.245 NA
ATOM      8  C   UNL     1       1.433 -14.674   0.299  0.00  0.00    -0.022 C 
ATOM      9  C   UNL     1       0.247 -13.961  -0.461  0.00  0.00    +0.033 C 
ATOM     10  C   UNL     1       0.386 -14.117  -2.003  0.00  0.00    +0.123 C 
ATOM     11  C   UNL     1       1.776 -13.691  -2.522  0.00  0.00    +0.029 C 
ATOM     12  C   UNL     1       2.785 -14.179  -0.264  0.00  0.00    +0.008 C 
ATOM     13  C   UNL     1      -1.167 -14.411   0.093  0.00  0.00    +0.042 C 
ATOM     14  C   UNL     1       2.916 -14.374  -1.767  0.00  0.00    +0.007 C 
ATOM     15  C   UNL     1       1.391 -14.298   1.813  0.00  0.00    +0.051 C 
ATOM     16  C   UNL     1       1.367 -16.218   0.163  0.00  0.00    +0.012 C 
ATOM     18  C   UNL     1      -1.143 -14.500   1.600  0.00  0.00    +0.055 A 
ATOM     19  C   UNL     1       0.013 -14.457   2.351  0.00  0.00    +0.014 A 
ATOM     20  C   UNL     1      -2.315 -13.494  -0.358  0.00  0.00    +0.014 C 
ATOM     23  C   UNL     1      -2.005 -14.760   3.605  0.00  0.00    +0.116 A 
ENDROOT
BRANCH  10   2
ATOM      2  O   UNL     1      -0.580 -13.291  -2.651  0.00  0.00    -0.391 OA
ATOM     36  H   UNL     1      -1.398 -13.316  -2.127  0.00  0.00    +0.210 HD
ENDBRANCH  10   2
BRANCH  11  17
ATOM     17  C   UNL     1       1.927 -13.952  -4.026  0.00  0.00    +0.078 C 
ATOM     21  C   UNL     1       3.301 -14.508  -4.348  0.00  0.00    +0.017 C 
BRANCH  17  22
ATOM      3  O   UNL     1       1.693 -11.585  -4.155  0.00  0.00    -0.275 OA
ATOM      7  N   UNL     1       1.520 -12.772  -6.129  0.00  0.00    -0.301 N 
ATOM     22  C   UNL     1       1.706 -12.656  -4.764  0.00  0.00    +0.219 C 
ATOM     24  C   UNL     1       1.288 -11.617  -6.983  0.00  0.00    +0.108 C 
ATOM     25  C   UNL     1       1.527 -14.006  -6.909  0.00  0.00    +0.108 C 
ATOM     26  C   UNL     1       1.465 -12.146  -8.398  0.00  0.00    +0.020 C 
ATOM     27  C   UNL     1       1.003 -13.594  -8.277  0.00  0.00    +0.020 C 
ENDBRANCH  17  22
ENDBRANCH  11  17
BRANCH  23  28
ATOM     28  C   UNL     1      -2.993 -14.950   4.688  0.00  0.00    +0.291 C 
BRANCH  28   4
ATOM      4  O   UNL     1      -4.032 -13.979   4.574  0.00  0.00    -0.485 OA
BRANCH   4  29
ATOM     29  C   UNL     1      -4.241 -13.173   5.660  0.00  0.00    +0.121 A 
ATOM     30  C   UNL     1      -4.733 -11.879   5.484  0.00  0.00    +0.049 A 
ATOM     31  C   UNL     1      -3.962 -13.645   6.942  0.00  0.00    +0.049 A 
ATOM     32  C   UNL     1      -4.946 -11.059   6.590  0.00  0.00    +0.049 A 
ATOM     33  C   UNL     1      -4.174 -12.823   8.049  0.00  0.00    +0.049 A 
ATOM     34  C   UNL     1      -4.667 -11.531   7.873  0.00  0.00    +0.120 A 
BRANCH  34   5
ATOM      5  O   UNL     1      -4.874 -10.728   8.954  0.00  0.00    -0.495 OA
ATOM     35  C   UNL     1      -4.514  -9.354   8.820  0.00  0.00    +0.277 C 
ENDBRANCH  34   5
ENDBRANCH   4  29
ENDBRANCH  28   4
ENDBRANCH  23  28
TORSDOF 7
ENDMDL
