MODEL 1
REMARK VINA RESULT:      -7.2      0.000      0.000
REMARK  Name = 26742412
REMARK  6 active torsions:
REMARK  status: ('A' for Active; 'I' for Inactive)
REMARK    1  A    between atoms: N_5  and  C_15
REMARK    2  A    between atoms: C_9  and  C_16
REMARK    3  A    between atoms: C_10  and  C_15
REMARK    4  A    between atoms: C_18  and  C_21
REMARK    5  A    between atoms: C_19  and  C_22
REMARK    6  A    between atoms: C_20  and  C_23
REMARK                            x       y       z     vdW  Elec       q    Type
REMARK                         _______ _______ _______ _____ _____    ______ ____
ROOT
ATOM      4  N   UNL     1      11.946  11.542  24.778  0.00  0.00    -0.297 NA
ATOM      8  C   UNL     1      11.310  11.997  22.293  0.00  0.00    +0.002 C 
ATOM      9  C   UNL     1      10.940  10.541  22.693  0.00  0.00    +0.055 C 
ATOM     10  C   UNL     1      13.101  12.142  24.060  0.00  0.00    +0.074 C 
ATOM     11  C   UNL     1      12.816  12.227  22.544  0.00  0.00    +0.024 C 
ATOM     12  C   UNL     1      10.543  12.930  23.253  0.00  0.00    +0.019 C 
ATOM     13  C   UNL     1      11.528  10.285  24.110  0.00  0.00    +0.094 C 
ATOM     14  C   UNL     1      10.818  12.502  24.706  0.00  0.00    +0.085 C 
ENDROOT
BRANCH   9  16
ATOM      6  N   UNL     1      10.964   8.167  22.107  0.00  0.00    -0.237 NA
ATOM      7  N   UNL     1      11.852   7.370  20.013  0.00  0.00    -0.229 NA
ATOM     16  C   UNL     1      11.274   9.421  21.718  0.00  0.00    +0.050 A 
ATOM     17  C   UNL     1      11.867   9.725  20.510  0.00  0.00    +0.055 A 
ATOM     18  C   UNL     1      12.137   8.649  19.689  0.00  0.00    +0.110 A 
ATOM     19  C   UNL     1      11.276   7.203  21.219  0.00  0.00    +0.127 A 
ATOM     22  C   UNL     1      10.947   5.803  21.611  0.00  0.00    +0.088 C 
BRANCH  18  21
ATOM      3  O   UNL     1      13.209   7.684  17.815  0.00  0.00    -0.461 OA
ATOM     21  C   UNL     1      12.753   8.822  18.401  0.00  0.00    +0.153 A 
ATOM     24  C   UNL     1      12.998   9.911  17.597  0.00  0.00    +0.051 A 
ATOM     26  C   UNL     1      13.645   9.410  16.443  0.00  0.00    +0.042 A 
ATOM     27  C   UNL     1      13.750   8.049  16.623  0.00  0.00    +0.196 A 
ENDBRANCH  18  21
ENDBRANCH   9  16
BRANCH  10  15
ATOM     15  C   UNL     1      14.413  11.412  24.353  0.00  0.00    +0.123 C 
BRANCH  15   5
ATOM      2  O   UNL     1      16.246  11.306  22.146  0.00  0.00    -0.270 OA
ATOM      5  N   UNL     1      14.601  10.318  23.450  0.00  0.00    -0.309 N 
ATOM     20  C   UNL     1      15.517  10.350  22.401  0.00  0.00    +0.251 C 
ATOM     30  H   UNL     1      14.031   9.487  23.581  0.00  0.00    +0.149 HD
BRANCH  20  23
ATOM      1  S   UNL     1      14.875   7.684  22.097  0.00  0.00    -0.092 S 
ATOM     23  C   UNL     1      15.573   9.144  21.536  0.00  0.00    +0.074 A 
ATOM     25  C   UNL     1      16.129   9.004  20.283  0.00  0.00    +0.021 A 
ATOM     28  C   UNL     1      15.981   7.680  19.778  0.00  0.00    +0.008 A 
ATOM     29  C   UNL     1      15.317   6.859  20.662  0.00  0.00    +0.046 A 
ENDBRANCH  20  23
ENDBRANCH  15   5
ENDBRANCH  10  15
TORSDOF 5
ENDMDL
MODEL 2
REMARK VINA RESULT:      -6.9      2.725      5.600
REMARK  Name = 26742412
REMARK  6 active torsions:
REMARK  status: ('A' for Active; 'I' for Inactive)
REMARK    1  A    between atoms: N_5  and  C_15
REMARK    2  A    between atoms: C_9  and  C_16
REMARK    3  A    between atoms: C_10  and  C_15
REMARK    4  A    between atoms: C_18  and  C_21
REMARK    5  A    between atoms: C_19  and  C_22
REMARK    6  A    between atoms: C_20  and  C_23
REMARK                            x       y       z     vdW  Elec       q    Type
REMARK                         _______ _______ _______ _____ _____    ______ ____
ROOT
ATOM      4  N   UNL     1      13.895   8.641  21.816  0.00  0.00    -0.297 NA
ATOM      8  C   UNL     1      14.124   6.995  19.810  0.00  0.00    +0.002 C 
ATOM      9  C   UNL     1      14.377   8.457  19.347  0.00  0.00    +0.055 C 
ATOM     10  C   UNL     1      12.712   7.741  21.760  0.00  0.00    +0.074 C 
ATOM     11  C   UNL     1      12.729   6.901  20.463  0.00  0.00    +0.024 C 
ATOM     12  C   UNL     1      15.162   6.692  20.912  0.00  0.00    +0.019 C 
ATOM     13  C   UNL     1      14.026   9.389  20.542  0.00  0.00    +0.094 C 
ATOM     14  C   UNL     1      15.101   7.795  21.983  0.00  0.00    +0.085 C 
ENDROOT
BRANCH   9  16
ATOM      6  N   UNL     1      12.449   8.567  17.846  0.00  0.00    -0.237 NA
ATOM      7  N   UNL     1      12.533   9.720  15.731  0.00  0.00    -0.229 NA
ATOM     16  C   UNL     1      13.736   8.920  18.046  0.00  0.00    +0.050 A 
ATOM     17  C   UNL     1      14.477   9.659  17.148  0.00  0.00    +0.055 A 
ATOM     18  C   UNL     1      13.818  10.035  15.996  0.00  0.00    +0.110 A 
ATOM     19  C   UNL     1      11.917   8.995  16.685  0.00  0.00    +0.127 A 
ATOM     22  C   UNL     1      10.495   8.627  16.427  0.00  0.00    +0.088 C 
BRANCH  18  21
ATOM      3  O   UNL     1      13.645  11.507  14.152  0.00  0.00    -0.461 OA
ATOM     21  C   UNL     1      14.472  10.808  14.974  0.00  0.00    +0.153 A 
ATOM     24  C   UNL     1      15.786  11.012  14.624  0.00  0.00    +0.051 A 
ATOM     26  C   UNL     1      15.766  11.892  13.515  0.00  0.00    +0.042 A 
ATOM     27  C   UNL     1      14.440  12.164  13.267  0.00  0.00    +0.196 A 
ENDBRANCH  18  21
ENDBRANCH   9  16
BRANCH  10  15
ATOM     15  C   UNL     1      11.394   8.498  21.932  0.00  0.00    +0.123 C 
BRANCH  15   5
ATOM      2  O   UNL     1      11.039  11.329  21.621  0.00  0.00    -0.270 OA
ATOM      5  N   UNL     1      11.505   9.490  22.956  0.00  0.00    -0.309 N 
ATOM     20  C   UNL     1      11.315  10.850  22.717  0.00  0.00    +0.251 C 
ATOM     30  H   UNL     1      11.742   9.183  23.895  0.00  0.00    +0.149 HD
BRANCH  20  23
ATOM      1  S   UNL     1      13.043  11.902  24.595  0.00  0.00    -0.092 S 
ATOM     23  C   UNL     1      11.493  11.755  23.882  0.00  0.00    +0.074 A 
ATOM     25  C   UNL     1      10.554  12.539  24.517  0.00  0.00    +0.021 A 
ATOM     28  C   UNL     1      11.116  13.270  25.604  0.00  0.00    +0.008 A 
ATOM     29  C   UNL     1      12.461  13.017  25.757  0.00  0.00    +0.046 A 
ENDBRANCH  20  23
ENDBRANCH  15   5
ENDBRANCH  10  15
TORSDOF 5
ENDMDL
MODEL 3
REMARK VINA RESULT:      -6.8      3.469      7.145
REMARK  Name = 26742412
REMARK  6 active torsions:
REMARK  status: ('A' for Active; 'I' for Inactive)
REMARK    1  A    between atoms: N_5  and  C_15
REMARK    2  A    between atoms: C_9  and  C_16
REMARK    3  A    between atoms: C_10  and  C_15
REMARK    4  A    between atoms: C_18  and  C_21
REMARK    5  A    between atoms: C_19  and  C_22
REMARK    6  A    between atoms: C_20  and  C_23
REMARK                            x       y       z     vdW  Elec       q    Type
REMARK                         _______ _______ _______ _____ _____    ______ ____
ROOT
ATOM      4  N   UNL     1      13.087   7.016  19.787  0.00  0.00    -0.297 NA
ATOM      8  C   UNL     1      14.704   8.855  18.898  0.00  0.00    +0.002 C 
ATOM      9  C   UNL     1      15.499   7.586  19.315  0.00  0.00    +0.055 C 
ATOM     10  C   UNL     1      12.804   8.311  20.461  0.00  0.00    +0.074 C 
ATOM     11  C   UNL     1      13.881   9.359  20.103  0.00  0.00    +0.024 C 
ATOM     12  C   UNL     1      13.698   8.414  17.814  0.00  0.00    +0.019 C 
ATOM     13  C   UNL     1      14.499   6.622  20.016  0.00  0.00    +0.094 C 
ATOM     14  C   UNL     1      12.891   7.210  18.331  0.00  0.00    +0.085 C 
ENDROOT
BRANCH   9  16
ATOM      6  N   UNL     1      16.952   8.965  20.717  0.00  0.00    -0.237 NA
ATOM      7  N   UNL     1      19.060   8.160  21.564  0.00  0.00    -0.229 NA
ATOM     16  C   UNL     1      16.781   7.770  20.115  0.00  0.00    +0.050 A 
ATOM     17  C   UNL     1      17.691   6.736  20.189  0.00  0.00    +0.055 A 
ATOM     18  C   UNL     1      18.824   6.990  20.934  0.00  0.00    +0.110 A 
ATOM     19  C   UNL     1      18.097   9.090  21.415  0.00  0.00    +0.127 A 
ATOM     22  C   UNL     1      18.323  10.397  22.097  0.00  0.00    +0.088 C 
BRANCH  18  21
ATOM      3  O   UNL     1      20.554   6.069  22.258  0.00  0.00    -0.461 OA
ATOM     21  C   UNL     1      19.856   6.001  21.094  0.00  0.00    +0.153 A 
ATOM     24  C   UNL     1      20.316   4.964  20.315  0.00  0.00    +0.051 A 
ATOM     26  C   UNL     1      21.364   4.357  21.047  0.00  0.00    +0.042 A 
ATOM     27  C   UNL     1      21.470   5.066  22.222  0.00  0.00    +0.196 A 
ENDBRANCH  18  21
ENDBRANCH   9  16
BRANCH  10  15
ATOM     15  C   UNL     1      12.639   8.158  21.975  0.00  0.00    +0.123 C 
BRANCH  15   5
ATOM      2  O   UNL     1      10.104   9.329  22.636  0.00  0.00    -0.270 OA
ATOM      5  N   UNL     1      12.421   9.427  22.596  0.00  0.00    -0.309 N 
ATOM     20  C   UNL     1      11.150   9.922  22.884  0.00  0.00    +0.251 C 
ATOM     30  H   UNL     1      13.233   9.993  22.827  0.00  0.00    +0.149 HD
BRANCH  20  23
ATOM      1  S   UNL     1      11.155  12.655  22.501  0.00  0.00    -0.092 S 
ATOM     23  C   UNL     1      11.092  11.269  23.506  0.00  0.00    +0.074 A 
ATOM     25  C   UNL     1      10.991  11.601  24.839  0.00  0.00    +0.021 A 
ATOM     28  C   UNL     1      10.966  13.012  25.038  0.00  0.00    +0.008 A 
ATOM     29  C   UNL     1      11.047  13.704  23.851  0.00  0.00    +0.046 A 
ENDBRANCH  20  23
ENDBRANCH  15   5
ENDBRANCH  10  15
TORSDOF 5
ENDMDL
MODEL 4
REMARK VINA RESULT:      -6.6     27.926     30.470
REMARK  Name = 26742412
REMARK  6 active torsions:
REMARK  status: ('A' for Active; 'I' for Inactive)
REMARK    1  A    between atoms: N_5  and  C_15
REMARK    2  A    between atoms: C_9  and  C_16
REMARK    3  A    between atoms: C_10  and  C_15
REMARK    4  A    between atoms: C_18  and  C_21
REMARK    5  A    between atoms: C_19  and  C_22
REMARK    6  A    between atoms: C_20  and  C_23
REMARK                            x       y       z     vdW  Elec       q    Type
REMARK                         _______ _______ _______ _____ _____    ______ ____
ROOT
ATOM      4  N   UNL     1     -18.495   2.902  26.130  0.00  0.00    -0.297 NA
ATOM      8  C   UNL     1     -16.748   0.970  26.089  0.00  0.00    +0.002 C 
ATOM      9  C   UNL     1     -17.155   1.306  27.551  0.00  0.00    +0.055 C 
ATOM     10  C   UNL     1     -17.337   3.282  25.278  0.00  0.00    +0.074 C 
ATOM     11  C   UNL     1     -16.202   2.242  25.407  0.00  0.00    +0.024 C 
ATOM     12  C   UNL     1     -18.043   0.577  25.347  0.00  0.00    +0.019 C 
ATOM     13  C   UNL     1     -18.034   2.588  27.505  0.00  0.00    +0.094 C 
ATOM     14  C   UNL     1     -19.100   1.677  25.554  0.00  0.00    +0.085 C 
ENDROOT
BRANCH   9  16
ATOM      6  N   UNL     1     -15.264   0.315  28.744  0.00  0.00    -0.237 NA
ATOM      7  N   UNL     1     -14.067   1.503  30.466  0.00  0.00    -0.229 NA
ATOM     16  C   UNL     1     -16.055   1.398  28.600  0.00  0.00    +0.050 A 
ATOM     17  C   UNL     1     -15.918   2.553  29.341  0.00  0.00    +0.055 A 
ATOM     18  C   UNL     1     -14.897   2.549  30.270  0.00  0.00    +0.110 A 
ATOM     19  C   UNL     1     -14.303   0.434  29.682  0.00  0.00    +0.127 A 
ATOM     22  C   UNL     1     -13.406  -0.741  29.870  0.00  0.00    +0.088 C 
BRANCH  18  21
ATOM      3  O   UNL     1     -15.488   4.738  30.943  0.00  0.00    -0.461 OA
ATOM     21  C   UNL     1     -14.642   3.688  31.111  0.00  0.00    +0.153 A 
ATOM     24  C   UNL     1     -13.707   3.971  32.080  0.00  0.00    +0.051 A 
ATOM     26  C   UNL     1     -13.998   5.278  32.536  0.00  0.00    +0.042 A 
ATOM     27  C   UNL     1     -15.090   5.702  31.814  0.00  0.00    +0.196 A 
ENDBRANCH  18  21
ENDBRANCH   9  16
BRANCH  10  15
ATOM     15  C   UNL     1     -16.844   4.702  25.564  0.00  0.00    +0.123 C 
BRANCH  15   5
ATOM      2  O   UNL     1     -17.077   6.144  23.093  0.00  0.00    -0.270 OA
ATOM      5  N   UNL     1     -15.778   5.059  24.680  0.00  0.00    -0.309 N 
ATOM     20  C   UNL     1     -15.980   5.764  23.495  0.00  0.00    +0.251 C 
ATOM     30  H   UNL     1     -14.834   4.776  24.930  0.00  0.00    +0.149 HD
BRANCH  20  23
ATOM      1  S   UNL     1     -14.610   7.556  21.904  0.00  0.00    -0.092 S 
ATOM     23  C   UNL     1     -14.772   6.035  22.674  0.00  0.00    +0.074 A 
ATOM     25  C   UNL     1     -13.699   5.208  22.418  0.00  0.00    +0.021 A 
ATOM     28  C   UNL     1     -12.732   5.833  21.578  0.00  0.00    +0.008 A 
ATOM     29  C   UNL     1     -13.102   7.111  21.225  0.00  0.00    +0.046 A 
ENDBRANCH  20  23
ENDBRANCH  15   5
ENDBRANCH  10  15
TORSDOF 5
ENDMDL
MODEL 5
REMARK VINA RESULT:      -6.5     25.715     28.816
REMARK  Name = 26742412
REMARK  6 active torsions:
REMARK  status: ('A' for Active; 'I' for Inactive)
REMARK    1  A    between atoms: N_5  and  C_15
REMARK    2  A    between atoms: C_9  and  C_16
REMARK    3  A    between atoms: C_10  and  C_15
REMARK    4  A    between atoms: C_18  and  C_21
REMARK    5  A    between atoms: C_19  and  C_22
REMARK    6  A    between atoms: C_20  and  C_23
REMARK                            x       y       z     vdW  Elec       q    Type
REMARK                         _______ _______ _______ _____ _____    ______ ____
ROOT
ATOM      4  N   UNL     1      -7.389 -11.997  17.418  0.00  0.00    -0.297 NA
ATOM      8  C   UNL     1      -5.035 -11.259  18.255  0.00  0.00    +0.002 C 
ATOM      9  C   UNL     1      -5.363 -10.589  16.891  0.00  0.00    +0.055 C 
ATOM     10  C   UNL     1      -6.590 -13.190  17.804  0.00  0.00    +0.074 C 
ATOM     11  C   UNL     1      -5.128 -12.792  18.104  0.00  0.00    +0.024 C 
ATOM     12  C   UNL     1      -6.145 -10.832  19.239  0.00  0.00    +0.019 C 
ATOM     13  C   UNL     1      -6.680 -11.229  16.365  0.00  0.00    +0.094 C 
ATOM     14  C   UNL     1      -7.519 -11.131  18.615  0.00  0.00    +0.085 C 
ENDROOT
BRANCH   9  16
ATOM      6  N   UNL     1      -3.001 -10.481  16.267  0.00  0.00    -0.237 NA
ATOM      7  N   UNL     1      -2.279 -10.480  13.968  0.00  0.00    -0.229 NA
ATOM     16  C   UNL     1      -4.274 -10.551  15.828  0.00  0.00    +0.050 A 
ATOM     17  C   UNL     1      -4.626 -10.588  14.495  0.00  0.00    +0.055 A 
ATOM     18  C   UNL     1      -3.576 -10.549  13.599  0.00  0.00    +0.110 A 
ATOM     19  C   UNL     1      -2.067 -10.450  15.297  0.00  0.00    +0.127 A 
ATOM     22  C   UNL     1      -0.646 -10.373  15.742  0.00  0.00    +0.088 C 
BRANCH  18  21
ATOM      3  O   UNL     1      -4.519  -9.542  11.679  0.00  0.00    -0.461 OA
ATOM     21  C   UNL     1      -3.798 -10.580  12.179  0.00  0.00    +0.153 A 
ATOM     24  C   UNL     1      -3.438 -11.447  11.173  0.00  0.00    +0.051 A 
ATOM     26  C   UNL     1      -3.972 -10.907   9.979  0.00  0.00    +0.042 A 
ATOM     27  C   UNL     1      -4.621  -9.748  10.339  0.00  0.00    +0.196 A 
ENDBRANCH  18  21
ENDBRANCH   9  16
BRANCH  10  15
ATOM     15  C   UNL     1      -6.674 -14.310  16.765  0.00  0.00    +0.123 C 
BRANCH  15   5
ATOM      2  O   UNL     1      -6.431 -14.052  13.916  0.00  0.00    -0.270 OA
ATOM      5  N   UNL     1      -5.468 -14.388  16.000  0.00  0.00    -0.309 N 
ATOM     20  C   UNL     1      -5.439 -14.250  14.613  0.00  0.00    +0.251 C 
ATOM     30  H   UNL     1      -4.597 -14.560  16.496  0.00  0.00    +0.149 HD
BRANCH  20  23
ATOM      1  S   UNL     1      -4.013 -15.052  12.391  0.00  0.00    -0.092 S 
ATOM     23  C   UNL     1      -4.110 -14.384  13.965  0.00  0.00    +0.074 A 
ATOM     25  C   UNL     1      -2.870 -14.036  14.456  0.00  0.00    +0.021 A 
ATOM     28  C   UNL     1      -1.827 -14.323  13.528  0.00  0.00    +0.008 A 
ATOM     29  C   UNL     1      -2.310 -14.878  12.364  0.00  0.00    +0.046 A 
ENDBRANCH  20  23
ENDBRANCH  15   5
ENDBRANCH  10  15
TORSDOF 5
ENDMDL
MODEL 6
REMARK VINA RESULT:      -6.4     27.621     28.825
REMARK  Name = 26742412
REMARK  6 active torsions:
REMARK  status: ('A' for Active; 'I' for Inactive)
REMARK    1  A    between atoms: N_5  and  C_15
REMARK    2  A    between atoms: C_9  and  C_16
REMARK    3  A    between atoms: C_10  and  C_15
REMARK    4  A    between atoms: C_18  and  C_21
REMARK    5  A    between atoms: C_19  and  C_22
REMARK    6  A    between atoms: C_20  and  C_23
REMARK                            x       y       z     vdW  Elec       q    Type
REMARK                         _______ _______ _______ _____ _____    ______ ____
ROOT
ATOM      4  N   UNL     1      -6.389 -10.331  17.475  0.00  0.00    -0.297 NA
ATOM      8  C   UNL     1      -4.563 -12.185  17.376  0.00  0.00    +0.002 C 
ATOM      9  C   UNL     1      -4.170 -10.985  16.469  0.00  0.00    +0.055 C 
ATOM     10  C   UNL     1      -7.020 -11.651  17.207  0.00  0.00    +0.074 C 
ATOM     11  C   UNL     1      -5.941 -12.724  16.939  0.00  0.00    +0.024 C 
ATOM     12  C   UNL     1      -4.726 -11.628  18.806  0.00  0.00    +0.019 C 
ATOM     13  C   UNL     1      -5.390 -10.021  16.423  0.00  0.00    +0.094 C 
ATOM     14  C   UNL     1      -5.681 -10.422  18.774  0.00  0.00    +0.085 C 
ENDROOT
BRANCH   9  16
ATOM      6  N   UNL     1      -2.798 -12.349  14.973  0.00  0.00    -0.237 NA
ATOM      7  N   UNL     1      -2.591 -11.863  12.622  0.00  0.00    -0.229 NA
ATOM     16  C   UNL     1      -3.616 -11.282  15.083  0.00  0.00    +0.050 A 
ATOM     17  C   UNL     1      -3.962 -10.468  14.025  0.00  0.00    +0.055 A 
ATOM     18  C   UNL     1      -3.414 -10.809  12.805  0.00  0.00    +0.110 A 
ATOM     19  C   UNL     1      -2.328 -12.579  13.732  0.00  0.00    +0.127 A 
ATOM     22  C   UNL     1      -1.422 -13.751  13.569  0.00  0.00    +0.088 C 
BRANCH  18  21
ATOM      3  O   UNL     1      -4.857  -9.349  11.630  0.00  0.00    -0.461 OA
ATOM     21  C   UNL     1      -3.690 -10.046  11.617  0.00  0.00    +0.153 A 
ATOM     24  C   UNL     1      -3.024  -9.851  10.429  0.00  0.00    +0.051 A 
ATOM     26  C   UNL     1      -3.833  -8.979   9.663  0.00  0.00    +0.042 A 
ATOM     27  C   UNL     1      -4.937  -8.702  10.437  0.00  0.00    +0.196 A 
ENDBRANCH  18  21
ENDBRANCH   9  16
BRANCH  10  15
ATOM     15  C   UNL     1      -8.052 -11.586  16.079  0.00  0.00    +0.123 C 
BRANCH  15   5
ATOM      2  O   UNL     1      -8.688  -9.587  14.120  0.00  0.00    -0.270 OA
ATOM      5  N   UNL     1      -8.927 -10.469  16.252  0.00  0.00    -0.309 N 
ATOM     20  C   UNL     1      -9.182  -9.542  15.243  0.00  0.00    +0.251 C 
ATOM     30  H   UNL     1      -9.374 -10.346  17.157  0.00  0.00    +0.149 HD
BRANCH  20  23
ATOM      1  S   UNL     1     -11.403  -8.059  14.547  0.00  0.00    -0.092 S 
ATOM     23  C   UNL     1     -10.094  -8.423  15.591  0.00  0.00    +0.074 A 
ATOM     25  C   UNL     1     -10.053  -7.581  16.681  0.00  0.00    +0.021 A 
ATOM     28  C   UNL     1     -11.109  -6.625  16.659  0.00  0.00    +0.008 A 
ATOM     29  C   UNL     1     -11.918  -6.773  15.554  0.00  0.00    +0.046 A 
ENDBRANCH  20  23
ENDBRANCH  15   5
ENDBRANCH  10  15
TORSDOF 5
ENDMDL
MODEL 7
REMARK VINA RESULT:      -6.3     25.994     29.056
REMARK  Name = 26742412
REMARK  6 active torsions:
REMARK  status: ('A' for Active; 'I' for Inactive)
REMARK    1  A    between atoms: N_5  and  C_15
REMARK    2  A    between atoms: C_9  and  C_16
REMARK    3  A    between atoms: C_10  and  C_15
REMARK    4  A    between atoms: C_18  and  C_21
REMARK    5  A    between atoms: C_19  and  C_22
REMARK    6  A    between atoms: C_20  and  C_23
REMARK                            x       y       z     vdW  Elec       q    Type
REMARK                         _______ _______ _______ _____ _____    ______ ____
ROOT
ATOM      4  N   UNL     1      -5.543 -10.889   9.644  0.00  0.00    -0.297 NA
ATOM      8  C   UNL     1      -3.754  -9.328  10.716  0.00  0.00    +0.002 C 
ATOM      9  C   UNL     1      -3.288 -10.810  10.772  0.00  0.00    +0.055 C 
ATOM     10  C   UNL     1      -6.186  -9.982  10.631  0.00  0.00    +0.074 C 
ATOM     11  C   UNL     1      -5.119  -9.196  11.424  0.00  0.00    +0.024 C 
ATOM     12  C   UNL     1      -3.981  -8.990   9.227  0.00  0.00    +0.019 C 
ATOM     13  C   UNL     1      -4.482 -11.690  10.304  0.00  0.00    +0.094 C 
ATOM     14  C   UNL     1      -4.907 -10.049   8.602  0.00  0.00    +0.085 C 
ENDROOT
BRANCH   9  16
ATOM      6  N   UNL     1      -2.282 -10.388  12.961  0.00  0.00    -0.237 NA
ATOM      7  N   UNL     1      -1.547 -12.174  14.403  0.00  0.00    -0.229 NA
ATOM     16  C   UNL     1      -2.667 -11.320  12.066  0.00  0.00    +0.050 A 
ATOM     17  C   UNL     1      -2.526 -12.678  12.262  0.00  0.00    +0.055 A 
ATOM     18  C   UNL     1      -1.953 -13.051  13.461  0.00  0.00    +0.110 A 
ATOM     19  C   UNL     1      -1.738 -10.877  14.092  0.00  0.00    +0.127 A 
ATOM     22  C   UNL     1      -1.300  -9.878  15.108  0.00  0.00    +0.088 C 
BRANCH  18  21
ATOM      3  O   UNL     1      -2.667 -14.975  14.638  0.00  0.00    -0.461 OA
ATOM     21  C   UNL     1      -1.746 -14.434  13.797  0.00  0.00    +0.153 A 
ATOM     24  C   UNL     1      -0.799 -15.371  13.451  0.00  0.00    +0.051 A 
ATOM     26  C   UNL     1      -1.161 -16.562  14.124  0.00  0.00    +0.042 A 
ATOM     27  C   UNL     1      -2.304 -16.270  14.832  0.00  0.00    +0.196 A 
ENDBRANCH  18  21
ENDBRANCH   9  16
BRANCH  10  15
ATOM     15  C   UNL     1      -7.155 -10.720  11.557  0.00  0.00    +0.123 C 
BRANCH  15   5
ATOM      2  O   UNL     1      -6.000 -12.733  13.246  0.00  0.00    -0.270 OA
ATOM      5  N   UNL     1      -6.769 -10.568  12.926  0.00  0.00    -0.309 N 
ATOM     20  C   UNL     1      -6.212 -11.603  13.676  0.00  0.00    +0.251 C 
ATOM     30  H   UNL     1      -6.919  -9.665  13.368  0.00  0.00    +0.149 HD
BRANCH  20  23
ATOM      1  S   UNL     1      -6.673 -12.169  16.337  0.00  0.00    -0.092 S 
ATOM     23  C   UNL     1      -5.890 -11.291  15.092  0.00  0.00    +0.074 A 
ATOM     25  C   UNL     1      -5.013 -10.354  15.592  0.00  0.00    +0.021 A 
ATOM     28  C   UNL     1      -4.984 -10.356  17.017  0.00  0.00    +0.008 A 
ATOM     29  C   UNL     1      -5.838 -11.295  17.551  0.00  0.00    +0.046 A 
ENDBRANCH  20  23
ENDBRANCH  15   5
ENDBRANCH  10  15
TORSDOF 5
ENDMDL
MODEL 8
REMARK VINA RESULT:      -6.2      3.182      6.019
REMARK  Name = 26742412
REMARK  6 active torsions:
REMARK  status: ('A' for Active; 'I' for Inactive)
REMARK    1  A    between atoms: N_5  and  C_15
REMARK    2  A    between atoms: C_9  and  C_16
REMARK    3  A    between atoms: C_10  and  C_15
REMARK    4  A    between atoms: C_18  and  C_21
REMARK    5  A    between atoms: C_19  and  C_22
REMARK    6  A    between atoms: C_20  and  C_23
REMARK                            x       y       z     vdW  Elec       q    Type
REMARK                         _______ _______ _______ _____ _____    ______ ____
ROOT
ATOM      4  N   UNL     1      12.034   9.068  21.690  0.00  0.00    -0.297 NA
ATOM      8  C   UNL     1      12.763   6.986  20.305  0.00  0.00    +0.002 C 
ATOM      9  C   UNL     1      13.823   7.314  21.394  0.00  0.00    +0.055 C 
ATOM     10  C   UNL     1      11.937   9.366  20.236  0.00  0.00    +0.074 C 
ATOM     11  C   UNL     1      12.558   8.223  19.404  0.00  0.00    +0.024 C 
ATOM     12  C   UNL     1      11.431   6.737  21.042  0.00  0.00    +0.019 C 
ATOM     13  C   UNL     1      13.421   8.673  22.037  0.00  0.00    +0.094 C 
ATOM     14  C   UNL     1      11.140   7.922  21.980  0.00  0.00    +0.085 C 
ENDROOT
BRANCH   9  16
ATOM      6  N   UNL     1      15.635   6.412  20.021  0.00  0.00    -0.237 NA
ATOM      7  N   UNL     1      17.916   7.156  20.256  0.00  0.00    -0.229 NA
ATOM     16  C   UNL     1      15.294   7.274  21.001  0.00  0.00    +0.050 A 
ATOM     17  C   UNL     1      16.192   8.096  21.648  0.00  0.00    +0.055 A 
ATOM     18  C   UNL     1      17.503   7.993  21.230  0.00  0.00    +0.110 A 
ATOM     19  C   UNL     1      16.944   6.405  19.703  0.00  0.00    +0.127 A 
ATOM     22  C   UNL     1      17.362   5.466  18.622  0.00  0.00    +0.088 C 
BRANCH  18  21
ATOM      3  O   UNL     1      19.408   8.121  22.627  0.00  0.00    -0.461 OA
ATOM     21  C   UNL     1      18.545   8.792  21.820  0.00  0.00    +0.153 A 
ATOM     24  C   UNL     1      18.881  10.124  21.753  0.00  0.00    +0.051 A 
ATOM     26  C   UNL     1      20.024  10.283  22.572  0.00  0.00    +0.042 A 
ATOM     27  C   UNL     1      20.306   9.035  23.081  0.00  0.00    +0.196 A 
ENDBRANCH  18  21
ENDBRANCH   9  16
BRANCH  10  15
ATOM     15  C   UNL     1      12.540  10.726  19.878  0.00  0.00    +0.123 C 
BRANCH  15   5
ATOM      2  O   UNL     1      13.607  12.920  18.368  0.00  0.00    -0.270 OA
ATOM      5  N   UNL     1      13.313  10.640  18.678  0.00  0.00    -0.309 N 
ATOM     20  C   UNL     1      13.795  11.762  18.006  0.00  0.00    +0.251 C 
ATOM     30  H   UNL     1      13.509   9.718  18.299  0.00  0.00    +0.149 HD
BRANCH  20  23
ATOM      1  S   UNL     1      15.836  12.563  16.330  0.00  0.00    -0.092 S 
ATOM     23  C   UNL     1      14.559  11.505  16.758  0.00  0.00    +0.074 A 
ATOM     25  C   UNL     1      14.394  10.494  15.837  0.00  0.00    +0.021 A 
ATOM     28  C   UNL     1      15.329  10.590  14.765  0.00  0.00    +0.008 A 
ATOM     29  C   UNL     1      16.172  11.669  14.909  0.00  0.00    +0.046 A 
ENDBRANCH  20  23
ENDBRANCH  15   5
ENDBRANCH  10  15
TORSDOF 5
ENDMDL
MODEL 9
REMARK VINA RESULT:      -6.1      2.594      6.048
REMARK  Name = 26742412
REMARK  6 active torsions:
REMARK  status: ('A' for Active; 'I' for Inactive)
REMARK    1  A    between atoms: N_5  and  C_15
REMARK    2  A    between atoms: C_9  and  C_16
REMARK    3  A    between atoms: C_10  and  C_15
REMARK    4  A    between atoms: C_18  and  C_21
REMARK    5  A    between atoms: C_19  and  C_22
REMARK    6  A    between atoms: C_20  and  C_23
REMARK                            x       y       z     vdW  Elec       q    Type
REMARK                         _______ _______ _______ _____ _____    ______ ____
ROOT
ATOM      4  N   UNL     1      13.748   9.028  20.150  0.00  0.00    -0.297 NA
ATOM      8  C   UNL     1      11.316   9.315  21.036  0.00  0.00    +0.002 C 
ATOM      9  C   UNL     1      12.024  10.695  20.932  0.00  0.00    +0.055 C 
ATOM     10  C   UNL     1      13.503   8.087  21.275  0.00  0.00    +0.074 C 
ATOM     11  C   UNL     1      12.144   8.384  21.946  0.00  0.00    +0.024 C 
ATOM     12  C   UNL     1      11.333   8.699  19.621  0.00  0.00    +0.019 C 
ATOM     13  C   UNL     1      13.518  10.424  20.595  0.00  0.00    +0.094 C 
ATOM     14  C   UNL     1      12.773   8.717  19.077  0.00  0.00    +0.085 C 
ENDROOT
BRANCH   9  16
ATOM      6  N   UNL     1      10.850  12.563  21.987  0.00  0.00    -0.237 NA
ATOM      7  N   UNL     1      11.520  13.460  24.121  0.00  0.00    -0.229 NA
ATOM     16  C   UNL     1      11.861  11.676  22.085  0.00  0.00    +0.050 A 
ATOM     17  C   UNL     1      12.732  11.620  23.153  0.00  0.00    +0.055 A 
ATOM     18  C   UNL     1      12.512  12.546  24.152  0.00  0.00    +0.110 A 
ATOM     19  C   UNL     1      10.738  13.414  23.025  0.00  0.00    +0.127 A 
ATOM     22  C   UNL     1       9.631  14.409  22.955  0.00  0.00    +0.088 C 
BRANCH  18  21
ATOM      3  O   UNL     1      13.065  13.608  26.192  0.00  0.00    -0.461 OA
ATOM     21  C   UNL     1      13.346  12.601  25.323  0.00  0.00    +0.153 A 
ATOM     24  C   UNL     1      14.397  11.843  25.784  0.00  0.00    +0.051 A 
ATOM     26  C   UNL     1      14.789  12.422  27.015  0.00  0.00    +0.042 A 
ATOM     27  C   UNL     1      13.948  13.492  27.219  0.00  0.00    +0.196 A 
ENDBRANCH  18  21
ENDBRANCH   9  16
BRANCH  10  15
ATOM     15  C   UNL     1      14.650   8.078  22.288  0.00  0.00    +0.123 C 
BRANCH  15   5
ATOM      2  O   UNL     1      17.210   9.048  21.428  0.00  0.00    -0.270 OA
ATOM      5  N   UNL     1      15.745   7.291  21.813  0.00  0.00    -0.309 N 
ATOM     20  C   UNL     1      16.960   7.846  21.414  0.00  0.00    +0.251 C 
ATOM     30  H   UNL     1      15.622   6.284  21.758  0.00  0.00    +0.149 HD
BRANCH  20  23
ATOM      1  S   UNL     1      17.639   5.928  19.549  0.00  0.00    -0.092 S 
ATOM     23  C   UNL     1      17.988   6.895  20.919  0.00  0.00    +0.074 A 
ATOM     25  C   UNL     1      19.250   6.652  21.415  0.00  0.00    +0.021 A 
ATOM     28  C   UNL     1      19.939   5.659  20.661  0.00  0.00    +0.008 A 
ATOM     29  C   UNL     1      19.178   5.181  19.617  0.00  0.00    +0.046 A 
ENDBRANCH  20  23
ENDBRANCH  15   5
ENDBRANCH  10  15
TORSDOF 5
ENDMDL
MODEL 10
REMARK VINA RESULT:      -6.1     13.380     17.237
REMARK  Name = 26742412
REMARK  6 active torsions:
REMARK  status: ('A' for Active; 'I' for Inactive)
REMARK    1  A    between atoms: N_5  and  C_15
REMARK    2  A    between atoms: C_9  and  C_16
REMARK    3  A    between atoms: C_10  and  C_15
REMARK    4  A    between atoms: C_18  and  C_21
REMARK    5  A    between atoms: C_19  and  C_22
REMARK    6  A    between atoms: C_20  and  C_23
REMARK                            x       y       z     vdW  Elec       q    Type
REMARK                         _______ _______ _______ _____ _____    ______ ____
ROOT
ATOM      4  N   UNL     1      10.810   6.956   7.345  0.00  0.00    -0.297 NA
ATOM      8  C   UNL     1       9.314   5.262   6.050  0.00  0.00    +0.002 C 
ATOM      9  C   UNL     1      10.607   5.572   5.245  0.00  0.00    +0.055 C 
ATOM     10  C   UNL     1       9.414   7.464   7.271  0.00  0.00    +0.074 C 
ATOM     11  C   UNL     1       8.562   6.579   6.334  0.00  0.00    +0.024 C 
ATOM     12  C   UNL     1       9.764   4.693   7.413  0.00  0.00    +0.019 C 
ATOM     13  C   UNL     1      11.342   6.731   5.978  0.00  0.00    +0.094 C 
ATOM     14  C   UNL     1      10.783   5.653   8.052  0.00  0.00    +0.085 C 
ENDROOT
BRANCH   9  16
ATOM      6  N   UNL     1       9.790   6.922   3.376  0.00  0.00    -0.237 NA
ATOM      7  N   UNL     1      10.218   6.327   1.080  0.00  0.00    -0.229 NA
ATOM     16  C   UNL     1      10.480   5.824   3.749  0.00  0.00    +0.050 A 
ATOM     17  C   UNL     1      11.058   4.942   2.860  0.00  0.00    +0.055 A 
ATOM     18  C   UNL     1      10.893   5.246   1.524  0.00  0.00    +0.110 A 
ATOM     19  C   UNL     1       9.700   7.110   2.046  0.00  0.00    +0.127 A 
ATOM     22  C   UNL     1       8.946   8.314   1.593  0.00  0.00    +0.088 C 
BRANCH  18  21
ATOM      3  O   UNL     1      10.635   4.203  -0.583  0.00  0.00    -0.461 OA
ATOM     21  C   UNL     1      11.444   4.412   0.490  0.00  0.00    +0.153 A 
ATOM     24  C   UNL     1      12.641   3.753   0.328  0.00  0.00    +0.051 A 
ATOM     26  C   UNL     1      12.563   3.097  -0.923  0.00  0.00    +0.042 A 
ATOM     27  C   UNL     1      11.323   3.402  -1.438  0.00  0.00    +0.196 A 
ENDBRANCH  18  21
ENDBRANCH   9  16
BRANCH  10  15
ATOM     15  C   UNL     1       9.350   8.940   6.875  0.00  0.00    +0.123 C 
BRANCH  15   5
ATOM      2  O   UNL     1      11.674  10.246   7.939  0.00  0.00    -0.270 OA
ATOM      5  N   UNL     1       9.403   9.781   8.030  0.00  0.00    -0.309 N 
ATOM     20  C   UNL     1      10.579  10.379   8.479  0.00  0.00    +0.251 C 
ATOM     30  H   UNL     1       8.542   9.939   8.547  0.00  0.00    +0.149 HD
BRANCH  20  23
ATOM      1  S   UNL     1       8.923  11.531  10.362  0.00  0.00    -0.092 S 
ATOM     23  C   UNL     1      10.472  11.203   9.710  0.00  0.00    +0.074 A 
ATOM     25  C   UNL     1      11.479  11.779  10.454  0.00  0.00    +0.021 A 
ATOM     28  C   UNL     1      10.971  12.500  11.574  0.00  0.00    +0.008 A 
ATOM     29  C   UNL     1       9.596  12.446  11.643  0.00  0.00    +0.046 A 
ENDBRANCH  20  23
ENDBRANCH  15   5
ENDBRANCH  10  15
TORSDOF 5
ENDMDL
