MODEL 1
REMARK VINA RESULT:      -6.5      0.000      0.000
REMARK  Name = 56775002
REMARK  6 active torsions:
REMARK  status: ('A' for Active; 'I' for Inactive)
REMARK    1  A    between atoms: O_3  and  C_24
REMARK    2  A    between atoms: N_5  and  C_11
REMARK    3  A    between atoms: N_6  and  C_17
REMARK    4  A    between atoms: C_7  and  C_11
REMARK    5  A    between atoms: C_17  and  C_18
REMARK    6  A    between atoms: C_23  and  C_24
REMARK                            x       y       z     vdW  Elec       q    Type
REMARK                         _______ _______ _______ _____ _____    ______ ____
ROOT
ATOM      1  O   UNL     1      11.311   8.059  18.190  0.00  0.00    -0.364 OA
ATOM      2  O   UNL     1      11.755   9.330  14.934  0.00  0.00    -0.273 OA
ATOM      5  N   UNL     1      13.172   9.511  16.770  0.00  0.00    -0.293 N 
ATOM      6  N   UNL     1      14.139   7.833  19.865  0.00  0.00    -0.294 NA
ATOM      8  C   UNL     1      13.413   9.245  18.186  0.00  0.00    +0.120 C 
ATOM     12  C   UNL     1      12.174   8.864  18.990  0.00  0.00    +0.154 C 
ATOM     13  C   UNL     1      14.333   8.052  18.432  0.00  0.00    +0.110 C 
ATOM     14  C   UNL     1      12.703   7.989  20.132  0.00  0.00    +0.118 C 
ATOM     15  C   UNL     1      11.969   9.207  16.141  0.00  0.00    +0.242 C 
ATOM     16  C   UNL     1      10.852   8.775  17.066  0.00  0.00    +0.256 C 
ENDROOT
BRANCH   5  11
ATOM     11  C   UNL     1      14.292  10.029  15.994  0.00  0.00    +0.111 C 
BRANCH  11   7
ATOM      7  C   UNL     1      14.217  11.512  15.867  0.00  0.00    +0.006 C 
ATOM      9  C   UNL     1      14.337  12.360  17.099  0.00  0.00    +0.005 C 
ATOM     10  C   UNL     1      15.453  12.332  16.098  0.00  0.00    +0.005 C 
ENDBRANCH  11   7
ENDBRANCH   5  11
BRANCH   6  17
ATOM     17  C   UNL     1      14.661   6.552  20.315  0.00  0.00    +0.119 C 
BRANCH  17  18
ATOM     18  C   UNL     1      16.166   6.548  20.368  0.00  0.00    -0.033 A 
ATOM     19  C   UNL     1      16.894   5.810  19.434  0.00  0.00    +0.006 A 
ATOM     20  C   UNL     1      16.831   7.280  21.350  0.00  0.00    +0.006 A 
ATOM     21  C   UNL     1      18.289   5.806  19.484  0.00  0.00    +0.015 A 
ATOM     22  C   UNL     1      18.225   7.276  21.399  0.00  0.00    +0.015 A 
ATOM     23  C   UNL     1      18.955   6.539  20.466  0.00  0.00    +0.059 A 
BRANCH  23  24
ATOM      4  O   UNL     1      21.112   7.459  20.939  0.00  0.00    -0.245 OA
ATOM     24  C   UNL     1      20.407   6.535  20.517  0.00  0.00    +0.337 C 
BRANCH  24   3
ATOM      3  O   UNL     1      20.942   5.377  20.041  0.00  0.00    -0.477 OA
ATOM     25  H   UNL     1      21.776   5.144  20.503  0.00  0.00    +0.295 HD
ENDBRANCH  24   3
ENDBRANCH  23  24
ENDBRANCH  17  18
ENDBRANCH   6  17
TORSDOF 6
ENDMDL
MODEL 2
REMARK VINA RESULT:      -6.2      2.054      2.802
REMARK  Name = 56775002
REMARK  6 active torsions:
REMARK  status: ('A' for Active; 'I' for Inactive)
REMARK    1  A    between atoms: O_3  and  C_24
REMARK    2  A    between atoms: N_5  and  C_11
REMARK    3  A    between atoms: N_6  and  C_17
REMARK    4  A    between atoms: C_7  and  C_11
REMARK    5  A    between atoms: C_17  and  C_18
REMARK    6  A    between atoms: C_23  and  C_24
REMARK                            x       y       z     vdW  Elec       q    Type
REMARK                         _______ _______ _______ _____ _____    ______ ____
ROOT
ATOM      1  O   UNL     1      12.972   6.571  20.935  0.00  0.00    -0.364 OA
ATOM      2  O   UNL     1      10.574   8.512  19.233  0.00  0.00    -0.273 OA
ATOM      5  N   UNL     1      12.843   8.936  19.530  0.00  0.00    -0.293 N 
ATOM      6  N   UNL     1      16.061   7.289  20.038  0.00  0.00    -0.294 NA
ATOM      8  C   UNL     1      14.116   8.535  20.121  0.00  0.00    +0.120 C 
ATOM     12  C   UNL     1      14.010   7.501  21.238  0.00  0.00    +0.154 C 
ATOM     13  C   UNL     1      15.053   7.844  19.135  0.00  0.00    +0.110 C 
ATOM     14  C   UNL     1      15.342   6.745  21.198  0.00  0.00    +0.118 C 
ATOM     15  C   UNL     1      11.650   8.264  19.779  0.00  0.00    +0.242 C 
ATOM     16  C   UNL     1      11.721   7.216  20.868  0.00  0.00    +0.256 C 
ENDROOT
BRANCH   5  11
ATOM     11  C   UNL     1      12.876  10.033  18.570  0.00  0.00    +0.111 C 
BRANCH  11   7
ATOM      7  C   UNL     1      13.575  11.222  19.135  0.00  0.00    +0.006 C 
ATOM      9  C   UNL     1      14.868  11.672  18.521  0.00  0.00    +0.005 C 
ATOM     10  C   UNL     1      13.625  12.492  18.337  0.00  0.00    +0.005 C 
ENDBRANCH  11   7
ENDBRANCH   5  11
BRANCH   6  17
ATOM     17  C   UNL     1      16.917   6.307  19.392  0.00  0.00    +0.119 C 
BRANCH  17  18
ATOM     18  C   UNL     1      18.216   6.123  20.131  0.00  0.00    -0.033 A 
ATOM     19  C   UNL     1      19.074   5.080  19.784  0.00  0.00    +0.006 A 
ATOM     20  C   UNL     1      18.561   6.995  21.163  0.00  0.00    +0.006 A 
ATOM     21  C   UNL     1      20.278   4.909  20.469  0.00  0.00    +0.015 A 
ATOM     22  C   UNL     1      19.764   6.825  21.848  0.00  0.00    +0.015 A 
ATOM     23  C   UNL     1      20.623   5.782  21.501  0.00  0.00    +0.059 A 
BRANCH  23  24
ATOM      4  O   UNL     1      22.912   6.249  22.014  0.00  0.00    -0.245 OA
ATOM     24  C   UNL     1      21.877   5.605  22.214  0.00  0.00    +0.337 C 
BRANCH  24   3
ATOM      3  O   UNL     1      21.804   4.628  23.160  0.00  0.00    -0.477 OA
ATOM     25  H   UNL     1      22.694   4.316  23.430  0.00  0.00    +0.295 HD
ENDBRANCH  24   3
ENDBRANCH  23  24
ENDBRANCH  17  18
ENDBRANCH   6  17
TORSDOF 6
ENDMDL
MODEL 3
REMARK VINA RESULT:      -6.2     12.926     16.109
REMARK  Name = 56775002
REMARK  6 active torsions:
REMARK  status: ('A' for Active; 'I' for Inactive)
REMARK    1  A    between atoms: O_3  and  C_24
REMARK    2  A    between atoms: N_5  and  C_11
REMARK    3  A    between atoms: N_6  and  C_17
REMARK    4  A    between atoms: C_7  and  C_11
REMARK    5  A    between atoms: C_17  and  C_18
REMARK    6  A    between atoms: C_23  and  C_24
REMARK                            x       y       z     vdW  Elec       q    Type
REMARK                         _______ _______ _______ _____ _____    ______ ____
ROOT
ATOM      1  O   UNL     1      10.858   8.951   1.701  0.00  0.00    -0.364 OA
ATOM      2  O   UNL     1      11.959   7.503  -1.316  0.00  0.00    -0.273 OA
ATOM      5  N   UNL     1      12.066   6.631   0.839  0.00  0.00    -0.293 N 
ATOM      6  N   UNL     1      10.415   6.728   4.093  0.00  0.00    -0.294 NA
ATOM      8  C   UNL     1      11.830   6.815   2.267  0.00  0.00    +0.120 C 
ATOM     12  C   UNL     1      11.602   8.260   2.702  0.00  0.00    +0.154 C 
ATOM     13  C   UNL     1      10.562   6.128   2.768  0.00  0.00    +0.110 C 
ATOM     14  C   UNL     1      10.723   8.158   3.952  0.00  0.00    +0.118 C 
ATOM     15  C   UNL     1      11.860   7.641  -0.096  0.00  0.00    +0.242 C 
ATOM     16  C   UNL     1      11.574   9.007   0.489  0.00  0.00    +0.256 C 
ENDROOT
BRANCH   5  11
ATOM     11  C   UNL     1      12.443   5.293   0.397  0.00  0.00    +0.111 C 
BRANCH  11   7
ATOM      7  C   UNL     1      13.352   4.639   1.380  0.00  0.00    +0.006 C 
ATOM      9  C   UNL     1      13.190   3.176   1.668  0.00  0.00    +0.005 C 
ATOM     10  C   UNL     1      14.379   3.659   0.891  0.00  0.00    +0.005 C 
ENDBRANCH  11   7
ENDBRANCH   5  11
BRANCH   6  17
ATOM     17  C   UNL     1       9.107   6.486   4.680  0.00  0.00    +0.119 C 
BRANCH  17  18
ATOM     18  C   UNL     1       9.207   6.086   6.127  0.00  0.00    -0.033 A 
ATOM     19  C   UNL     1       9.658   4.810   6.468  0.00  0.00    +0.006 A 
ATOM     20  C   UNL     1       8.847   6.989   7.127  0.00  0.00    +0.006 A 
ATOM     21  C   UNL     1       9.750   4.439   7.810  0.00  0.00    +0.015 A 
ATOM     22  C   UNL     1       8.940   6.617   8.469  0.00  0.00    +0.015 A 
ATOM     23  C   UNL     1       9.391   5.343   8.811  0.00  0.00    +0.059 A 
BRANCH  23  24
ATOM      4  O   UNL     1      10.540   4.820  10.843  0.00  0.00    -0.245 OA
ATOM     24  C   UNL     1       9.488   4.956  10.208  0.00  0.00    +0.337 C 
BRANCH  24   3
ATOM      3  O   UNL     1       8.269   4.750  10.777  0.00  0.00    -0.477 OA
ATOM     25  H   UNL     1       8.341   4.574  11.740  0.00  0.00    +0.295 HD
ENDBRANCH  24   3
ENDBRANCH  23  24
ENDBRANCH  17  18
ENDBRANCH   6  17
TORSDOF 6
ENDMDL
MODEL 4
REMARK VINA RESULT:      -5.9      9.957     13.014
REMARK  Name = 56775002
REMARK  6 active torsions:
REMARK  status: ('A' for Active; 'I' for Inactive)
REMARK    1  A    between atoms: O_3  and  C_24
REMARK    2  A    between atoms: N_5  and  C_11
REMARK    3  A    between atoms: N_6  and  C_17
REMARK    4  A    between atoms: C_7  and  C_11
REMARK    5  A    between atoms: C_17  and  C_18
REMARK    6  A    between atoms: C_23  and  C_24
REMARK                            x       y       z     vdW  Elec       q    Type
REMARK                         _______ _______ _______ _____ _____    ______ ____
ROOT
ATOM      1  O   UNL     1      12.058   7.846   4.626  0.00  0.00    -0.364 OA
ATOM      2  O   UNL     1      10.215   4.897   4.060  0.00  0.00    -0.273 OA
ATOM      5  N   UNL     1      10.600   6.007   6.068  0.00  0.00    -0.293 N 
ATOM      6  N   UNL     1      11.280   9.307   7.475  0.00  0.00    -0.294 NA
ATOM      8  C   UNL     1      11.254   7.103   6.777  0.00  0.00    +0.120 C 
ATOM     12  C   UNL     1      12.386   7.781   6.012  0.00  0.00    +0.154 C 
ATOM     13  C   UNL     1      10.323   8.276   7.075  0.00  0.00    +0.110 C 
ATOM     14  C   UNL     1      12.419   9.215   6.552  0.00  0.00    +0.118 C 
ATOM     15  C   UNL     1      10.812   5.751   4.717  0.00  0.00    +0.242 C 
ATOM     16  C   UNL     1      11.924   6.554   4.079  0.00  0.00    +0.256 C 
ENDROOT
BRANCH   5  11
ATOM     11  C   UNL     1       9.620   5.228   6.815  0.00  0.00    +0.111 C 
BRANCH  11   7
ATOM      7  C   UNL     1      10.082   4.976   8.209  0.00  0.00    +0.006 C 
ATOM      9  C   UNL     1       9.188   5.345   9.356  0.00  0.00    +0.005 C 
ATOM     10  C   UNL     1       9.418   3.901   9.020  0.00  0.00    +0.005 C 
ENDBRANCH  11   7
ENDBRANCH   5  11
BRANCH   6  17
ATOM     17  C   UNL     1      10.692  10.636   7.517  0.00  0.00    +0.119 C 
BRANCH  17  18
ATOM     18  C   UNL     1      10.476  11.109   8.930  0.00  0.00    -0.033 A 
ATOM     19  C   UNL     1       9.191  11.116   9.473  0.00  0.00    +0.006 A 
ATOM     20  C   UNL     1      11.559  11.541   9.694  0.00  0.00    +0.006 A 
ATOM     21  C   UNL     1       8.990  11.555  10.783  0.00  0.00    +0.015 A 
ATOM     22  C   UNL     1      11.358  11.979  11.003  0.00  0.00    +0.015 A 
ATOM     23  C   UNL     1      10.074  11.986  11.548  0.00  0.00    +0.059 A 
BRANCH  23  24
ATOM      4  O   UNL     1       8.779  12.474  13.499  0.00  0.00    -0.245 OA
ATOM     24  C   UNL     1       9.866  12.443  12.912  0.00  0.00    +0.337 C 
BRANCH  24   3
ATOM      3  O   UNL     1      11.021  12.847  13.508  0.00  0.00    -0.477 OA
ATOM     25  H   UNL     1      11.320  13.718  13.169  0.00  0.00    +0.295 HD
ENDBRANCH  24   3
ENDBRANCH  23  24
ENDBRANCH  17  18
ENDBRANCH   6  17
TORSDOF 6
ENDMDL
MODEL 5
REMARK VINA RESULT:      -5.9      2.885      8.588
REMARK  Name = 56775002
REMARK  6 active torsions:
REMARK  status: ('A' for Active; 'I' for Inactive)
REMARK    1  A    between atoms: O_3  and  C_24
REMARK    2  A    between atoms: N_5  and  C_11
REMARK    3  A    between atoms: N_6  and  C_17
REMARK    4  A    between atoms: C_7  and  C_11
REMARK    5  A    between atoms: C_17  and  C_18
REMARK    6  A    between atoms: C_23  and  C_24
REMARK                            x       y       z     vdW  Elec       q    Type
REMARK                         _______ _______ _______ _____ _____    ______ ____
ROOT
ATOM      1  O   UNL     1      19.719   9.152  21.058  0.00  0.00    -0.364 OA
ATOM      2  O   UNL     1      22.846   7.762  21.897  0.00  0.00    -0.273 OA
ATOM      5  N   UNL     1      20.725   6.845  22.176  0.00  0.00    -0.293 N 
ATOM      6  N   UNL     1      17.344   6.882  20.799  0.00  0.00    -0.294 NA
ATOM      8  C   UNL     1      19.278   7.000  22.059  0.00  0.00    +0.120 C 
ATOM     12  C   UNL     1      18.797   8.437  21.877  0.00  0.00    +0.154 C 
ATOM     13  C   UNL     1      18.689   6.310  20.832  0.00  0.00    +0.110 C 
ATOM     14  C   UNL     1      17.481   8.313  21.103  0.00  0.00    +0.118 C 
ATOM     15  C   UNL     1      21.619   7.875  21.900  0.00  0.00    +0.242 C 
ATOM     16  C   UNL     1      20.985   9.230  21.672  0.00  0.00    +0.256 C 
ENDROOT
BRANCH   5  11
ATOM     11  C   UNL     1      21.223   5.515  22.506  0.00  0.00    +0.111 C 
BRANCH  11   7
ATOM      7  C   UNL     1      21.751   4.822  21.297  0.00  0.00    +0.006 C 
ATOM      9  C   UNL     1      22.647   3.631  21.467  0.00  0.00    +0.005 C 
ATOM     10  C   UNL     1      21.247   3.449  20.959  0.00  0.00    +0.005 C 
ENDBRANCH  11   7
ENDBRANCH   5  11
BRANCH   6  17
ATOM     17  C   UNL     1      16.657   6.635  19.541  0.00  0.00    +0.119 C 
BRANCH  17  18
ATOM     18  C   UNL     1      15.208   7.036  19.606  0.00  0.00    -0.033 A 
ATOM     19  C   UNL     1      14.435   6.682  20.712  0.00  0.00    +0.006 A 
ATOM     20  C   UNL     1      14.637   7.761  18.560  0.00  0.00    +0.006 A 
ATOM     21  C   UNL     1      13.091   7.054  20.772  0.00  0.00    +0.015 A 
ATOM     22  C   UNL     1      13.294   8.133  18.621  0.00  0.00    +0.015 A 
ATOM     23  C   UNL     1      12.521   7.780  19.726  0.00  0.00    +0.059 A 
BRANCH  23  24
ATOM      4  O   UNL     1      10.461   8.622  18.849  0.00  0.00    -0.245 OA
ATOM     24  C   UNL     1      11.122   8.168  19.789  0.00  0.00    +0.337 C 
BRANCH  24   3
ATOM      3  O   UNL     1      10.584   7.978  21.025  0.00  0.00    -0.477 OA
ATOM     25  H   UNL     1      10.111   8.777  21.344  0.00  0.00    +0.295 HD
ENDBRANCH  24   3
ENDBRANCH  23  24
ENDBRANCH  17  18
ENDBRANCH   6  17
TORSDOF 6
ENDMDL
MODEL 6
REMARK VINA RESULT:      -5.9     25.812     28.238
REMARK  Name = 56775002
REMARK  6 active torsions:
REMARK  status: ('A' for Active; 'I' for Inactive)
REMARK    1  A    between atoms: O_3  and  C_24
REMARK    2  A    between atoms: N_5  and  C_11
REMARK    3  A    between atoms: N_6  and  C_17
REMARK    4  A    between atoms: C_7  and  C_11
REMARK    5  A    between atoms: C_17  and  C_18
REMARK    6  A    between atoms: C_23  and  C_24
REMARK                            x       y       z     vdW  Elec       q    Type
REMARK                         _______ _______ _______ _____ _____    ______ ____
ROOT
ATOM      1  O   UNL     1     -10.009  11.345  17.125  0.00  0.00    -0.364 OA
ATOM      2  O   UNL     1     -11.902  12.099  14.250  0.00  0.00    -0.273 OA
ATOM      5  N   UNL     1     -12.001  10.207  15.602  0.00  0.00    -0.293 N 
ATOM      6  N   UNL     1     -11.422   9.045  19.014  0.00  0.00    -0.294 NA
ATOM      8  C   UNL     1     -11.471   9.464  16.741  0.00  0.00    +0.120 C 
ATOM     12  C   UNL     1     -10.103   9.927  17.233  0.00  0.00    +0.154 C 
ATOM     13  C   UNL     1     -12.323   9.594  18.001  0.00  0.00    +0.110 C 
ATOM     14  C   UNL     1     -10.081   9.568  18.722  0.00  0.00    +0.118 C 
ATOM     15  C   UNL     1     -11.436  11.394  15.147  0.00  0.00    +0.242 C 
ATOM     16  C   UNL     1     -10.110  11.757  15.781  0.00  0.00    +0.256 C 
ENDROOT
BRANCH   5  11
ATOM     11  C   UNL     1     -13.229   9.704  14.998  0.00  0.00    +0.111 C 
BRANCH  11   7
ATOM      7  C   UNL     1     -13.033   8.338  14.436  0.00  0.00    +0.006 C 
ATOM      9  C   UNL     1     -14.233   7.488  14.140  0.00  0.00    +0.005 C 
ATOM     10  C   UNL     1     -13.427   8.065  13.014  0.00  0.00    +0.005 C 
ENDBRANCH  11   7
ENDBRANCH   5  11
BRANCH   6  17
ATOM     17  C   UNL     1     -11.859   9.332  20.371  0.00  0.00    +0.119 C 
BRANCH  17  18
ATOM     18  C   UNL     1     -12.543   8.149  21.002  0.00  0.00    -0.033 A 
ATOM     19  C   UNL     1     -13.805   8.299  21.578  0.00  0.00    +0.006 A 
ATOM     20  C   UNL     1     -11.916   6.904  21.012  0.00  0.00    +0.006 A 
ATOM     21  C   UNL     1     -14.439   7.203  22.164  0.00  0.00    +0.015 A 
ATOM     22  C   UNL     1     -12.550   5.808  21.597  0.00  0.00    +0.015 A 
ATOM     23  C   UNL     1     -13.812   5.956  22.173  0.00  0.00    +0.059 A 
BRANCH  23  24
ATOM      4  O   UNL     1     -15.524   4.300  22.387  0.00  0.00    -0.245 OA
ATOM     24  C   UNL     1     -14.472   4.814  22.782  0.00  0.00    +0.337 C 
BRANCH  24   3
ATOM      3  O   UNL     1     -13.801   4.342  23.868  0.00  0.00    -0.477 OA
ATOM     25  H   UNL     1     -14.412   3.972  24.541  0.00  0.00    +0.295 HD
ENDBRANCH  24   3
ENDBRANCH  23  24
ENDBRANCH  17  18
ENDBRANCH   6  17
TORSDOF 6
ENDMDL
MODEL 7
REMARK VINA RESULT:      -5.8     27.232     29.923
REMARK  Name = 56775002
REMARK  6 active torsions:
REMARK  status: ('A' for Active; 'I' for Inactive)
REMARK    1  A    between atoms: O_3  and  C_24
REMARK    2  A    between atoms: N_5  and  C_11
REMARK    3  A    between atoms: N_6  and  C_17
REMARK    4  A    between atoms: C_7  and  C_11
REMARK    5  A    between atoms: C_17  and  C_18
REMARK    6  A    between atoms: C_23  and  C_24
REMARK                            x       y       z     vdW  Elec       q    Type
REMARK                         _______ _______ _______ _____ _____    ______ ____
ROOT
ATOM      1  O   UNL     1     -10.590 -11.594  19.850  0.00  0.00    -0.364 OA
ATOM      2  O   UNL     1     -13.558 -10.044  18.753  0.00  0.00    -0.273 OA
ATOM      5  N   UNL     1     -11.360  -9.549  18.173  0.00  0.00    -0.293 N 
ATOM      6  N   UNL     1      -8.043 -11.036  17.835  0.00  0.00    -0.294 NA
ATOM      8  C   UNL     1      -9.936  -9.816  18.354  0.00  0.00    +0.120 C 
ATOM     12  C   UNL     1      -9.584 -10.613  19.607  0.00  0.00    +0.154 C 
ATOM     13  C   UNL     1      -9.333 -10.677  17.248  0.00  0.00    +0.110 C 
ATOM     14  C   UNL     1      -8.289 -11.351  19.249  0.00  0.00    +0.118 C 
ATOM     15  C   UNL     1     -12.346 -10.170  18.933  0.00  0.00    +0.242 C 
ATOM     16  C   UNL     1     -11.836 -10.986  20.101  0.00  0.00    +0.256 C 
ENDROOT
BRANCH   5  11
ATOM     11  C   UNL     1     -11.732  -8.660  17.079  0.00  0.00    +0.111 C 
BRANCH  11   7
ATOM      7  C   UNL     1     -10.891  -7.429  17.077  0.00  0.00    +0.006 C 
ATOM      9  C   UNL     1     -10.188  -7.025  15.815  0.00  0.00    +0.005 C 
ATOM     10  C   UNL     1     -11.356  -6.224  16.311  0.00  0.00    +0.005 C 
ENDBRANCH  11   7
ENDBRANCH   5  11
BRANCH   6  17
ATOM     17  C   UNL     1      -7.381 -12.117  17.123  0.00  0.00    +0.119 C 
BRANCH  17  18
ATOM     18  C   UNL     1      -5.979 -11.746  16.718  0.00  0.00    -0.033 A 
ATOM     19  C   UNL     1      -5.434 -10.529  17.130  0.00  0.00    +0.006 A 
ATOM     20  C   UNL     1      -5.226 -12.617  15.932  0.00  0.00    +0.006 A 
ATOM     21  C   UNL     1      -4.135 -10.184  16.755  0.00  0.00    +0.015 A 
ATOM     22  C   UNL     1      -3.927 -12.272  15.557  0.00  0.00    +0.015 A 
ATOM     23  C   UNL     1      -3.381 -11.056  15.968  0.00  0.00    +0.059 A 
BRANCH  23  24
ATOM      4  O   UNL     1      -1.707 -10.168  14.509  0.00  0.00    -0.245 OA
ATOM     24  C   UNL     1      -2.028 -10.698  15.578  0.00  0.00    +0.337 C 
BRANCH  24   3
ATOM      3  O   UNL     1      -1.110 -11.010  16.534  0.00  0.00    -0.477 OA
ATOM     25  H   UNL     1      -0.257 -10.549  16.384  0.00  0.00    +0.295 HD
ENDBRANCH  24   3
ENDBRANCH  23  24
ENDBRANCH  17  18
ENDBRANCH   6  17
TORSDOF 6
ENDMDL
MODEL 8
REMARK VINA RESULT:      -5.7     13.483     16.619
REMARK  Name = 56775002
REMARK  6 active torsions:
REMARK  status: ('A' for Active; 'I' for Inactive)
REMARK    1  A    between atoms: O_3  and  C_24
REMARK    2  A    between atoms: N_5  and  C_11
REMARK    3  A    between atoms: N_6  and  C_17
REMARK    4  A    between atoms: C_7  and  C_11
REMARK    5  A    between atoms: C_17  and  C_18
REMARK    6  A    between atoms: C_23  and  C_24
REMARK                            x       y       z     vdW  Elec       q    Type
REMARK                         _______ _______ _______ _____ _____    ______ ____
ROOT
ATOM      1  O   UNL     1      12.827   7.628   2.094  0.00  0.00    -0.364 OA
ATOM      2  O   UNL     1      12.668   6.491  -1.238  0.00  0.00    -0.273 OA
ATOM      5  N   UNL     1      12.027   5.386   0.707  0.00  0.00    -0.293 N 
ATOM      6  N   UNL     1      10.823   5.957   4.107  0.00  0.00    -0.294 NA
ATOM      8  C   UNL     1      11.938   5.384   2.165  0.00  0.00    +0.120 C 
ATOM     12  C   UNL     1      12.804   6.428   2.864  0.00  0.00    +0.154 C 
ATOM     13  C   UNL     1      10.546   5.722   2.690  0.00  0.00    +0.110 C 
ATOM     14  C   UNL     1      12.071   6.728   4.176  0.00  0.00    +0.118 C 
ATOM     15  C   UNL     1      12.649   6.404  -0.009  0.00  0.00    +0.242 C 
ATOM     16  C   UNL     1      13.412   7.405   0.831  0.00  0.00    +0.256 C 
ENDROOT
BRANCH   5  11
ATOM     11  C   UNL     1      11.341   4.310   0.002  0.00  0.00    +0.111 C 
BRANCH  11   7
ATOM      7  C   UNL     1      12.086   3.913  -1.227  0.00  0.00    +0.006 C 
ATOM      9  C   UNL     1      12.155   2.463  -1.604  0.00  0.00    +0.005 C 
ATOM     10  C   UNL     1      11.323   3.410  -2.417  0.00  0.00    +0.005 C 
ENDBRANCH  11   7
ENDBRANCH   5  11
BRANCH   6  17
ATOM     17  C   UNL     1       9.719   6.606   4.797  0.00  0.00    +0.119 C 
BRANCH  17  18
ATOM     18  C   UNL     1       9.578   6.115   6.213  0.00  0.00    -0.033 A 
ATOM     19  C   UNL     1       9.107   6.976   7.205  0.00  0.00    +0.006 A 
ATOM     20  C   UNL     1       9.920   4.802   6.534  0.00  0.00    +0.006 A 
ATOM     21  C   UNL     1       8.977   6.521   8.518  0.00  0.00    +0.015 A 
ATOM     22  C   UNL     1       9.790   4.348   7.846  0.00  0.00    +0.015 A 
ATOM     23  C   UNL     1       9.318   5.207   8.839  0.00  0.00    +0.059 A 
BRANCH  23  24
ATOM      4  O   UNL     1       8.113   4.552  10.799  0.00  0.00    -0.245 OA
ATOM     24  C   UNL     1       9.182   4.734  10.206  0.00  0.00    +0.337 C 
BRANCH  24   3
ATOM      3  O   UNL     1      10.385   4.498  10.798  0.00  0.00    -0.477 OA
ATOM     25  H   UNL     1      10.781   5.320  11.159  0.00  0.00    +0.295 HD
ENDBRANCH  24   3
ENDBRANCH  23  24
ENDBRANCH  17  18
ENDBRANCH   6  17
TORSDOF 6
ENDMDL
MODEL 9
REMARK VINA RESULT:      -5.7     27.408     29.059
REMARK  Name = 56775002
REMARK  6 active torsions:
REMARK  status: ('A' for Active; 'I' for Inactive)
REMARK    1  A    between atoms: O_3  and  C_24
REMARK    2  A    between atoms: N_5  and  C_11
REMARK    3  A    between atoms: N_6  and  C_17
REMARK    4  A    between atoms: C_7  and  C_11
REMARK    5  A    between atoms: C_17  and  C_18
REMARK    6  A    between atoms: C_23  and  C_24
REMARK                            x       y       z     vdW  Elec       q    Type
REMARK                         _______ _______ _______ _____ _____    ______ ____
ROOT
ATOM      1  O   UNL     1      -4.111 -11.769  18.285  0.00  0.00    -0.364 OA
ATOM      2  O   UNL     1      -7.166 -11.763  20.040  0.00  0.00    -0.273 OA
ATOM      5  N   UNL     1      -6.666 -10.785  17.989  0.00  0.00    -0.293 N 
ATOM      6  N   UNL     1      -4.481 -11.097  15.080  0.00  0.00    -0.294 NA
ATOM      8  C   UNL     1      -5.670 -10.483  16.965  0.00  0.00    +0.120 C 
ATOM     12  C   UNL     1      -4.219 -10.649  17.409  0.00  0.00    +0.154 C 
ATOM     13  C   UNL     1      -5.741 -11.409  15.754  0.00  0.00    +0.110 C 
ATOM     14  C   UNL     1      -3.454 -10.985  16.124  0.00  0.00    +0.118 C 
ATOM     15  C   UNL     1      -6.347 -11.409  19.191  0.00  0.00    +0.242 C 
ATOM     16  C   UNL     1      -4.866 -11.567  19.458  0.00  0.00    +0.256 C 
ENDROOT
BRANCH   5  11
ATOM     11  C   UNL     1      -8.057 -10.491  17.664  0.00  0.00    +0.111 C 
BRANCH  11   7
ATOM      7  C   UNL     1      -8.218  -9.080  17.213  0.00  0.00    +0.006 C 
ATOM      9  C   UNL     1      -9.085  -8.786  16.024  0.00  0.00    +0.005 C 
ATOM     10  C   UNL     1      -9.541  -8.396  17.399  0.00  0.00    +0.005 C 
ENDBRANCH  11   7
ENDBRANCH   5  11
BRANCH   6  17
ATOM     17  C   UNL     1      -4.138 -12.066  14.052  0.00  0.00    +0.119 C 
BRANCH  17  18
ATOM     18  C   UNL     1      -4.239 -11.476  12.670  0.00  0.00    -0.033 A 
ATOM     19  C   UNL     1      -3.733 -12.176  11.575  0.00  0.00    +0.006 A 
ATOM     20  C   UNL     1      -4.836 -10.230  12.486  0.00  0.00    +0.006 A 
ATOM     21  C   UNL     1      -3.825 -11.629  10.294  0.00  0.00    +0.015 A 
ATOM     22  C   UNL     1      -4.929  -9.683  11.206  0.00  0.00    +0.015 A 
ATOM     23  C   UNL     1      -4.424 -10.383  10.110  0.00  0.00    +0.059 A 
BRANCH  23  24
ATOM      4  O   UNL     1      -4.848 -10.429   7.756  0.00  0.00    -0.245 OA
ATOM     24  C   UNL     1      -4.521  -9.813   8.776  0.00  0.00    +0.337 C 
BRANCH  24   3
ATOM      3  O   UNL     1      -4.209  -8.488   8.752  0.00  0.00    -0.477 OA
ATOM     25  H   UNL     1      -4.844  -7.955   9.276  0.00  0.00    +0.295 HD
ENDBRANCH  24   3
ENDBRANCH  23  24
ENDBRANCH  17  18
ENDBRANCH   6  17
TORSDOF 6
ENDMDL
MODEL 10
REMARK VINA RESULT:      -5.7      2.119      3.352
REMARK  Name = 56775002
REMARK  6 active torsions:
REMARK  status: ('A' for Active; 'I' for Inactive)
REMARK    1  A    between atoms: O_3  and  C_24
REMARK    2  A    between atoms: N_5  and  C_11
REMARK    3  A    between atoms: N_6  and  C_17
REMARK    4  A    between atoms: C_7  and  C_11
REMARK    5  A    between atoms: C_17  and  C_18
REMARK    6  A    between atoms: C_23  and  C_24
REMARK                            x       y       z     vdW  Elec       q    Type
REMARK                         _______ _______ _______ _____ _____    ______ ____
ROOT
ATOM      1  O   UNL     1      13.347   8.324  21.981  0.00  0.00    -0.364 OA
ATOM      2  O   UNL     1      10.542   8.079  19.861  0.00  0.00    -0.273 OA
ATOM      5  N   UNL     1      12.787   8.294  19.284  0.00  0.00    -0.293 N 
ATOM      6  N   UNL     1      16.167   7.564  20.455  0.00  0.00    -0.294 NA
ATOM      8  C   UNL     1      14.170   8.465  19.716  0.00  0.00    +0.120 C 
ATOM     12  C   UNL     1      14.342   8.930  21.160  0.00  0.00    +0.154 C 
ATOM     13  C   UNL     1      14.977   7.170  19.700  0.00  0.00    +0.110 C 
ATOM     14  C   UNL     1      15.704   8.374  21.589  0.00  0.00    +0.118 C 
ATOM     15  C   UNL     1      11.713   8.309  20.169  0.00  0.00    +0.242 C 
ATOM     16  C   UNL     1      12.055   8.723  21.584  0.00  0.00    +0.256 C 
ENDROOT
BRANCH   5  11
ATOM     11  C   UNL     1      12.565   8.004  17.873  0.00  0.00    +0.111 C 
BRANCH  11   7
ATOM      7  C   UNL     1      12.402   9.259  17.085  0.00  0.00    +0.006 C 
ATOM      9  C   UNL     1      13.200   9.445  15.829  0.00  0.00    +0.005 C 
ATOM     10  C   UNL     1      11.722   9.203  15.748  0.00  0.00    +0.005 C 
ENDBRANCH  11   7
ENDBRANCH   5  11
BRANCH   6  17
ATOM     17  C   UNL     1      16.975   6.427  20.865  0.00  0.00    +0.119 C 
BRANCH  17  18
ATOM     18  C   UNL     1      18.443   6.763  20.890  0.00  0.00    -0.033 A 
ATOM     19  C   UNL     1      18.863   8.015  21.340  0.00  0.00    +0.006 A 
ATOM     20  C   UNL     1      19.381   5.824  20.464  0.00  0.00    +0.006 A 
ATOM     21  C   UNL     1      20.223   8.328  21.363  0.00  0.00    +0.015 A 
ATOM     22  C   UNL     1      20.740   6.137  20.487  0.00  0.00    +0.015 A 
ATOM     23  C   UNL     1      21.162   7.388  20.937  0.00  0.00    +0.059 A 
BRANCH  23  24
ATOM      4  O   UNL     1      23.351   7.621  20.002  0.00  0.00    -0.245 OA
ATOM     24  C   UNL     1      22.578   7.712  20.962  0.00  0.00    +0.337 C 
BRANCH  24   3
ATOM      3  O   UNL     1      22.992   8.145  22.185  0.00  0.00    -0.477 OA
ATOM     25  H   UNL     1      23.187   7.396  22.789  0.00  0.00    +0.295 HD
ENDBRANCH  24   3
ENDBRANCH  23  24
ENDBRANCH  17  18
ENDBRANCH   6  17
TORSDOF 6
ENDMDL
