REMARK  Name = 45783933
REMARK  10 active torsions:
REMARK  status: ('A' for Active; 'I' for Inactive)
REMARK    1  A    between atoms: N_2  and  C_13
REMARK    2  A    between atoms: C_8  and  C_12
REMARK    3  A    between atoms: C_9  and  C_13
REMARK    4  A    between atoms: C_11  and  C_16
REMARK    5  A    between atoms: C_12  and  C_17
REMARK    6  A    between atoms: C_12  and  C_18
REMARK    7  A    between atoms: C_15  and  C_21
REMARK    8  A    between atoms: C_16  and  C_24
REMARK    9  A    between atoms: C_26  and  C_28
REMARK   10  A    between atoms: C_28  and  C_30
REMARK                            x       y       z     vdW  Elec       q    Type
REMARK                         _______ _______ _______ _____ _____    ______ ____
ROOT
ATOM      8  C   UNL     1      -0.232  -0.204   0.219  0.00  0.00    +0.000 C 
ATOM      9  C   UNL     1       1.206   0.138  -0.243  0.00  0.00    +0.029 C 
ATOM     10  C   UNL     1      -1.263   0.386  -0.756  0.00  0.00    +0.012 C 
ATOM     11  C   UNL     1      -1.140   1.917  -0.876  0.00  0.00    +0.024 C 
ATOM     14  C   UNL     1       1.333   1.540  -0.791  0.00  0.00    -0.023 C 
ATOM     15  C   UNL     1       0.298   2.354  -1.067  0.00  0.00    -0.073 C 
ATOM     21  C   UNL     1       0.519   3.732  -1.625  0.00  0.00    +0.039 C 
ENDROOT
BRANCH   8  12
ATOM     12  C   UNL     1      -0.444  -1.716   0.345  0.00  0.00    -0.013 C 
ATOM     17  C   UNL     1      -0.739  -2.328  -1.021  0.00  0.00    +0.007 C 
ATOM     18  C   UNL     1      -1.573  -2.015   1.326  0.00  0.00    +0.007 C 
ENDBRANCH   8  12
BRANCH   9  13
ATOM     13  C   UNL     1       2.214  -0.058   0.895  0.00  0.00    +0.092 C 
BRANCH  13   2
ATOM      2  N   UNL     1       3.580   0.164   0.420  0.00  0.00    -0.299 NA
ATOM      3  N   UNL     1       6.389  -0.322   0.239  0.00  0.00    -0.313 N 
ATOM      6  N   UNL     1       8.536   0.665   0.105  0.00  0.00    -0.240 NA
ATOM     19  C   UNL     1       4.465   0.506   1.540  0.00  0.00    +0.103 C 
ATOM     20  C   UNL     1       4.085  -1.030  -0.270  0.00  0.00    +0.103 C 
ATOM     22  C   UNL     1       5.885   0.796   1.048  0.00  0.00    +0.122 C 
ATOM     23  C   UNL     1       5.493  -0.791  -0.822  0.00  0.00    +0.122 C 
ATOM     25  C   UNL     1       7.774  -0.451   0.086  0.00  0.00    +0.121 A 
ATOM     27  C   UNL     1       8.277  -1.732  -0.077  0.00  0.00    +0.043 A 
ATOM     29  C   UNL     1       9.651  -1.876  -0.230  0.00  0.00    +0.005 A 
ATOM     31  C   UNL     1       9.867   0.486  -0.048  0.00  0.00    +0.113 A 
ATOM     32  C   UNL     1      10.469  -0.751  -0.217  0.00  0.00    +0.020 A 
ENDBRANCH  13   2
ENDBRANCH   9  13
BRANCH  11  16
ATOM     16  C   UNL     1      -1.772   2.619   0.331  0.00  0.00    +0.105 C 
BRANCH  16  24
ATOM      1  O   UNL     1      -3.935   1.733   1.032  0.00  0.00    -0.424 OA
ATOM      4  N   UNL     1      -4.063   3.362  -0.496  0.00  0.00    -0.112 NA
ATOM      5  N   UNL     1      -5.350   2.957  -0.195  0.00  0.00    -0.112 NA
ATOM     24  C   UNL     1      -3.271   2.622   0.243  0.00  0.00    +0.218 A 
ATOM     26  C   UNL     1      -5.227   2.005   0.701  0.00  0.00    +0.222 A 
BRANCH  26  28
ATOM     28  C   UNL     1      -6.264   1.214   1.375  0.00  0.00    +0.135 C 
BRANCH  28  30
ATOM      7  N   UNL     1      -5.888  -2.455   1.649  0.00  0.00    -0.360 N 
ATOM     30  C   UNL     1      -6.131  -0.295   1.200  0.00  0.00    -0.013 A 
ATOM     33  C   UNL     1      -6.152  -1.010  -0.030  0.00  0.00    +0.003 A 
ATOM     34  C   UNL     1      -5.968  -1.210   2.214  0.00  0.00    +0.087 A 
ATOM     35  C   UNL     1      -5.998  -2.363   0.280  0.00  0.00    +0.047 A 
ATOM     36  C   UNL     1      -6.287  -0.635  -1.382  0.00  0.00    +0.010 A 
ATOM     37  C   UNL     1      -5.972  -3.364  -0.698  0.00  0.00    +0.026 A 
ATOM     38  C   UNL     1      -6.264  -1.625  -2.370  0.00  0.00    +0.001 A 
ATOM     39  C   UNL     1      -6.109  -2.968  -2.032  0.00  0.00    +0.002 A 
ATOM     40  H   UNL     1      -5.766  -3.317   2.162  0.00  0.00    +0.165 HD
ENDBRANCH  28  30
ENDBRANCH  26  28
ENDBRANCH  16  24
ENDBRANCH  11  16
TORSDOF 7
