MODEL 1
REMARK VINA RESULT:      -7.5      0.000      0.000
REMARK  Name = 45783364
REMARK  11 active torsions:
REMARK  status: ('A' for Active; 'I' for Inactive)
REMARK    1  A    between atoms: O_2  and  C_26
REMARK    2  A    between atoms: O_2  and  C_30
REMARK    3  A    between atoms: O_4  and  C_31
REMARK    4  A    between atoms: O_4  and  C_32
REMARK    5  A    between atoms: N_5  and  C_14
REMARK    6  A    between atoms: N_8  and  C_22
REMARK    7  A    between atoms: C_10  and  C_15
REMARK    8  A    between atoms: C_14  and  C_16
REMARK    9  A    between atoms: C_19  and  C_23
REMARK   10  A    between atoms: C_28  and  C_29
REMARK   11  A    between atoms: C_30  and  C_31
REMARK                            x       y       z     vdW  Elec       q    Type
REMARK                         _______ _______ _______ _____ _____    ______ ____
ROOT
ATOM      5  N   UNL     1      12.894   8.365  18.914  0.00  0.00    -0.287 NA
ATOM     10  C   UNL     1      13.779   7.258  18.503  0.00  0.00    +0.146 C 
ATOM     11  C   UNL     1      14.275   7.655  17.099  0.00  0.00    +0.030 C 
ATOM     12  C   UNL     1      13.567   8.964  16.783  0.00  0.00    +0.017 C 
ATOM     13  C   UNL     1      12.348   8.937  17.683  0.00  0.00    +0.085 C 
ENDROOT
BRANCH  10  15
ATOM      1  O   UNL     1      14.576   6.506  20.687  0.00  0.00    -0.336 OA
ATOM      6  N   UNL     1      16.195   7.260  19.335  0.00  0.00    -0.190 NA
ATOM      7  N   UNL     1      15.773   6.387  21.407  0.00  0.00    -0.056 NA
ATOM     15  C   UNL     1      14.914   7.027  19.479  0.00  0.00    +0.245 A 
ATOM     19  C   UNL     1      16.680   6.851  20.542  0.00  0.00    +0.202 A 
BRANCH  19  23
ATOM      9  N   UNL     1      20.805   7.051  21.458  0.00  0.00    -0.221 NA
ATOM     23  C   UNL     1      18.079   6.918  20.853  0.00  0.00    +0.029 A 
ATOM     24  C   UNL     1      18.944   5.932  20.393  0.00  0.00    +0.079 A 
ATOM     25  C   UNL     1      18.575   7.970  21.614  0.00  0.00    +0.031 A 
ATOM     26  C   UNL     1      20.286   6.043  20.720  0.00  0.00    +0.215 A 
ATOM     27  C   UNL     1      19.933   7.990  21.887  0.00  0.00    +0.115 A 
BRANCH  26   2
ATOM      2  O   UNL     1      21.159   5.083  20.279  0.00  0.00    -0.474 OA
BRANCH   2  30
ATOM     30  C   UNL     1      21.336   3.947  21.117  0.00  0.00    +0.258 C 
BRANCH  30  31
ATOM     31  C   UNL     1      22.801   3.551  21.111  0.00  0.00    +0.200 C 
BRANCH  31   4
ATOM      4  O   UNL     1      23.573   4.642  20.624  0.00  0.00    -0.380 OA
ATOM     32  C   UNL     1      24.640   4.195  19.796  0.00  0.00    +0.194 C 
ENDBRANCH  31   4
ENDBRANCH  30  31
ENDBRANCH   2  30
ENDBRANCH  26   2
ENDBRANCH  19  23
ENDBRANCH  10  15
BRANCH   5  14
ATOM     14  C   UNL     1      11.845   7.948  19.836  0.00  0.00    +0.120 C 
BRANCH  14  16
ATOM     16  C   UNL     1      11.529   9.018  20.847  0.00  0.00    -0.033 A 
ATOM     17  C   UNL     1      10.764   8.712  21.972  0.00  0.00    +0.007 A 
ATOM     18  C   UNL     1      12.002  10.318  20.659  0.00  0.00    +0.007 A 
ATOM     20  C   UNL     1      10.471   9.703  22.908  0.00  0.00    +0.023 A 
ATOM     21  C   UNL     1      11.709  11.309  21.594  0.00  0.00    +0.023 A 
ATOM     22  C   UNL     1      10.944  11.002  22.719  0.00  0.00    +0.033 A 
BRANCH  22   8
ATOM      3  O   UNL     1      12.074  11.492  25.467  0.00  0.00    -0.276 OA
ATOM      8  N   UNL     1      10.650  11.995  23.656  0.00  0.00    -0.286 N 
ATOM     28  C   UNL     1      11.209  12.175  24.928  0.00  0.00    +0.214 C 
ATOM     29  C   UNL     1      10.619  13.371  25.633  0.00  0.00    +0.109 C 
ATOM     33  H   UNL     1       9.940  12.665  23.370  0.00  0.00    +0.155 HD
ENDBRANCH  22   8
ENDBRANCH  14  16
ENDBRANCH   5  14
TORSDOF 9
ENDMDL
MODEL 2
REMARK VINA RESULT:      -7.3      1.221      1.590
REMARK  Name = 45783364
REMARK  11 active torsions:
REMARK  status: ('A' for Active; 'I' for Inactive)
REMARK    1  A    between atoms: O_2  and  C_26
REMARK    2  A    between atoms: O_2  and  C_30
REMARK    3  A    between atoms: O_4  and  C_31
REMARK    4  A    between atoms: O_4  and  C_32
REMARK    5  A    between atoms: N_5  and  C_14
REMARK    6  A    between atoms: N_8  and  C_22
REMARK    7  A    between atoms: C_10  and  C_15
REMARK    8  A    between atoms: C_14  and  C_16
REMARK    9  A    between atoms: C_19  and  C_23
REMARK   10  A    between atoms: C_28  and  C_29
REMARK   11  A    between atoms: C_30  and  C_31
REMARK                            x       y       z     vdW  Elec       q    Type
REMARK                         _______ _______ _______ _____ _____    ______ ____
ROOT
ATOM      5  N   UNL     1      13.342   8.261  19.211  0.00  0.00    -0.287 NA
ATOM     10  C   UNL     1      14.129   7.233  18.501  0.00  0.00    +0.146 C 
ATOM     11  C   UNL     1      14.204   7.733  17.046  0.00  0.00    +0.030 C 
ATOM     12  C   UNL     1      13.381   9.013  17.022  0.00  0.00    +0.017 C 
ATOM     13  C   UNL     1      12.457   8.865  18.214  0.00  0.00    +0.085 C 
ENDROOT
BRANCH  10  15
ATOM      1  O   UNL     1      16.251   6.024  18.582  0.00  0.00    -0.336 OA
ATOM      6  N   UNL     1      16.072   7.656  20.104  0.00  0.00    -0.190 NA
ATOM      7  N   UNL     1      17.451   6.016  19.305  0.00  0.00    -0.056 NA
ATOM     15  C   UNL     1      15.496   7.019  19.116  0.00  0.00    +0.245 A 
ATOM     19  C   UNL     1      17.268   7.006  20.183  0.00  0.00    +0.202 A 
BRANCH  19  23
ATOM      9  N   UNL     1      20.199   8.088  23.035  0.00  0.00    -0.221 NA
ATOM     23  C   UNL     1      18.262   7.373  21.151  0.00  0.00    +0.029 A 
ATOM     24  C   UNL     1      19.057   6.396  21.739  0.00  0.00    +0.079 A 
ATOM     25  C   UNL     1      18.434   8.706  21.503  0.00  0.00    +0.031 A 
ATOM     26  C   UNL     1      20.003   6.802  22.668  0.00  0.00    +0.215 A 
ATOM     27  C   UNL     1      19.407   9.009  22.442  0.00  0.00    +0.115 A 
BRANCH  26   2
ATOM      2  O   UNL     1      20.799   5.857  23.262  0.00  0.00    -0.474 OA
BRANCH   2  30
ATOM     30  C   UNL     1      21.994   5.507  22.576  0.00  0.00    +0.258 C 
BRANCH  30  31
ATOM     31  C   UNL     1      22.011   4.008  22.344  0.00  0.00    +0.200 C 
BRANCH  31   4
ATOM      4  O   UNL     1      22.704   3.734  21.133  0.00  0.00    -0.380 OA
ATOM     32  C   UNL     1      23.356   2.471  21.180  0.00  0.00    +0.194 C 
ENDBRANCH  31   4
ENDBRANCH  30  31
ENDBRANCH   2  30
ENDBRANCH  26   2
ENDBRANCH  19  23
ENDBRANCH  10  15
BRANCH   5  14
ATOM     14  C   UNL     1      12.605   7.734  20.351  0.00  0.00    +0.120 C 
BRANCH  14  16
ATOM     16  C   UNL     1      12.112   8.831  21.256  0.00  0.00    -0.033 A 
ATOM     17  C   UNL     1      12.852  10.006  21.395  0.00  0.00    +0.007 A 
ATOM     18  C   UNL     1      10.915   8.675  21.955  0.00  0.00    +0.007 A 
ATOM     20  C   UNL     1      12.396  11.023  22.233  0.00  0.00    +0.023 A 
ATOM     21  C   UNL     1      10.459   9.691  22.794  0.00  0.00    +0.023 A 
ATOM     22  C   UNL     1      11.199  10.865  22.932  0.00  0.00    +0.033 A 
BRANCH  22   8
ATOM      3  O   UNL     1      12.180  11.756  25.636  0.00  0.00    -0.276 OA
ATOM      8  N   UNL     1      10.742  11.883  23.772  0.00  0.00    -0.286 N 
ATOM     28  C   UNL     1      11.239  12.254  25.029  0.00  0.00    +0.214 C 
ATOM     29  C   UNL     1      10.465  13.408  25.616  0.00  0.00    +0.109 C 
ATOM     33  H   UNL     1       9.950  12.414  23.419  0.00  0.00    +0.155 HD
ENDBRANCH  22   8
ENDBRANCH  14  16
ENDBRANCH   5  14
TORSDOF 9
ENDMDL
MODEL 3
REMARK VINA RESULT:      -7.0     26.526     30.179
REMARK  Name = 45783364
REMARK  11 active torsions:
REMARK  status: ('A' for Active; 'I' for Inactive)
REMARK    1  A    between atoms: O_2  and  C_26
REMARK    2  A    between atoms: O_2  and  C_30
REMARK    3  A    between atoms: O_4  and  C_31
REMARK    4  A    between atoms: O_4  and  C_32
REMARK    5  A    between atoms: N_5  and  C_14
REMARK    6  A    between atoms: N_8  and  C_22
REMARK    7  A    between atoms: C_10  and  C_15
REMARK    8  A    between atoms: C_14  and  C_16
REMARK    9  A    between atoms: C_19  and  C_23
REMARK   10  A    between atoms: C_28  and  C_29
REMARK   11  A    between atoms: C_30  and  C_31
REMARK                            x       y       z     vdW  Elec       q    Type
REMARK                         _______ _______ _______ _____ _____    ______ ____
ROOT
ATOM      5  N   UNL     1      -3.109 -10.552  14.286  0.00  0.00    -0.287 NA
ATOM     10  C   UNL     1      -2.978 -11.241  15.584  0.00  0.00    +0.146 C 
ATOM     11  C   UNL     1      -1.649 -10.725  16.168  0.00  0.00    +0.030 C 
ATOM     12  C   UNL     1      -1.078  -9.801  15.103  0.00  0.00    +0.017 C 
ATOM     13  C   UNL     1      -1.748 -10.271  13.828  0.00  0.00    +0.085 C 
ENDROOT
BRANCH  10  15
ATOM      1  O   UNL     1      -3.943 -11.180  17.828  0.00  0.00    -0.336 OA
ATOM      6  N   UNL     1      -5.372 -10.604  16.202  0.00  0.00    -0.190 NA
ATOM      7  N   UNL     1      -5.159 -10.889  18.462  0.00  0.00    -0.056 NA
ATOM     15  C   UNL     1      -4.157 -10.987  16.500  0.00  0.00    +0.245 A 
ATOM     19  C   UNL     1      -5.950 -10.558  17.438  0.00  0.00    +0.202 A 
BRANCH  19  23
ATOM      9  N   UNL     1      -9.993  -9.428  17.957  0.00  0.00    -0.221 NA
ATOM     23  C   UNL     1      -7.321 -10.174  17.614  0.00  0.00    +0.029 A 
ATOM     24  C   UNL     1      -7.863  -9.148  16.847  0.00  0.00    +0.079 A 
ATOM     25  C   UNL     1      -8.113 -10.827  18.551  0.00  0.00    +0.031 A 
ATOM     26  C   UNL     1      -9.192  -8.816  17.056  0.00  0.00    +0.215 A 
ATOM     27  C   UNL     1      -9.431 -10.420  18.683  0.00  0.00    +0.115 A 
BRANCH  26   2
ATOM      2  O   UNL     1      -9.749  -7.808  16.313  0.00  0.00    -0.474 OA
BRANCH   2  30
ATOM     30  C   UNL     1     -10.991  -7.287  16.772  0.00  0.00    +0.258 C 
BRANCH  30  31
ATOM     31  C   UNL     1     -11.263  -5.968  16.074  0.00  0.00    +0.200 C 
BRANCH  31   4
ATOM      4  O   UNL     1     -12.537  -6.032  15.444  0.00  0.00    -0.380 OA
ATOM     32  C   UNL     1     -12.534  -5.354  14.194  0.00  0.00    +0.194 C 
ENDBRANCH  31   4
ENDBRANCH  30  31
ENDBRANCH   2  30
ENDBRANCH  26   2
ENDBRANCH  19  23
ENDBRANCH  10  15
BRANCH   5  14
ATOM     14  C   UNL     1      -3.871 -11.314  13.305  0.00  0.00    +0.120 C 
BRANCH  14  16
ATOM     16  C   UNL     1      -4.490 -10.424  12.261  0.00  0.00    -0.033 A 
ATOM     17  C   UNL     1      -3.944 -10.368  10.979  0.00  0.00    +0.007 A 
ATOM     18  C   UNL     1      -5.610  -9.654  12.575  0.00  0.00    +0.007 A 
ATOM     20  C   UNL     1      -4.517  -9.544  10.011  0.00  0.00    +0.023 A 
ATOM     21  C   UNL     1      -6.183  -8.828  11.609  0.00  0.00    +0.023 A 
ATOM     22  C   UNL     1      -5.637  -8.774  10.326  0.00  0.00    +0.033 A 
BRANCH  22   8
ATOM      3  O   UNL     1      -8.349  -8.882   9.021  0.00  0.00    -0.276 OA
ATOM      8  N   UNL     1      -6.211  -7.947   9.358  0.00  0.00    -0.286 N 
ATOM     28  C   UNL     1      -7.484  -8.046   8.782  0.00  0.00    +0.214 C 
ATOM     29  C   UNL     1      -7.724  -6.955   7.769  0.00  0.00    +0.109 C 
ATOM     33  H   UNL     1      -5.622  -7.182   9.037  0.00  0.00    +0.155 HD
ENDBRANCH  22   8
ENDBRANCH  14  16
ENDBRANCH   5  14
TORSDOF 9
ENDMDL
MODEL 4
REMARK VINA RESULT:      -6.9     26.581     30.032
REMARK  Name = 45783364
REMARK  11 active torsions:
REMARK  status: ('A' for Active; 'I' for Inactive)
REMARK    1  A    between atoms: O_2  and  C_26
REMARK    2  A    between atoms: O_2  and  C_30
REMARK    3  A    between atoms: O_4  and  C_31
REMARK    4  A    between atoms: O_4  and  C_32
REMARK    5  A    between atoms: N_5  and  C_14
REMARK    6  A    between atoms: N_8  and  C_22
REMARK    7  A    between atoms: C_10  and  C_15
REMARK    8  A    between atoms: C_14  and  C_16
REMARK    9  A    between atoms: C_19  and  C_23
REMARK   10  A    between atoms: C_28  and  C_29
REMARK   11  A    between atoms: C_30  and  C_31
REMARK                            x       y       z     vdW  Elec       q    Type
REMARK                         _______ _______ _______ _____ _____    ______ ____
ROOT
ATOM      5  N   UNL     1      -2.706 -10.625  13.713  0.00  0.00    -0.287 NA
ATOM     10  C   UNL     1      -2.486 -11.605  14.795  0.00  0.00    +0.146 C 
ATOM     11  C   UNL     1      -1.448 -10.941  15.719  0.00  0.00    +0.030 C 
ATOM     12  C   UNL     1      -1.098  -9.623  15.044  0.00  0.00    +0.017 C 
ATOM     13  C   UNL     1      -1.465  -9.858  13.593  0.00  0.00    +0.085 C 
ENDROOT
BRANCH  10  15
ATOM      1  O   UNL     1      -4.360 -13.132  15.151  0.00  0.00    -0.336 OA
ATOM      6  N   UNL     1      -4.399 -11.317  16.463  0.00  0.00    -0.190 NA
ATOM      7  N   UNL     1      -5.508 -13.250  15.946  0.00  0.00    -0.056 NA
ATOM     15  C   UNL     1      -3.766 -11.968  15.520  0.00  0.00    +0.245 A 
ATOM     19  C   UNL     1      -5.461 -12.143  16.692  0.00  0.00    +0.202 A 
BRANCH  19  23
ATOM      9  N   UNL     1      -8.399 -11.229  19.595  0.00  0.00    -0.221 NA
ATOM     23  C   UNL     1      -6.457 -11.832  17.676  0.00  0.00    +0.029 A 
ATOM     24  C   UNL     1      -7.432 -10.877  17.407  0.00  0.00    +0.079 A 
ATOM     25  C   UNL     1      -6.454 -12.486  18.903  0.00  0.00    +0.031 A 
ATOM     26  C   UNL     1      -8.371 -10.614  18.391  0.00  0.00    +0.215 A 
ATOM     27  C   UNL     1      -7.437 -12.151  19.820  0.00  0.00    +0.115 A 
BRANCH  26   2
ATOM      2  O   UNL     1      -9.342  -9.677  18.148  0.00  0.00    -0.474 OA
BRANCH   2  30
ATOM     30  C   UNL     1      -9.060  -8.713  17.141  0.00  0.00    +0.258 C 
BRANCH  30  31
ATOM     31  C   UNL     1     -10.193  -7.705  17.090  0.00  0.00    +0.200 C 
BRANCH  31   4
ATOM      4  O   UNL     1     -10.473  -7.392  15.731  0.00  0.00    -0.380 OA
ATOM     32  C   UNL     1     -10.857  -6.031  15.579  0.00  0.00    +0.194 C 
ENDBRANCH  31   4
ENDBRANCH  30  31
ENDBRANCH   2  30
ENDBRANCH  26   2
ENDBRANCH  19  23
ENDBRANCH  10  15
BRANCH   5  14
ATOM     14  C   UNL     1      -3.095 -11.240  12.451  0.00  0.00    +0.120 C 
BRANCH  14  16
ATOM     16  C   UNL     1      -3.893 -10.298  11.591  0.00  0.00    -0.033 A 
ATOM     17  C   UNL     1      -5.100  -9.777  12.060  0.00  0.00    +0.007 A 
ATOM     18  C   UNL     1      -3.428  -9.944  10.324  0.00  0.00    +0.007 A 
ATOM     20  C   UNL     1      -5.840  -8.904  11.264  0.00  0.00    +0.023 A 
ATOM     21  C   UNL     1      -4.169  -9.072   9.527  0.00  0.00    +0.023 A 
ATOM     22  C   UNL     1      -5.374  -8.552   9.997  0.00  0.00    +0.033 A 
BRANCH  22   8
ATOM      3  O   UNL     1      -8.086  -8.885   8.732  0.00  0.00    -0.276 OA
ATOM      8  N   UNL     1      -6.116  -7.678   9.199  0.00  0.00    -0.286 N 
ATOM     28  C   UNL     1      -7.380  -7.888   8.632  0.00  0.00    +0.214 C 
ATOM     29  C   UNL     1      -7.838  -6.694   7.832  0.00  0.00    +0.109 C 
ATOM     33  H   UNL     1      -5.673  -6.782   9.010  0.00  0.00    +0.155 HD
ENDBRANCH  22   8
ENDBRANCH  14  16
ENDBRANCH   5  14
TORSDOF 9
ENDMDL
MODEL 5
REMARK VINA RESULT:      -6.8      4.039      9.593
REMARK  Name = 45783364
REMARK  11 active torsions:
REMARK  status: ('A' for Active; 'I' for Inactive)
REMARK    1  A    between atoms: O_2  and  C_26
REMARK    2  A    between atoms: O_2  and  C_30
REMARK    3  A    between atoms: O_4  and  C_31
REMARK    4  A    between atoms: O_4  and  C_32
REMARK    5  A    between atoms: N_5  and  C_14
REMARK    6  A    between atoms: N_8  and  C_22
REMARK    7  A    between atoms: C_10  and  C_15
REMARK    8  A    between atoms: C_14  and  C_16
REMARK    9  A    between atoms: C_19  and  C_23
REMARK   10  A    between atoms: C_28  and  C_29
REMARK   11  A    between atoms: C_30  and  C_31
REMARK                            x       y       z     vdW  Elec       q    Type
REMARK                         _______ _______ _______ _____ _____    ______ ____
ROOT
ATOM      5  N   UNL     1      13.440   7.892  20.320  0.00  0.00    -0.287 NA
ATOM     10  C   UNL     1      12.318   8.259  19.434  0.00  0.00    +0.146 C 
ATOM     11  C   UNL     1      11.467   9.237  20.266  0.00  0.00    +0.030 C 
ATOM     12  C   UNL     1      12.153   9.309  21.622  0.00  0.00    +0.017 C 
ATOM     13  C   UNL     1      12.941   8.016  21.691  0.00  0.00    +0.085 C 
ENDROOT
BRANCH  10  15
ATOM      1  O   UNL     1      12.426   8.197  16.993  0.00  0.00    -0.336 OA
ATOM      6  N   UNL     1      13.496   9.938  17.911  0.00  0.00    -0.190 NA
ATOM      7  N   UNL     1      12.966   8.930  15.927  0.00  0.00    -0.056 NA
ATOM     15  C   UNL     1      12.785   8.860  18.124  0.00  0.00    +0.245 A 
ATOM     19  C   UNL     1      13.580   9.940  16.549  0.00  0.00    +0.202 A 
BRANCH  19  23
ATOM      9  N   UNL     1      15.662  12.972  14.459  0.00  0.00    -0.221 NA
ATOM     23  C   UNL     1      14.286  10.968  15.840  0.00  0.00    +0.029 A 
ATOM     24  C   UNL     1      13.731  11.536  14.698  0.00  0.00    +0.079 A 
ATOM     25  C   UNL     1      15.527  11.401  16.292  0.00  0.00    +0.031 A 
ATOM     26  C   UNL     1      14.453  12.525  14.050  0.00  0.00    +0.215 A 
ATOM     27  C   UNL     1      16.169  12.396  15.572  0.00  0.00    +0.115 A 
BRANCH  26   2
ATOM      2  O   UNL     1      13.927  13.101  12.923  0.00  0.00    -0.474 OA
BRANCH   2  30
ATOM     30  C   UNL     1      12.515  13.023  12.766  0.00  0.00    +0.258 C 
BRANCH  30  31
ATOM     31  C   UNL     1      12.200  12.417  11.412  0.00  0.00    +0.200 C 
BRANCH  31   4
ATOM      4  O   UNL     1      10.955  11.733  11.489  0.00  0.00    -0.380 OA
ATOM     32  C   UNL     1      10.248  12.071  12.676  0.00  0.00    +0.194 C 
ENDBRANCH  31   4
ENDBRANCH  30  31
ENDBRANCH   2  30
ENDBRANCH  26   2
ENDBRANCH  19  23
ENDBRANCH  10  15
BRANCH   5  14
ATOM     14  C   UNL     1      13.974   6.564  20.050  0.00  0.00    +0.120 C 
BRANCH  14  16
ATOM     16  C   UNL     1      15.477   6.538  20.126  0.00  0.00    -0.033 A 
ATOM     17  C   UNL     1      16.222   6.064  19.046  0.00  0.00    +0.007 A 
ATOM     18  C   UNL     1      16.126   6.988  21.276  0.00  0.00    +0.007 A 
ATOM     20  C   UNL     1      17.615   6.039  19.116  0.00  0.00    +0.023 A 
ATOM     21  C   UNL     1      17.518   6.962  21.347  0.00  0.00    +0.023 A 
ATOM     22  C   UNL     1      18.263   6.489  20.266  0.00  0.00    +0.033 A 
BRANCH  22   8
ATOM      3  O   UNL     1      20.173   4.164  20.376  0.00  0.00    -0.276 OA
ATOM      8  N   UNL     1      19.657   6.464  20.337  0.00  0.00    -0.286 N 
ATOM     28  C   UNL     1      20.500   5.346  20.388  0.00  0.00    +0.214 C 
ATOM     29  C   UNL     1      21.953   5.745  20.460  0.00  0.00    +0.109 C 
ATOM     33  H   UNL     1      20.107   7.376  20.355  0.00  0.00    +0.155 HD
ENDBRANCH  22   8
ENDBRANCH  14  16
ENDBRANCH   5  14
TORSDOF 9
ENDMDL
MODEL 6
REMARK VINA RESULT:      -6.7      4.869      9.657
REMARK  Name = 45783364
REMARK  11 active torsions:
REMARK  status: ('A' for Active; 'I' for Inactive)
REMARK    1  A    between atoms: O_2  and  C_26
REMARK    2  A    between atoms: O_2  and  C_30
REMARK    3  A    between atoms: O_4  and  C_31
REMARK    4  A    between atoms: O_4  and  C_32
REMARK    5  A    between atoms: N_5  and  C_14
REMARK    6  A    between atoms: N_8  and  C_22
REMARK    7  A    between atoms: C_10  and  C_15
REMARK    8  A    between atoms: C_14  and  C_16
REMARK    9  A    between atoms: C_19  and  C_23
REMARK   10  A    between atoms: C_28  and  C_29
REMARK   11  A    between atoms: C_30  and  C_31
REMARK                            x       y       z     vdW  Elec       q    Type
REMARK                         _______ _______ _______ _____ _____    ______ ____
ROOT
ATOM      5  N   UNL     1      15.682  12.301  14.680  0.00  0.00    -0.287 NA
ATOM     10  C   UNL     1      14.304  12.021  15.131  0.00  0.00    +0.146 C 
ATOM     11  C   UNL     1      13.440  12.171  13.865  0.00  0.00    +0.030 C 
ATOM     12  C   UNL     1      14.408  12.597  12.770  0.00  0.00    +0.017 C 
ATOM     13  C   UNL     1      15.566  13.205  13.536  0.00  0.00    +0.085 C 
ENDROOT
BRANCH  10  15
ATOM      1  O   UNL     1      14.044   9.600  14.926  0.00  0.00    -0.336 OA
ATOM      6  N   UNL     1      14.150  10.331  17.040  0.00  0.00    -0.190 NA
ATOM      7  N   UNL     1      13.932   8.463  15.737  0.00  0.00    -0.056 NA
ATOM     15  C   UNL     1      14.168  10.655  15.772  0.00  0.00    +0.245 A 
ATOM     19  C   UNL     1      14.004   8.976  16.969  0.00  0.00    +0.202 A 
BRANCH  19  23
ATOM      9  N   UNL     1      13.800   6.578  20.448  0.00  0.00    -0.221 NA
ATOM     23  C   UNL     1      13.934   8.163  18.149  0.00  0.00    +0.029 A 
ATOM     24  C   UNL     1      12.710   7.665  18.583  0.00  0.00    +0.079 A 
ATOM     25  C   UNL     1      15.090   7.869  18.863  0.00  0.00    +0.031 A 
ATOM     26  C   UNL     1      12.698   6.885  19.728  0.00  0.00    +0.215 A 
ATOM     27  C   UNL     1      14.971   7.080  19.995  0.00  0.00    +0.115 A 
BRANCH  26   2
ATOM      2  O   UNL     1      11.503   6.383  20.176  0.00  0.00    -0.474 OA
BRANCH   2  30
ATOM     30  C   UNL     1      11.295   6.390  21.583  0.00  0.00    +0.258 C 
BRANCH  30  31
ATOM     31  C   UNL     1      10.565   7.662  21.970  0.00  0.00    +0.200 C 
BRANCH  31   4
ATOM      4  O   UNL     1      11.490   8.566  22.561  0.00  0.00    -0.380 OA
ATOM     32  C   UNL     1      10.925   9.862  22.716  0.00  0.00    +0.194 C 
ENDBRANCH  31   4
ENDBRANCH  30  31
ENDBRANCH   2  30
ENDBRANCH  26   2
ENDBRANCH  19  23
ENDBRANCH  10  15
BRANCH   5  14
ATOM     14  C   UNL     1      16.529  12.851  15.730  0.00  0.00    +0.120 C 
BRANCH  14  16
ATOM     16  C   UNL     1      17.972  12.465  15.546  0.00  0.00    -0.033 A 
ATOM     17  C   UNL     1      18.342  11.630  14.492  0.00  0.00    +0.007 A 
ATOM     18  C   UNL     1      18.940  12.943  16.429  0.00  0.00    +0.007 A 
ATOM     20  C   UNL     1      19.679  11.272  14.321  0.00  0.00    +0.023 A 
ATOM     21  C   UNL     1      20.277  12.584  16.259  0.00  0.00    +0.023 A 
ATOM     22  C   UNL     1      20.646  11.750  15.205  0.00  0.00    +0.033 A 
BRANCH  22   8
ATOM      3  O   UNL     1      22.542  10.330  17.065  0.00  0.00    -0.276 OA
ATOM      8  N   UNL     1      21.985  11.391  15.035  0.00  0.00    -0.286 N 
ATOM     28  C   UNL     1      22.824  10.729  15.940  0.00  0.00    +0.214 C 
ATOM     29  C   UNL     1      24.208  10.528  15.374  0.00  0.00    +0.109 C 
ATOM     33  H   UNL     1      22.393  11.649  14.138  0.00  0.00    +0.155 HD
ENDBRANCH  22   8
ENDBRANCH  14  16
ENDBRANCH   5  14
TORSDOF 9
ENDMDL
MODEL 7
REMARK VINA RESULT:      -6.6      1.655      2.096
REMARK  Name = 45783364
REMARK  11 active torsions:
REMARK  status: ('A' for Active; 'I' for Inactive)
REMARK    1  A    between atoms: O_2  and  C_26
REMARK    2  A    between atoms: O_2  and  C_30
REMARK    3  A    between atoms: O_4  and  C_31
REMARK    4  A    between atoms: O_4  and  C_32
REMARK    5  A    between atoms: N_5  and  C_14
REMARK    6  A    between atoms: N_8  and  C_22
REMARK    7  A    between atoms: C_10  and  C_15
REMARK    8  A    between atoms: C_14  and  C_16
REMARK    9  A    between atoms: C_19  and  C_23
REMARK   10  A    between atoms: C_28  and  C_29
REMARK   11  A    between atoms: C_30  and  C_31
REMARK                            x       y       z     vdW  Elec       q    Type
REMARK                         _______ _______ _______ _____ _____    ______ ____
ROOT
ATOM      5  N   UNL     1      14.244   8.955  18.368  0.00  0.00    -0.287 NA
ATOM     10  C   UNL     1      14.270   8.003  19.496  0.00  0.00    +0.146 C 
ATOM     11  C   UNL     1      13.107   7.033  19.216  0.00  0.00    +0.030 C 
ATOM     12  C   UNL     1      12.449   7.556  17.947  0.00  0.00    +0.017 C 
ATOM     13  C   UNL     1      12.855   9.016  17.911  0.00  0.00    +0.085 C 
ENDROOT
BRANCH  10  15
ATOM      1  O   UNL     1      15.869   6.332  18.707  0.00  0.00    -0.336 OA
ATOM      6  N   UNL     1      16.553   7.470  20.511  0.00  0.00    -0.190 NA
ATOM      7  N   UNL     1      17.135   5.827  19.030  0.00  0.00    -0.056 NA
ATOM     15  C   UNL     1      15.602   7.295  19.628  0.00  0.00    +0.245 A 
ATOM     19  C   UNL     1      17.472   6.547  20.103  0.00  0.00    +0.202 A 
BRANCH  19  23
ATOM      9  N   UNL     1      21.149   6.034  22.131  0.00  0.00    -0.221 NA
ATOM     23  C   UNL     1      18.719   6.373  20.791  0.00  0.00    +0.029 A 
ATOM     24  C   UNL     1      19.664   5.476  20.305  0.00  0.00    +0.079 A 
ATOM     25  C   UNL     1      18.987   7.100  21.944  0.00  0.00    +0.031 A 
ATOM     26  C   UNL     1      20.853   5.345  21.006  0.00  0.00    +0.215 A 
ATOM     27  C   UNL     1      20.205   6.896  22.572  0.00  0.00    +0.115 A 
BRANCH  26   2
ATOM      2  O   UNL     1      21.800   4.467  20.547  0.00  0.00    -0.474 OA
BRANCH   2  30
ATOM     30  C   UNL     1      22.034   3.308  21.339  0.00  0.00    +0.258 C 
BRANCH  30  31
ATOM     31  C   UNL     1      23.505   2.947  21.266  0.00  0.00    +0.200 C 
BRANCH  31   4
ATOM      4  O   UNL     1      23.628   1.572  20.925  0.00  0.00    -0.380 OA
ATOM     32  C   UNL     1      24.841   1.019  21.421  0.00  0.00    +0.194 C 
ENDBRANCH  31   4
ENDBRANCH  30  31
ENDBRANCH   2  30
ENDBRANCH  26   2
ENDBRANCH  19  23
ENDBRANCH  10  15
BRANCH   5  14
ATOM     14  C   UNL     1      14.764  10.271  18.716  0.00  0.00    +0.120 C 
BRANCH  14  16
ATOM     16  C   UNL     1      14.091  10.835  19.938  0.00  0.00    -0.033 A 
ATOM     17  C   UNL     1      14.624  10.589  21.204  0.00  0.00    +0.007 A 
ATOM     18  C   UNL     1      12.935  11.604  19.807  0.00  0.00    +0.007 A 
ATOM     20  C   UNL     1      14.001  11.110  22.337  0.00  0.00    +0.023 A 
ATOM     21  C   UNL     1      12.311  12.125  20.940  0.00  0.00    +0.023 A 
ATOM     22  C   UNL     1      12.844  11.879  22.205  0.00  0.00    +0.033 A 
BRANCH  22   8
ATOM      3  O   UNL     1      10.888  10.617  24.115  0.00  0.00    -0.276 OA
ATOM      8  N   UNL     1      12.220  12.401  23.340  0.00  0.00    -0.286 N 
ATOM     28  C   UNL     1      11.311  11.765  24.195  0.00  0.00    +0.214 C 
ATOM     29  C   UNL     1      10.864  12.676  25.311  0.00  0.00    +0.109 C 
ATOM     33  H   UNL     1      12.461  13.364  23.563  0.00  0.00    +0.155 HD
ENDBRANCH  22   8
ENDBRANCH  14  16
ENDBRANCH   5  14
TORSDOF 9
ENDMDL
MODEL 8
REMARK VINA RESULT:      -6.6     27.690     30.094
REMARK  Name = 45783364
REMARK  11 active torsions:
REMARK  status: ('A' for Active; 'I' for Inactive)
REMARK    1  A    between atoms: O_2  and  C_26
REMARK    2  A    between atoms: O_2  and  C_30
REMARK    3  A    between atoms: O_4  and  C_31
REMARK    4  A    between atoms: O_4  and  C_32
REMARK    5  A    between atoms: N_5  and  C_14
REMARK    6  A    between atoms: N_8  and  C_22
REMARK    7  A    between atoms: C_10  and  C_15
REMARK    8  A    between atoms: C_14  and  C_16
REMARK    9  A    between atoms: C_19  and  C_23
REMARK   10  A    between atoms: C_28  and  C_29
REMARK   11  A    between atoms: C_30  and  C_31
REMARK                            x       y       z     vdW  Elec       q    Type
REMARK                         _______ _______ _______ _____ _____    ______ ____
ROOT
ATOM      5  N   UNL     1      -3.456 -11.756  14.133  0.00  0.00    -0.287 NA
ATOM     10  C   UNL     1      -2.488 -11.732  13.020  0.00  0.00    +0.146 C 
ATOM     11  C   UNL     1      -2.306 -13.211  12.628  0.00  0.00    +0.030 C 
ATOM     12  C   UNL     1      -3.161 -13.993  13.614  0.00  0.00    +0.017 C 
ATOM     13  C   UNL     1      -3.293 -13.051  14.795  0.00  0.00    +0.085 C 
ENDROOT
BRANCH  10  15
ATOM      1  O   UNL     1      -2.106  -9.893  11.458  0.00  0.00    -0.336 OA
ATOM      6  N   UNL     1      -4.069 -10.935  11.179  0.00  0.00    -0.190 NA
ATOM      7  N   UNL     1      -2.745  -9.243  10.393  0.00  0.00    -0.056 NA
ATOM     15  C   UNL     1      -2.953 -10.875  11.862  0.00  0.00    +0.245 A 
ATOM     19  C   UNL     1      -3.895  -9.915  10.290  0.00  0.00    +0.202 A 
BRANCH  19  23
ATOM      9  N   UNL     1      -6.830  -8.970   7.393  0.00  0.00    -0.221 NA
ATOM     23  C   UNL     1      -4.891  -9.595   9.308  0.00  0.00    +0.029 A 
ATOM     24  C   UNL     1      -5.884  -8.666   9.598  0.00  0.00    +0.079 A 
ATOM     25  C   UNL     1      -4.865 -10.210   8.062  0.00  0.00    +0.031 A 
ATOM     26  C   UNL     1      -6.822  -8.392   8.616  0.00  0.00    +0.215 A 
ATOM     27  C   UNL     1      -5.848  -9.867   7.148  0.00  0.00    +0.115 A 
BRANCH  26   2
ATOM      2  O   UNL     1      -7.812  -7.480   8.878  0.00  0.00    -0.474 OA
BRANCH   2  30
ATOM     30  C   UNL     1      -8.050  -6.492   7.883  0.00  0.00    +0.258 C 
BRANCH  30  31
ATOM     31  C   UNL     1      -9.546  -6.292   7.732  0.00  0.00    +0.200 C 
BRANCH  31   4
ATOM      4  O   UNL     1     -10.083  -5.859   8.976  0.00  0.00    -0.380 OA
ATOM     32  C   UNL     1     -10.384  -4.470   8.958  0.00  0.00    +0.194 C 
ENDBRANCH  31   4
ENDBRANCH  30  31
ENDBRANCH   2  30
ENDBRANCH  26   2
ENDBRANCH  19  23
ENDBRANCH  10  15
BRANCH   5  14
ATOM     14  C   UNL     1      -3.294 -10.643  15.059  0.00  0.00    +0.120 C 
BRANCH  14  16
ATOM     16  C   UNL     1      -4.478 -10.500  15.977  0.00  0.00    -0.033 A 
ATOM     17  C   UNL     1      -5.688 -10.012  15.483  0.00  0.00    +0.007 A 
ATOM     18  C   UNL     1      -4.368 -10.855  17.321  0.00  0.00    +0.007 A 
ATOM     20  C   UNL     1      -6.786  -9.879  16.333  0.00  0.00    +0.023 A 
ATOM     21  C   UNL     1      -5.464 -10.721  18.172  0.00  0.00    +0.023 A 
ATOM     22  C   UNL     1      -6.674 -10.234  17.677  0.00  0.00    +0.033 A 
BRANCH  22   8
ATOM      3  O   UNL     1      -8.722 -12.257  18.559  0.00  0.00    -0.276 OA
ATOM      8  N   UNL     1      -7.773 -10.100  18.528  0.00  0.00    -0.286 N 
ATOM     28  C   UNL     1      -8.699 -11.081  18.904  0.00  0.00    +0.214 C 
ATOM     29  C   UNL     1      -9.744 -10.532  19.844  0.00  0.00    +0.109 C 
ATOM     33  H   UNL     1      -7.909  -9.170  18.918  0.00  0.00    +0.155 HD
ENDBRANCH  22   8
ENDBRANCH  14  16
ENDBRANCH   5  14
TORSDOF 9
ENDMDL
MODEL 9
REMARK VINA RESULT:      -6.4     15.327     18.502
REMARK  Name = 45783364
REMARK  11 active torsions:
REMARK  status: ('A' for Active; 'I' for Inactive)
REMARK    1  A    between atoms: O_2  and  C_26
REMARK    2  A    between atoms: O_2  and  C_30
REMARK    3  A    between atoms: O_4  and  C_31
REMARK    4  A    between atoms: O_4  and  C_32
REMARK    5  A    between atoms: N_5  and  C_14
REMARK    6  A    between atoms: N_8  and  C_22
REMARK    7  A    between atoms: C_10  and  C_15
REMARK    8  A    between atoms: C_14  and  C_16
REMARK    9  A    between atoms: C_19  and  C_23
REMARK   10  A    between atoms: C_28  and  C_29
REMARK   11  A    between atoms: C_30  and  C_31
REMARK                            x       y       z     vdW  Elec       q    Type
REMARK                         _______ _______ _______ _____ _____    ______ ____
ROOT
ATOM      5  N   UNL     1      10.030   8.537   6.111  0.00  0.00    -0.287 NA
ATOM     10  C   UNL     1       9.045   7.476   5.825  0.00  0.00    +0.146 C 
ATOM     11  C   UNL     1       7.870   8.206   5.146  0.00  0.00    +0.030 C 
ATOM     12  C   UNL     1       8.259   9.677   5.151  0.00  0.00    +0.017 C 
ATOM     13  C   UNL     1       9.267   9.775   6.278  0.00  0.00    +0.085 C 
ENDROOT
BRANCH  10  15
ATOM      1  O   UNL     1       9.766   5.156   5.565  0.00  0.00    -0.336 OA
ATOM      6  N   UNL     1       9.997   6.397   3.715  0.00  0.00    -0.190 NA
ATOM      7  N   UNL     1      10.305   4.306   4.590  0.00  0.00    -0.056 NA
ATOM     15  C   UNL     1       9.616   6.366   4.967  0.00  0.00    +0.245 A 
ATOM     19  C   UNL     1      10.411   5.110   3.529  0.00  0.00    +0.202 A 
BRANCH  19  23
ATOM      9  N   UNL     1      11.926   3.782  -0.191  0.00  0.00    -0.221 NA
ATOM     23  C   UNL     1      10.926   4.660   2.268  0.00  0.00    +0.029 A 
ATOM     24  C   UNL     1      12.160   4.023   2.204  0.00  0.00    +0.079 A 
ATOM     25  C   UNL     1      10.191   4.858   1.104  0.00  0.00    +0.031 A 
ATOM     26  C   UNL     1      12.611   3.607   0.961  0.00  0.00    +0.215 A 
ATOM     27  C   UNL     1      10.730   4.405  -0.089  0.00  0.00    +0.115 A 
BRANCH  26   2
ATOM      2  O   UNL     1      13.825   2.977   0.873  0.00  0.00    -0.474 OA
BRANCH   2  30
ATOM     30  C   UNL     1      14.921   3.609   1.523  0.00  0.00    +0.258 C 
BRANCH  30  31
ATOM     31  C   UNL     1      15.553   4.607   0.572  0.00  0.00    +0.200 C 
BRANCH  31   4
ATOM      4  O   UNL     1      15.649   4.018  -0.720  0.00  0.00    -0.380 OA
ATOM     32  C   UNL     1      16.890   4.325  -1.341  0.00  0.00    +0.194 C 
ENDBRANCH  31   4
ENDBRANCH  30  31
ENDBRANCH   2  30
ENDBRANCH  26   2
ENDBRANCH  19  23
ENDBRANCH  10  15
BRANCH   5  14
ATOM     14  C   UNL     1      10.866   8.248   7.268  0.00  0.00    +0.120 C 
BRANCH  14  16
ATOM     16  C   UNL     1      12.332   8.313   6.932  0.00  0.00    -0.033 A 
ATOM     17  C   UNL     1      13.072   7.138   6.805  0.00  0.00    +0.007 A 
ATOM     18  C   UNL     1      12.951   9.549   6.747  0.00  0.00    +0.007 A 
ATOM     20  C   UNL     1      14.430   7.198   6.494  0.00  0.00    +0.023 A 
ATOM     21  C   UNL     1      14.309   9.610   6.436  0.00  0.00    +0.023 A 
ATOM     22  C   UNL     1      15.048   8.434   6.309  0.00  0.00    +0.033 A 
BRANCH  22   8
ATOM      3  O   UNL     1      16.489   7.878   3.724  0.00  0.00    -0.276 OA
ATOM      8  N   UNL     1      16.408   8.495   5.998  0.00  0.00    -0.286 N 
ATOM     28  C   UNL     1      17.027   8.222   4.771  0.00  0.00    +0.214 C 
ATOM     29  C   UNL     1      18.522   8.404   4.847  0.00  0.00    +0.109 C 
ATOM     33  H   UNL     1      17.017   8.772   6.765  0.00  0.00    +0.155 HD
ENDBRANCH  22   8
ENDBRANCH  14  16
ENDBRANCH   5  14
TORSDOF 9
ENDMDL
MODEL 10
REMARK VINA RESULT:      -6.4      3.177      5.761
REMARK  Name = 45783364
REMARK  11 active torsions:
REMARK  status: ('A' for Active; 'I' for Inactive)
REMARK    1  A    between atoms: O_2  and  C_26
REMARK    2  A    between atoms: O_2  and  C_30
REMARK    3  A    between atoms: O_4  and  C_31
REMARK    4  A    between atoms: O_4  and  C_32
REMARK    5  A    between atoms: N_5  and  C_14
REMARK    6  A    between atoms: N_8  and  C_22
REMARK    7  A    between atoms: C_10  and  C_15
REMARK    8  A    between atoms: C_14  and  C_16
REMARK    9  A    between atoms: C_19  and  C_23
REMARK   10  A    between atoms: C_28  and  C_29
REMARK   11  A    between atoms: C_30  and  C_31
REMARK                            x       y       z     vdW  Elec       q    Type
REMARK                         _______ _______ _______ _____ _____    ______ ____
ROOT
ATOM      5  N   UNL     1      12.778   8.950  20.042  0.00  0.00    -0.287 NA
ATOM     10  C   UNL     1      13.406   8.220  21.160  0.00  0.00    +0.146 C 
ATOM     11  C   UNL     1      12.312   7.259  21.664  0.00  0.00    +0.030 C 
ATOM     12  C   UNL     1      11.090   7.566  20.810  0.00  0.00    +0.017 C 
ATOM     13  C   UNL     1      11.342   8.978  20.321  0.00  0.00    +0.085 C 
ENDROOT
BRANCH  10  15
ATOM      1  O   UNL     1      14.601   6.758  19.609  0.00  0.00    -0.336 OA
ATOM      6  N   UNL     1      15.844   7.476  21.329  0.00  0.00    -0.190 NA
ATOM      7  N   UNL     1      15.872   6.193  19.435  0.00  0.00    -0.056 NA
ATOM     15  C   UNL     1      14.672   7.498  20.746  0.00  0.00    +0.245 A 
ATOM     19  C   UNL     1      16.547   6.663  20.488  0.00  0.00    +0.202 A 
BRANCH  19  23
ATOM      9  N   UNL     1      20.608   5.714  21.196  0.00  0.00    -0.221 NA
ATOM     23  C   UNL     1      17.924   6.342  20.728  0.00  0.00    +0.029 A 
ATOM     24  C   UNL     1      18.584   6.877  21.829  0.00  0.00    +0.079 A 
ATOM     25  C   UNL     1      18.604   5.493  19.862  0.00  0.00    +0.031 A 
ATOM     26  C   UNL     1      19.914   6.535  22.016  0.00  0.00    +0.215 A 
ATOM     27  C   UNL     1      19.932   5.214  20.137  0.00  0.00    +0.115 A 
BRANCH  26   2
ATOM      2  O   UNL     1      20.586   7.050  23.094  0.00  0.00    -0.474 OA
BRANCH   2  30
ATOM     30  C   UNL     1      22.005   6.945  23.071  0.00  0.00    +0.258 C 
BRANCH  30  31
ATOM     31  C   UNL     1      22.457   6.094  24.243  0.00  0.00    +0.200 C 
BRANCH  31   4
ATOM      4  O   UNL     1      21.393   5.995  25.181  0.00  0.00    -0.380 OA
ATOM     32  C   UNL     1      21.882   5.841  26.508  0.00  0.00    +0.194 C 
ENDBRANCH  31   4
ENDBRANCH  30  31
ENDBRANCH   2  30
ENDBRANCH  26   2
ENDBRANCH  19  23
ENDBRANCH  10  15
BRANCH   5  14
ATOM     14  C   UNL     1      13.325  10.287  19.850  0.00  0.00    +0.120 C 
BRANCH  14  16
ATOM     16  C   UNL     1      13.881  10.472  18.464  0.00  0.00    -0.033 A 
ATOM     17  C   UNL     1      14.667  11.586  18.170  0.00  0.00    +0.007 A 
ATOM     18  C   UNL     1      13.612   9.528  17.472  0.00  0.00    +0.007 A 
ATOM     20  C   UNL     1      15.183  11.758  16.886  0.00  0.00    +0.023 A 
ATOM     21  C   UNL     1      14.127   9.700  16.188  0.00  0.00    +0.023 A 
ATOM     22  C   UNL     1      14.913  10.814  15.895  0.00  0.00    +0.033 A 
BRANCH  22   8
ATOM      3  O   UNL     1      14.181  12.789  13.743  0.00  0.00    -0.276 OA
ATOM      8  N   UNL     1      15.429  10.985  14.608  0.00  0.00    -0.286 N 
ATOM     28  C   UNL     1      15.046  11.926  13.643  0.00  0.00    +0.214 C 
ATOM     29  C   UNL     1      15.851  11.782  12.375  0.00  0.00    +0.109 C 
ATOM     33  H   UNL     1      16.173  10.342  14.350  0.00  0.00    +0.155 HD
ENDBRANCH  22   8
ENDBRANCH  14  16
ENDBRANCH   5  14
TORSDOF 9
ENDMDL
