REMARK  Name = 11883066
REMARK  10 active torsions:
REMARK  status: ('A' for Active; 'I' for Inactive)
REMARK    1  A    between atoms: O_2  and  C_15
REMARK    2  A    between atoms: O_3  and  C_20
REMARK    3  A    between atoms: N_8  and  C_26
REMARK    4  A    between atoms: C_10  and  C_18
REMARK    5  A    between atoms: C_12  and  C_20
REMARK    6  A    between atoms: C_12  and  C_21
REMARK    7  A    between atoms: C_13  and  C_23
REMARK    8  A    between atoms: C_23  and  C_24
REMARK    9  A    between atoms: C_26  and  C_28
REMARK   10  A    between atoms: C_27  and  C_29
REMARK                            x       y       z     vdW  Elec       q    Type
REMARK                         _______ _______ _______ _____ _____    ______ ____
ROOT
ATOM      1  S   UNL     1      -0.722   3.154   0.370  0.00  0.00    -0.057 S 
ATOM      5  O   UNL     1       3.228   0.916  -0.497  0.00  0.00    -0.266 OA
ATOM      7  N   UNL     1       0.327   0.859  -0.198  0.00  0.00    -0.229 NA
ATOM      9  N   UNL     1       1.839   2.724   0.013  0.00  0.00    -0.258 N 
ATOM     10  C   UNL     1      -3.165  -0.708   0.274  0.00  0.00    -0.019 C 
ATOM     11  C   UNL     1      -3.910   0.613  -0.212  0.00  0.00    +0.011 C 
ATOM     12  C   UNL     1      -5.484   0.621  -0.121  0.00  0.00    +0.021 C 
ATOM     13  C   UNL     1      -1.675  -0.673  -0.302  0.00  0.00    +0.054 C 
ATOM     14  C   UNL     1      -3.886  -1.951  -0.310  0.00  0.00    +0.010 C 
ATOM     15  C   UNL     1      -6.038  -0.710  -0.705  0.00  0.00    +0.123 C 
ATOM     16  C   UNL     1      -3.241   1.891   0.374  0.00  0.00    +0.049 C 
ATOM     17  C   UNL     1      -5.392  -1.948  -0.094  0.00  0.00    +0.032 C 
ATOM     18  C   UNL     1      -3.118  -0.839   1.816  0.00  0.00    +0.012 C 
ATOM     19  C   UNL     1      -1.038   0.675  -0.079  0.00  0.00    +0.058 A 
ATOM     21  C   UNL     1      -6.037   1.778  -1.002  0.00  0.00    +0.016 C 
ATOM     22  C   UNL     1      -1.762   1.815   0.205  0.00  0.00    +0.015 A 
ATOM     25  C   UNL     1       0.608   2.124   0.025  0.00  0.00    +0.165 A 
ATOM     27  C   UNL     1       3.086   2.110  -0.243  0.00  0.00    +0.285 C 
ATOM     41  H   UNL     1       1.834   3.719   0.220  0.00  0.00    +0.157 HD
ENDROOT
BRANCH  27  29
ATOM      6  O   UNL     1       4.033   4.303   0.183  0.00  0.00    -0.458 OA
ATOM     29  C   UNL     1       4.254   3.002  -0.141  0.00  0.00    +0.189 A 
ATOM     32  C   UNL     1       5.598   2.770  -0.317  0.00  0.00    +0.054 A 
ATOM     35  C   UNL     1       6.245   4.008  -0.086  0.00  0.00    +0.042 A 
ATOM     37  C   UNL     1       5.250   4.908   0.214  0.00  0.00    +0.196 A 
ENDBRANCH  27  29
BRANCH  15   2
ATOM      2  O   UNL     1      -7.451  -0.790  -0.520  0.00  0.00    -0.391 OA
ATOM     38  H   UNL     1      -7.757  -1.612  -0.940  0.00  0.00    +0.210 HD
ENDBRANCH  15   2
BRANCH  12  20
ATOM     20  C   UNL     1      -6.043   0.876   1.296  0.00  0.00    +0.165 C 
BRANCH  20   3
ATOM      3  O   UNL     1      -7.451   0.865   1.213  0.00  0.00    -0.394 OA
ATOM     39  H   UNL     1      -7.795   1.036   2.107  0.00  0.00    +0.209 HD
ENDBRANCH  20   3
ENDBRANCH  12  20
BRANCH  13  23
ATOM     23  C   UNL     1      -0.772  -1.810   0.196  0.00  0.00    +0.106 C 
BRANCH  23  24
ATOM      4  O   UNL     1       0.478  -1.550  -1.859  0.00  0.00    -0.276 OA
ATOM      8  N   UNL     1       1.141  -3.149  -0.308  0.00  0.00    -0.311 N 
ATOM     24  C   UNL     1       0.333  -2.128  -0.785  0.00  0.00    +0.214 C 
ATOM     40  H   UNL     1       0.923  -3.576   0.588  0.00  0.00    +0.149 HD
BRANCH   8  26
ATOM     26  C   UNL     1       2.277  -3.664  -1.038  0.00  0.00    +0.139 C 
BRANCH  26  28
ATOM     28  C   UNL     1       3.558  -3.501  -0.273  0.00  0.00    -0.030 A 
ATOM     30  C   UNL     1       4.318  -2.341  -0.424  0.00  0.00    +0.005 A 
ATOM     31  C   UNL     1       3.988  -4.509   0.590  0.00  0.00    +0.005 A 
ATOM     33  C   UNL     1       5.508  -2.189   0.288  0.00  0.00    +0.000 A 
ATOM     34  C   UNL     1       5.179  -4.357   1.302  0.00  0.00    +0.000 A 
ATOM     36  C   UNL     1       5.939  -3.197   1.150  0.00  0.00    +0.000 A 
ENDBRANCH  26  28
ENDBRANCH   8  26
ENDBRANCH  23  24
ENDBRANCH  13  23
TORSDOF 8
