MODEL 1
REMARK VINA RESULT:      -7.2      0.000      0.000
REMARK  Name = 26744309
REMARK  5 active torsions:
REMARK  status: ('A' for Active; 'I' for Inactive)
REMARK    1  A    between atoms: O_1  and  C_15
REMARK    2  A    between atoms: N_5  and  C_9
REMARK    3  A    between atoms: N_8  and  C_24
REMARK    4  A    between atoms: C_10  and  C_19
REMARK    5  A    between atoms: C_20  and  C_21
REMARK                            x       y       z     vdW  Elec       q    Type
REMARK                         _______ _______ _______ _____ _____    ______ ____
ROOT
ATOM      2  O   UNL     1      13.557   7.640  16.497  0.00  0.00    -0.336 OA
ATOM      6  N   UNL     1      14.265   9.449  17.611  0.00  0.00    -0.190 NA
ATOM      7  N   UNL     1      13.565   8.690  15.570  0.00  0.00    -0.056 NA
ATOM     19  C   UNL     1      13.982   8.173  17.672  0.00  0.00    +0.245 A 
ATOM     20  C   UNL     1      13.994   9.722  16.301  0.00  0.00    +0.202 A 
ENDROOT
BRANCH  20  21
ATOM     21  C   UNL     1      14.161  11.038  15.756  0.00  0.00    +0.025 A 
ATOM     22  C   UNL     1      13.623  11.351  14.507  0.00  0.00    +0.044 A 
ATOM     23  C   UNL     1      14.860  12.006  16.477  0.00  0.00    +0.012 A 
ATOM     24  C   UNL     1      13.785  12.632  13.979  0.00  0.00    +0.127 A 
ATOM     25  C   UNL     1      15.023  13.287  15.948  0.00  0.00    +0.003 A 
ATOM     26  C   UNL     1      14.485  13.600  14.700  0.00  0.00    +0.033 A 
BRANCH  24   8
ATOM      3  O   UNL     1      12.957  14.146  12.450  0.00  0.00    -0.126 OA
ATOM      4  O   UNL     1      13.051  12.029  11.877  0.00  0.00    -0.126 OA
ATOM      8  N   UNL     1      13.238  12.951  12.708  0.00  0.00    +0.056 N 
ENDBRANCH  24   8
ENDBRANCH  20  21
BRANCH  19  10
ATOM      5  N   UNL     1      14.786   7.811  20.000  0.00  0.00    -0.286 NA
ATOM     10  C   UNL     1      14.063   7.227  18.852  0.00  0.00    +0.149 C 
ATOM     11  C   UNL     1      14.218   7.200  21.200  0.00  0.00    +0.116 C 
ATOM     14  C   UNL     1      12.679   6.849  19.409  0.00  0.00    +0.061 C 
ATOM     15  C   UNL     1      12.733   7.216  20.887  0.00  0.00    +0.130 C 
BRANCH   5   9
ATOM      9  C   UNL     1      16.234   7.629  19.923  0.00  0.00    +0.058 C 
ATOM     12  C   UNL     1      16.873   7.962  21.275  0.00  0.00    +0.019 C 
ATOM     13  C   UNL     1      16.557   6.191  19.498  0.00  0.00    +0.019 C 
ATOM     16  C   UNL     1      18.380   7.710  21.256  0.00  0.00    +0.002 C 
ATOM     17  C   UNL     1      18.064   5.942  19.481  0.00  0.00    +0.002 C 
ATOM     18  C   UNL     1      18.706   6.284  20.822  0.00  0.00    +0.000 C 
ENDBRANCH   5   9
BRANCH  15   1
ATOM      1  O   UNL     1      12.022   6.273  21.664  0.00  0.00    -0.390 OA
ATOM     27  H   UNL     1      11.625   6.751  22.412  0.00  0.00    +0.210 HD
ENDBRANCH  15   1
ENDBRANCH  19  10
TORSDOF 5
ENDMDL
MODEL 2
REMARK VINA RESULT:      -7.0     14.299     17.724
REMARK  Name = 26744309
REMARK  5 active torsions:
REMARK  status: ('A' for Active; 'I' for Inactive)
REMARK    1  A    between atoms: O_1  and  C_15
REMARK    2  A    between atoms: N_5  and  C_9
REMARK    3  A    between atoms: N_8  and  C_24
REMARK    4  A    between atoms: C_10  and  C_19
REMARK    5  A    between atoms: C_20  and  C_21
REMARK                            x       y       z     vdW  Elec       q    Type
REMARK                         _______ _______ _______ _____ _____    ______ ____
ROOT
ATOM      2  O   UNL     1      11.971   6.077   1.667  0.00  0.00    -0.336 OA
ATOM      6  N   UNL     1      11.489   4.558   3.242  0.00  0.00    -0.190 NA
ATOM      7  N   UNL     1      11.155   6.729   2.601  0.00  0.00    -0.056 NA
ATOM     19  C   UNL     1      12.117   4.804   2.120  0.00  0.00    +0.245 A 
ATOM     20  C   UNL     1      10.912   5.769   3.498  0.00  0.00    +0.202 A 
ENDROOT
BRANCH  20  21
ATOM     21  C   UNL     1      10.099   5.985   4.659  0.00  0.00    +0.025 A 
ATOM     22  C   UNL     1      10.444   5.393   5.875  0.00  0.00    +0.044 A 
ATOM     23  C   UNL     1       8.963   6.790   4.573  0.00  0.00    +0.012 A 
ATOM     24  C   UNL     1       9.652   5.606   7.003  0.00  0.00    +0.127 A 
ATOM     25  C   UNL     1       8.171   7.002   5.702  0.00  0.00    +0.003 A 
ATOM     26  C   UNL     1       8.515   6.411   6.917  0.00  0.00    +0.033 A 
BRANCH  24   8
ATOM      3  O   UNL     1      10.859   5.561   8.967  0.00  0.00    -0.126 OA
ATOM      4  O   UNL     1       9.445   3.929   8.574  0.00  0.00    -0.126 OA
ATOM      8  N   UNL     1      10.002   5.003   8.240  0.00  0.00    +0.056 N 
ENDBRANCH  24   8
ENDBRANCH  20  21
BRANCH  19  10
ATOM      5  N   UNL     1      13.018   4.289  -0.142  0.00  0.00    -0.286 NA
ATOM     10  C   UNL     1      12.970   3.880   1.276  0.00  0.00    +0.149 C 
ATOM     11  C   UNL     1      14.313   3.846  -0.657  0.00  0.00    +0.116 C 
ATOM     14  C   UNL     1      14.442   3.851   1.727  0.00  0.00    +0.061 C 
ATOM     15  C   UNL     1      15.244   4.212   0.484  0.00  0.00    +0.130 C 
BRANCH   5   9
ATOM      9  C   UNL     1      11.904   3.765  -0.931  0.00  0.00    +0.058 C 
ATOM     12  C   UNL     1      11.292   4.888  -1.776  0.00  0.00    +0.019 C 
ATOM     13  C   UNL     1      12.390   2.610  -1.814  0.00  0.00    +0.019 C 
ATOM     16  C   UNL     1      10.173   4.362  -2.674  0.00  0.00    +0.002 C 
ATOM     17  C   UNL     1      11.268   2.087  -2.710  0.00  0.00    +0.002 C 
ATOM     18  C   UNL     1      10.648   3.203  -3.545  0.00  0.00    +0.000 C 
ENDBRANCH   5   9
BRANCH  15   1
ATOM      1  O   UNL     1      16.450   3.477   0.434  0.00  0.00    -0.390 OA
ATOM     27  H   UNL     1      16.242   2.556   0.668  0.00  0.00    +0.210 HD
ENDBRANCH  15   1
ENDBRANCH  19  10
TORSDOF 5
ENDMDL
MODEL 3
REMARK VINA RESULT:      -6.9      1.942      2.229
REMARK  Name = 26744309
REMARK  5 active torsions:
REMARK  status: ('A' for Active; 'I' for Inactive)
REMARK    1  A    between atoms: O_1  and  C_15
REMARK    2  A    between atoms: N_5  and  C_9
REMARK    3  A    between atoms: N_8  and  C_24
REMARK    4  A    between atoms: C_10  and  C_19
REMARK    5  A    between atoms: C_20  and  C_21
REMARK                            x       y       z     vdW  Elec       q    Type
REMARK                         _______ _______ _______ _____ _____    ______ ____
ROOT
ATOM      2  O   UNL     1      13.553   7.732  16.446  0.00  0.00    -0.336 OA
ATOM      6  N   UNL     1      14.194   9.492  17.674  0.00  0.00    -0.190 NA
ATOM      7  N   UNL     1      13.539   8.835  15.583  0.00  0.00    -0.056 NA
ATOM     19  C   UNL     1      13.949   8.206  17.656  0.00  0.00    +0.245 A 
ATOM     20  C   UNL     1      13.928   9.834  16.380  0.00  0.00    +0.202 A 
ENDROOT
BRANCH  20  21
ATOM     21  C   UNL     1      14.060  11.185  15.916  0.00  0.00    +0.025 A 
ATOM     22  C   UNL     1      14.301  12.216  16.825  0.00  0.00    +0.044 A 
ATOM     23  C   UNL     1      13.950  11.467  14.554  0.00  0.00    +0.012 A 
ATOM     24  C   UNL     1      14.430  13.529  16.372  0.00  0.00    +0.127 A 
ATOM     25  C   UNL     1      14.078  12.781  14.102  0.00  0.00    +0.003 A 
ATOM     26  C   UNL     1      14.319  13.811  15.010  0.00  0.00    +0.033 A 
BRANCH  24   8
ATOM      3  O   UNL     1      13.830  14.806  18.196  0.00  0.00    -0.126 OA
ATOM      4  O   UNL     1      15.729  15.250  17.190  0.00  0.00    -0.126 OA
ATOM      8  N   UNL     1      14.674  14.578  17.297  0.00  0.00    +0.056 N 
ENDBRANCH  24   8
ENDBRANCH  20  21
BRANCH  19  10
ATOM      5  N   UNL     1      14.760   7.722  19.959  0.00  0.00    -0.286 NA
ATOM     10  C   UNL     1      14.047   7.194  18.779  0.00  0.00    +0.149 C 
ATOM     11  C   UNL     1      14.203   7.033  21.121  0.00  0.00    +0.116 C 
ATOM     14  C   UNL     1      12.669   6.762  19.312  0.00  0.00    +0.061 C 
ATOM     15  C   UNL     1      12.719   7.042  20.809  0.00  0.00    +0.130 C 
BRANCH   5   9
ATOM      9  C   UNL     1      16.211   7.568  19.871  0.00  0.00    +0.058 C 
ATOM     12  C   UNL     1      16.851   7.882  21.229  0.00  0.00    +0.019 C 
ATOM     13  C   UNL     1      16.558   6.147  19.412  0.00  0.00    +0.019 C 
ATOM     16  C   UNL     1      18.362   7.657  21.198  0.00  0.00    +0.002 C 
ATOM     17  C   UNL     1      18.070   5.926  19.383  0.00  0.00    +0.002 C 
ATOM     18  C   UNL     1      18.712   6.248  20.729  0.00  0.00    +0.000 C 
ENDBRANCH   5   9
BRANCH  15   1
ATOM      1  O   UNL     1      12.024   6.045  21.530  0.00  0.00    -0.390 OA
ATOM     27  H   UNL     1      12.675   5.565  22.068  0.00  0.00    +0.210 HD
ENDBRANCH  15   1
ENDBRANCH  19  10
TORSDOF 5
ENDMDL
MODEL 4
REMARK VINA RESULT:      -6.6     26.920     28.983
REMARK  Name = 26744309
REMARK  5 active torsions:
REMARK  status: ('A' for Active; 'I' for Inactive)
REMARK    1  A    between atoms: O_1  and  C_15
REMARK    2  A    between atoms: N_5  and  C_9
REMARK    3  A    between atoms: N_8  and  C_24
REMARK    4  A    between atoms: C_10  and  C_19
REMARK    5  A    between atoms: C_20  and  C_21
REMARK                            x       y       z     vdW  Elec       q    Type
REMARK                         _______ _______ _______ _____ _____    ______ ____
ROOT
ATOM      2  O   UNL     1      -5.862 -12.005  15.671  0.00  0.00    -0.336 OA
ATOM      6  N   UNL     1      -5.034  -9.971  15.230  0.00  0.00    -0.190 NA
ATOM      7  N   UNL     1      -5.242 -12.100  14.419  0.00  0.00    -0.056 NA
ATOM     19  C   UNL     1      -5.694 -10.719  16.077  0.00  0.00    +0.245 A 
ATOM     20  C   UNL     1      -4.778 -10.862  14.228  0.00  0.00    +0.202 A 
ENDROOT
BRANCH  20  21
ATOM     21  C   UNL     1      -4.057 -10.482  13.048  0.00  0.00    +0.025 A 
ATOM     22  C   UNL     1      -4.737  -9.940  11.956  0.00  0.00    +0.044 A 
ATOM     23  C   UNL     1      -2.673 -10.652  12.992  0.00  0.00    +0.012 A 
ATOM     24  C   UNL     1      -4.034  -9.570  10.810  0.00  0.00    +0.127 A 
ATOM     25  C   UNL     1      -1.970 -10.282  11.845  0.00  0.00    +0.003 A 
ATOM     26  C   UNL     1      -2.650  -9.740  10.755  0.00  0.00    +0.033 A 
BRANCH  24   8
ATOM      3  O   UNL     1      -5.514  -8.062   9.888  0.00  0.00    -0.126 OA
ATOM      4  O   UNL     1      -4.530  -9.504   8.558  0.00  0.00    -0.126 OA
ATOM      8  N   UNL     1      -4.726  -9.019   9.699  0.00  0.00    +0.056 N 
ENDBRANCH  24   8
ENDBRANCH  20  21
BRANCH  19  10
ATOM      5  N   UNL     1      -7.547 -11.063  17.703  0.00  0.00    -0.286 NA
ATOM     10  C   UNL     1      -6.282 -10.354  17.424  0.00  0.00    +0.149 C 
ATOM     11  C   UNL     1      -7.626 -11.212  19.155  0.00  0.00    +0.116 C 
ATOM     14  C   UNL     1      -5.356 -10.723  18.598  0.00  0.00    +0.061 C 
ATOM     15  C   UNL     1      -6.203 -11.604  19.507  0.00  0.00    +0.130 C 
BRANCH   5   9
ATOM      9  C   UNL     1      -8.720 -10.385  17.155  0.00  0.00    +0.058 C 
ATOM     12  C   UNL     1      -9.983 -10.860  17.883  0.00  0.00    +0.019 C 
ATOM     13  C   UNL     1      -8.550  -8.867  17.277  0.00  0.00    +0.019 C 
ATOM     16  C   UNL     1     -11.223 -10.116  17.390  0.00  0.00    +0.002 C 
ATOM     17  C   UNL     1      -9.792  -8.127  16.783  0.00  0.00    +0.002 C 
ATOM     18  C   UNL     1     -11.053  -8.604  17.497  0.00  0.00    +0.000 C 
ENDBRANCH   5   9
BRANCH  15   1
ATOM      1  O   UNL     1      -5.909 -11.351  20.866  0.00  0.00    -0.390 OA
ATOM     27  H   UNL     1      -5.277 -10.614  20.896  0.00  0.00    +0.210 HD
ENDBRANCH  15   1
ENDBRANCH  19  10
TORSDOF 5
ENDMDL
MODEL 5
REMARK VINA RESULT:      -6.5      5.754      9.635
REMARK  Name = 26744309
REMARK  5 active torsions:
REMARK  status: ('A' for Active; 'I' for Inactive)
REMARK    1  A    between atoms: O_1  and  C_15
REMARK    2  A    between atoms: N_5  and  C_9
REMARK    3  A    between atoms: N_8  and  C_24
REMARK    4  A    between atoms: C_10  and  C_19
REMARK    5  A    between atoms: C_20  and  C_21
REMARK                            x       y       z     vdW  Elec       q    Type
REMARK                         _______ _______ _______ _____ _____    ______ ____
ROOT
ATOM      2  O   UNL     1      20.921   6.134  23.156  0.00  0.00    -0.336 OA
ATOM      6  N   UNL     1      20.676   5.885  20.943  0.00  0.00    -0.190 NA
ATOM      7  N   UNL     1      19.556   6.308  22.893  0.00  0.00    -0.056 NA
ATOM     19  C   UNL     1      21.507   5.890  21.954  0.00  0.00    +0.245 A 
ATOM     20  C   UNL     1      19.491   6.147  21.568  0.00  0.00    +0.202 A 
ENDROOT
BRANCH  20  21
ATOM     21  C   UNL     1      18.259   6.241  20.838  0.00  0.00    +0.025 A 
ATOM     22  C   UNL     1      17.113   6.733  21.463  0.00  0.00    +0.044 A 
ATOM     23  C   UNL     1      18.210   5.842  19.502  0.00  0.00    +0.012 A 
ATOM     24  C   UNL     1      15.916   6.825  20.751  0.00  0.00    +0.127 A 
ATOM     25  C   UNL     1      17.013   5.934  18.791  0.00  0.00    +0.003 A 
ATOM     26  C   UNL     1      15.867   6.426  19.415  0.00  0.00    +0.033 A 
BRANCH  24   8
ATOM      3  O   UNL     1      13.629   6.887  21.032  0.00  0.00    -0.126 OA
ATOM      4  O   UNL     1      14.870   8.193  22.286  0.00  0.00    -0.126 OA
ATOM      8  N   UNL     1      14.749   7.325  21.386  0.00  0.00    +0.056 N 
ENDBRANCH  24   8
ENDBRANCH  20  21
BRANCH  19  10
ATOM      5  N   UNL     1      23.433   4.647  20.985  0.00  0.00    -0.286 NA
ATOM     10  C   UNL     1      23.004   5.663  21.967  0.00  0.00    +0.149 C 
ATOM     11  C   UNL     1      24.792   5.008  20.585  0.00  0.00    +0.116 C 
ATOM     14  C   UNL     1      23.801   6.928  21.600  0.00  0.00    +0.061 C 
ATOM     15  C   UNL     1      24.684   6.513  20.430  0.00  0.00    +0.130 C 
BRANCH   5   9
ATOM      9  C   UNL     1      23.355   3.280  21.498  0.00  0.00    +0.058 C 
ATOM     12  C   UNL     1      24.256   2.361  20.667  0.00  0.00    +0.019 C 
ATOM     13  C   UNL     1      23.755   3.255  22.978  0.00  0.00    +0.019 C 
ATOM     16  C   UNL     1      24.260   0.936  21.220  0.00  0.00    +0.002 C 
ATOM     17  C   UNL     1      23.758   1.830  23.528  0.00  0.00    +0.002 C 
ATOM     18  C   UNL     1      24.645   0.908  22.697  0.00  0.00    +0.000 C 
ENDBRANCH   5   9
BRANCH  15   1
ATOM      1  O   UNL     1      25.948   7.141  20.507  0.00  0.00    -0.390 OA
ATOM     27  H   UNL     1      26.095   7.388  21.436  0.00  0.00    +0.210 HD
ENDBRANCH  15   1
ENDBRANCH  19  10
TORSDOF 5
ENDMDL
MODEL 6
REMARK VINA RESULT:      -6.4     26.745     28.636
REMARK  Name = 26744309
REMARK  5 active torsions:
REMARK  status: ('A' for Active; 'I' for Inactive)
REMARK    1  A    between atoms: O_1  and  C_15
REMARK    2  A    between atoms: N_5  and  C_9
REMARK    3  A    between atoms: N_8  and  C_24
REMARK    4  A    between atoms: C_10  and  C_19
REMARK    5  A    between atoms: C_20  and  C_21
REMARK                            x       y       z     vdW  Elec       q    Type
REMARK                         _______ _______ _______ _____ _____    ______ ____
ROOT
ATOM      2  O   UNL     1      -8.417 -10.932  13.118  0.00  0.00    -0.336 OA
ATOM      6  N   UNL     1      -6.596  -9.735  13.635  0.00  0.00    -0.190 NA
ATOM      7  N   UNL     1      -7.668 -10.833  11.938  0.00  0.00    -0.056 NA
ATOM     19  C   UNL     1      -7.716 -10.258  14.066  0.00  0.00    +0.245 A 
ATOM     20  C   UNL     1      -6.610 -10.114  12.324  0.00  0.00    +0.202 A 
ENDROOT
BRANCH  20  21
ATOM     21  C   UNL     1      -5.551  -9.756  11.425  0.00  0.00    +0.025 A 
ATOM     22  C   UNL     1      -4.221  -9.954  11.798  0.00  0.00    +0.044 A 
ATOM     23  C   UNL     1      -5.852  -9.212  10.176  0.00  0.00    +0.012 A 
ATOM     24  C   UNL     1      -3.192  -9.606  10.922  0.00  0.00    +0.127 A 
ATOM     25  C   UNL     1      -4.822  -8.863   9.301  0.00  0.00    +0.003 A 
ATOM     26  C   UNL     1      -3.493  -9.061   9.673  0.00  0.00    +0.033 A 
BRANCH  24   8
ATOM      3  O   UNL     1      -1.546 -10.802  12.007  0.00  0.00    -0.126 OA
ATOM      4  O   UNL     1      -0.970  -8.985  10.919  0.00  0.00    -0.126 OA
ATOM      8  N   UNL     1      -1.839  -9.808  11.301  0.00  0.00    +0.056 N 
ENDBRANCH  24   8
ENDBRANCH  20  21
BRANCH  19  10
ATOM      5  N   UNL     1      -7.384  -9.701  16.469  0.00  0.00    -0.286 NA
ATOM     10  C   UNL     1      -8.323 -10.217  15.453  0.00  0.00    +0.149 C 
ATOM     11  C   UNL     1      -8.200  -9.058  17.498  0.00  0.00    +0.116 C 
ATOM     14  C   UNL     1      -9.546  -9.286  15.539  0.00  0.00    +0.061 C 
ATOM     15  C   UNL     1      -9.222  -8.310  16.663  0.00  0.00    +0.130 C 
BRANCH   5   9
ATOM      9  C   UNL     1      -6.512 -10.735  17.026  0.00  0.00    +0.058 C 
ATOM     12  C   UNL     1      -5.045 -10.329  16.849  0.00  0.00    +0.019 C 
ATOM     13  C   UNL     1      -6.849 -10.959  18.505  0.00  0.00    +0.019 C 
ATOM     16  C   UNL     1      -4.104 -11.350  17.487  0.00  0.00    +0.002 C 
ATOM     17  C   UNL     1      -5.906 -11.980  19.140  0.00  0.00    +0.002 C 
ATOM     18  C   UNL     1      -4.444 -11.586  18.956  0.00  0.00    +0.000 C 
ENDBRANCH   5   9
BRANCH  15   1
ATOM      1  O   UNL     1     -10.382  -7.998  17.408  0.00  0.00    -0.390 OA
ATOM     27  H   UNL     1     -10.256  -7.114  17.790  0.00  0.00    +0.210 HD
ENDBRANCH  15   1
ENDBRANCH  19  10
TORSDOF 5
ENDMDL
MODEL 7
REMARK VINA RESULT:      -6.2     26.795     29.533
REMARK  Name = 26744309
REMARK  5 active torsions:
REMARK  status: ('A' for Active; 'I' for Inactive)
REMARK    1  A    between atoms: O_1  and  C_15
REMARK    2  A    between atoms: N_5  and  C_9
REMARK    3  A    between atoms: N_8  and  C_24
REMARK    4  A    between atoms: C_10  and  C_19
REMARK    5  A    between atoms: C_20  and  C_21
REMARK                            x       y       z     vdW  Elec       q    Type
REMARK                         _______ _______ _______ _____ _____    ______ ____
ROOT
ATOM      2  O   UNL     1      -7.906 -10.751  15.125  0.00  0.00    -0.336 OA
ATOM      6  N   UNL     1      -6.041  -9.651  15.697  0.00  0.00    -0.190 NA
ATOM      7  N   UNL     1      -6.939 -11.105  14.176  0.00  0.00    -0.056 NA
ATOM     19  C   UNL     1      -7.295  -9.892  15.983  0.00  0.00    +0.245 A 
ATOM     20  C   UNL     1      -5.868 -10.416  14.580  0.00  0.00    +0.202 A 
ENDROOT
BRANCH  20  21
ATOM     21  C   UNL     1      -4.611 -10.470  13.892  0.00  0.00    +0.025 A 
ATOM     22  C   UNL     1      -4.561 -10.280  12.510  0.00  0.00    +0.044 A 
ATOM     23  C   UNL     1      -3.436 -10.711  14.605  0.00  0.00    +0.012 A 
ATOM     24  C   UNL     1      -3.338 -10.332  11.842  0.00  0.00    +0.127 A 
ATOM     25  C   UNL     1      -2.213 -10.763  13.936  0.00  0.00    +0.003 A 
ATOM     26  C   UNL     1      -2.163 -10.573  12.556  0.00  0.00    +0.033 A 
BRANCH  24   8
ATOM      3  O   UNL     1      -3.776 -11.016   9.684  0.00  0.00    -0.126 OA
ATOM      4  O   UNL     1      -2.756  -9.095   9.984  0.00  0.00    -0.126 OA
ATOM      8  N   UNL     1      -3.288 -10.139  10.437  0.00  0.00    +0.056 N 
ENDBRANCH  24   8
ENDBRANCH  20  21
BRANCH  19  10
ATOM      5  N   UNL     1      -9.589  -9.489  16.862  0.00  0.00    -0.286 NA
ATOM     10  C   UNL     1      -8.141  -9.357  17.119  0.00  0.00    +0.149 C 
ATOM     11  C   UNL     1     -10.230  -9.634  18.167  0.00  0.00    +0.116 C 
ATOM     14  C   UNL     1      -7.906 -10.109  18.442  0.00  0.00    +0.061 C 
ATOM     15  C   UNL     1      -9.286 -10.589  18.874  0.00  0.00    +0.130 C 
BRANCH   5   9
ATOM      9  C   UNL     1     -10.143  -8.372  16.098  0.00  0.00    +0.058 C 
ATOM     12  C   UNL     1     -11.272  -8.871  15.190  0.00  0.00    +0.019 C 
ATOM     13  C   UNL     1     -10.644  -7.284  17.056  0.00  0.00    +0.019 C 
ATOM     16  C   UNL     1     -11.928  -7.718  14.432  0.00  0.00    +0.002 C 
ATOM     17  C   UNL     1     -11.299  -6.133  16.295  0.00  0.00    +0.002 C 
ATOM     18  C   UNL     1     -12.417  -6.627  15.380  0.00  0.00    +0.000 C 
ENDBRANCH   5   9
BRANCH  15   1
ATOM      1  O   UNL     1      -9.424 -10.519  20.279  0.00  0.00    -0.390 OA
ATOM     27  H   UNL     1     -10.317 -10.830  20.501  0.00  0.00    +0.210 HD
ENDBRANCH  15   1
ENDBRANCH  19  10
TORSDOF 5
ENDMDL
MODEL 8
REMARK VINA RESULT:      -6.2     14.885     18.289
REMARK  Name = 26744309
REMARK  5 active torsions:
REMARK  status: ('A' for Active; 'I' for Inactive)
REMARK    1  A    between atoms: O_1  and  C_15
REMARK    2  A    between atoms: N_5  and  C_9
REMARK    3  A    between atoms: N_8  and  C_24
REMARK    4  A    between atoms: C_10  and  C_19
REMARK    5  A    between atoms: C_20  and  C_21
REMARK                            x       y       z     vdW  Elec       q    Type
REMARK                         _______ _______ _______ _____ _____    ______ ____
ROOT
ATOM      2  O   UNL     1      13.692   5.994   1.847  0.00  0.00    -0.336 OA
ATOM      6  N   UNL     1      12.012   4.534   2.107  0.00  0.00    -0.190 NA
ATOM      7  N   UNL     1      12.837   6.551   2.806  0.00  0.00    -0.056 NA
ATOM     19  C   UNL     1      13.133   4.808   1.488  0.00  0.00    +0.245 A 
ATOM     20  C   UNL     1      11.871   5.633   2.905  0.00  0.00    +0.202 A 
ENDROOT
BRANCH  20  21
ATOM     21  C   UNL     1      10.752   5.781   3.790  0.00  0.00    +0.025 A 
ATOM     22  C   UNL     1      10.087   7.005   3.877  0.00  0.00    +0.044 A 
ATOM     23  C   UNL     1      10.328   4.700   4.564  0.00  0.00    +0.012 A 
ATOM     24  C   UNL     1       8.999   7.148   4.738  0.00  0.00    +0.127 A 
ATOM     25  C   UNL     1       9.239   4.844   5.424  0.00  0.00    +0.003 A 
ATOM     26  C   UNL     1       8.574   6.067   5.511  0.00  0.00    +0.033 A 
BRANCH  24   8
ATOM      3  O   UNL     1       7.411   8.649   4.003  0.00  0.00    -0.126 OA
ATOM      4  O   UNL     1       8.653   9.203   5.726  0.00  0.00    -0.126 OA
ATOM      8  N   UNL     1       8.322   8.393   4.826  0.00  0.00    +0.056 N 
ENDBRANCH  24   8
ENDBRANCH  20  21
BRANCH  19  10
ATOM      5  N   UNL     1      13.889   4.650  -0.878  0.00  0.00    -0.286 NA
ATOM     10  C   UNL     1      13.877   3.999   0.447  0.00  0.00    +0.149 C 
ATOM     11  C   UNL     1      15.123   4.225  -1.537  0.00  0.00    +0.116 C 
ATOM     14  C   UNL     1      15.362   3.797   0.800  0.00  0.00    +0.061 C 
ATOM     15  C   UNL     1      16.130   4.323  -0.406  0.00  0.00    +0.130 C 
BRANCH   5   9
ATOM      9  C   UNL     1      12.705   4.346  -1.680  0.00  0.00    +0.058 C 
ATOM     12  C   UNL     1      12.928   4.797  -3.128  0.00  0.00    +0.019 C 
ATOM     13  C   UNL     1      12.399   2.845  -1.610  0.00  0.00    +0.019 C 
ATOM     16  C   UNL     1      11.740   4.427  -4.016  0.00  0.00    +0.002 C 
ATOM     17  C   UNL     1      11.212   2.478  -2.499  0.00  0.00    +0.002 C 
ATOM     18  C   UNL     1      11.424   2.936  -3.939  0.00  0.00    +0.000 C 
ENDBRANCH   5   9
BRANCH  15   1
ATOM      1  O   UNL     1      17.276   3.534  -0.654  0.00  0.00    -0.390 OA
ATOM     27  H   UNL     1      17.511   3.644  -1.591  0.00  0.00    +0.210 HD
ENDBRANCH  15   1
ENDBRANCH  19  10
TORSDOF 5
ENDMDL
MODEL 9
REMARK VINA RESULT:      -6.1     27.150     29.316
REMARK  Name = 26744309
REMARK  5 active torsions:
REMARK  status: ('A' for Active; 'I' for Inactive)
REMARK    1  A    between atoms: O_1  and  C_15
REMARK    2  A    between atoms: N_5  and  C_9
REMARK    3  A    between atoms: N_8  and  C_24
REMARK    4  A    between atoms: C_10  and  C_19
REMARK    5  A    between atoms: C_20  and  C_21
REMARK                            x       y       z     vdW  Elec       q    Type
REMARK                         _______ _______ _______ _____ _____    ______ ____
ROOT
ATOM      2  O   UNL     1      -3.891 -10.463  15.750  0.00  0.00    -0.336 OA
ATOM      6  N   UNL     1      -5.730 -11.722  15.525  0.00  0.00    -0.190 NA
ATOM      7  N   UNL     1      -4.765 -10.062  16.768  0.00  0.00    -0.056 NA
ATOM     19  C   UNL     1      -4.537 -11.443  15.065  0.00  0.00    +0.245 A 
ATOM     20  C   UNL     1      -5.826 -10.849  16.570  0.00  0.00    +0.202 A 
ENDROOT
BRANCH  20  21
ATOM     21  C   UNL     1      -6.998 -10.788  17.395  0.00  0.00    +0.025 A 
ATOM     22  C   UNL     1      -7.968  -9.813  17.161  0.00  0.00    +0.044 A 
ATOM     23  C   UNL     1      -7.167 -11.706  18.432  0.00  0.00    +0.012 A 
ATOM     24  C   UNL     1      -9.107  -9.756  17.964  0.00  0.00    +0.127 A 
ATOM     25  C   UNL     1      -8.306 -11.648  19.235  0.00  0.00    +0.003 A 
ATOM     26  C   UNL     1      -9.277 -10.674  19.001  0.00  0.00    +0.033 A 
BRANCH  24   8
ATOM      3  O   UNL     1     -11.273  -8.977  18.101  0.00  0.00    -0.126 OA
ATOM      4  O   UNL     1      -9.764  -7.702  17.145  0.00  0.00    -0.126 OA
ATOM      8  N   UNL     1     -10.095  -8.765  17.725  0.00  0.00    +0.056 N 
ENDBRANCH  24   8
ENDBRANCH  20  21
BRANCH  19  10
ATOM      5  N   UNL     1      -2.918 -11.082  13.209  0.00  0.00    -0.286 NA
ATOM     10  C   UNL     1      -3.792 -12.054  13.897  0.00  0.00    +0.149 C 
ATOM     11  C   UNL     1      -1.805 -11.848  12.653  0.00  0.00    +0.116 C 
ATOM     14  C   UNL     1      -2.851 -13.196  14.322  0.00  0.00    +0.061 C 
ATOM     15  C   UNL     1      -1.480 -12.799  13.790  0.00  0.00    +0.130 C 
BRANCH   5   9
ATOM      9  C   UNL     1      -3.615 -10.304  12.186  0.00  0.00    +0.058 C 
ATOM     12  C   UNL     1      -2.630  -9.885  11.090  0.00  0.00    +0.019 C 
ATOM     13  C   UNL     1      -4.773 -11.124  11.605  0.00  0.00    +0.019 C 
ATOM     16  C   UNL     1      -3.337  -9.133   9.963  0.00  0.00    +0.002 C 
ATOM     17  C   UNL     1      -5.477 -10.370  10.479  0.00  0.00    +0.002 C 
ATOM     18  C   UNL     1      -4.498  -9.941   9.390  0.00  0.00    +0.000 C 
ENDBRANCH   5   9
BRANCH  15   1
ATOM      1  O   UNL     1      -0.769 -13.934  13.339  0.00  0.00    -0.390 OA
ATOM     27  H   UNL     1      -1.279 -14.329  12.612  0.00  0.00    +0.210 HD
ENDBRANCH  15   1
ENDBRANCH  19  10
TORSDOF 5
ENDMDL
MODEL 10
REMARK VINA RESULT:      -6.1     13.887     16.661
REMARK  Name = 26744309
REMARK  5 active torsions:
REMARK  status: ('A' for Active; 'I' for Inactive)
REMARK    1  A    between atoms: O_1  and  C_15
REMARK    2  A    between atoms: N_5  and  C_9
REMARK    3  A    between atoms: N_8  and  C_24
REMARK    4  A    between atoms: C_10  and  C_19
REMARK    5  A    between atoms: C_20  and  C_21
REMARK                            x       y       z     vdW  Elec       q    Type
REMARK                         _______ _______ _______ _____ _____    ______ ____
ROOT
ATOM      2  O   UNL     1       9.547   6.732   2.192  0.00  0.00    -0.336 OA
ATOM      6  N   UNL     1      10.798   4.883   2.378  0.00  0.00    -0.190 NA
ATOM      7  N   UNL     1       9.834   6.322   0.884  0.00  0.00    -0.056 NA
ATOM     19  C   UNL     1      10.152   5.831   3.010  0.00  0.00    +0.245 A 
ATOM     20  C   UNL     1      10.575   5.227   1.076  0.00  0.00    +0.202 A 
ENDROOT
BRANCH  20  21
ATOM     21  C   UNL     1      11.108   4.454  -0.008  0.00  0.00    +0.025 A 
ATOM     22  C   UNL     1      10.410   4.367  -1.213  0.00  0.00    +0.044 A 
ATOM     23  C   UNL     1      12.326   3.791   0.142  0.00  0.00    +0.012 A 
ATOM     24  C   UNL     1      10.930   3.615  -2.267  0.00  0.00    +0.127 A 
ATOM     25  C   UNL     1      12.845   3.039  -0.912  0.00  0.00    +0.003 A 
ATOM     26  C   UNL     1      12.148   2.952  -2.117  0.00  0.00    +0.033 A 
BRANCH  24   8
ATOM      3  O   UNL     1       9.220   2.772  -3.564  0.00  0.00    -0.126 OA
ATOM      4  O   UNL     1      10.612   4.204  -4.475  0.00  0.00    -0.126 OA
ATOM      8  N   UNL     1      10.220   3.526  -3.494  0.00  0.00    +0.056 N 
ENDBRANCH  24   8
ENDBRANCH  20  21
BRANCH  19  10
ATOM      5  N   UNL     1      10.780   7.200   4.991  0.00  0.00    -0.286 NA
ATOM     10  C   UNL     1       9.989   6.055   4.498  0.00  0.00    +0.149 C 
ATOM     11  C   UNL     1      10.054   7.741   6.138  0.00  0.00    +0.116 C 
ATOM     14  C   UNL     1       8.538   6.378   4.896  0.00  0.00    +0.061 C 
ATOM     15  C   UNL     1       8.619   7.701   5.648  0.00  0.00    +0.130 C 
BRANCH   5   9
ATOM      9  C   UNL     1      12.158   6.847   5.329  0.00  0.00    +0.058 C 
ATOM     12  C   UNL     1      13.129   7.762   4.576  0.00  0.00    +0.019 C 
ATOM     13  C   UNL     1      12.365   6.948   6.845  0.00  0.00    +0.019 C 
ATOM     16  C   UNL     1      14.579   7.474   4.963  0.00  0.00    +0.002 C 
ATOM     17  C   UNL     1      13.815   6.659   7.228  0.00  0.00    +0.002 C 
ATOM     18  C   UNL     1      14.787   7.561   6.472  0.00  0.00    +0.000 C 
ENDBRANCH   5   9
BRANCH  15   1
ATOM      1  O   UNL     1       7.696   7.727   6.718  0.00  0.00    -0.390 OA
ATOM     27  H   UNL     1       6.985   7.100   6.507  0.00  0.00    +0.210 HD
ENDBRANCH  15   1
ENDBRANCH  19  10
TORSDOF 5
ENDMDL
