MODEL 1
REMARK VINA RESULT:      -7.5      0.000      0.000
REMARK  Name = 11866353
REMARK  10 active torsions:
REMARK  status: ('A' for Active; 'I' for Inactive)
REMARK    1  A    between atoms: O_1  and  C_11
REMARK    2  A    between atoms: O_2  and  C_14
REMARK    3  A    between atoms: O_3  and  C_16
REMARK    4  A    between atoms: N_7  and  C_12
REMARK    5  A    between atoms: N_8  and  C_19
REMARK    6  A    between atoms: N_9  and  C_22
REMARK    7  A    between atoms: C_11  and  C_17
REMARK    8  A    between atoms: C_19  and  C_20
REMARK    9  A    between atoms: C_19  and  C_21
REMARK   10  A    between atoms: C_27  and  C_28
REMARK                            x       y       z     vdW  Elec       q    Type
REMARK                         _______ _______ _______ _____ _____    ______ ____
ROOT
ATOM     11  C   UNL     1      11.726   8.238  20.547  0.00  0.00    +0.146 C 
ATOM     12  C   UNL     1      13.861   7.564  19.345  0.00  0.00    +0.109 C 
ATOM     13  C   UNL     1      13.255   8.255  20.571  0.00  0.00    +0.069 C 
ATOM     14  C   UNL     1      13.306   8.137  18.034  0.00  0.00    +0.163 C 
ATOM     15  C   UNL     1      11.185   8.829  19.245  0.00  0.00    +0.078 C 
ATOM     16  C   UNL     1      11.775   8.142  18.014  0.00  0.00    +0.148 C 
ENDROOT
BRANCH  12   7
ATOM      5  O   UNL     1      15.670   5.969  20.890  0.00  0.00    -0.252 OA
ATOM      7  N   UNL     1      15.303   7.680  19.381  0.00  0.00    -0.294 N 
ATOM      9  N   UNL     1      17.458   7.201  19.997  0.00  0.00    -0.269 N 
ATOM     18  C   UNL     1      16.113   6.857  20.166  0.00  0.00    +0.304 C 
ATOM     29  H   UNL     1      15.739   8.442  18.869  0.00  0.00    +0.151 HD
ATOM     34  H   UNL     1      17.655   7.965  19.356  0.00  0.00    +0.156 HD
BRANCH   9  22
ATOM     22  C   UNL     1      18.588   6.612  20.611  0.00  0.00    +0.035 A 
ATOM     23  C   UNL     1      19.205   5.532  20.003  0.00  0.00    +0.023 A 
ATOM     24  C   UNL     1      19.055   7.129  21.809  0.00  0.00    +0.023 A 
ATOM     25  C   UNL     1      20.320   4.951  20.607  0.00  0.00    +0.005 A 
ATOM     26  C   UNL     1      20.170   6.548  22.414  0.00  0.00    +0.005 A 
ATOM     27  C   UNL     1      20.802   5.461  21.813  0.00  0.00    -0.050 A 
ATOM     28  C   UNL     1      21.994   4.840  22.460  0.00  0.00    +0.044 C 
ENDBRANCH   9  22
ENDBRANCH  12   7
BRANCH  11  17
ATOM      4  O   UNL     1      10.522   8.420  22.602  0.00  0.00    -0.273 OA
ATOM      8  N   UNL     1      11.457  10.337  21.671  0.00  0.00    -0.302 N 
ATOM     17  C   UNL     1      11.169   8.984  21.724  0.00  0.00    +0.245 C 
ATOM     33  H   UNL     1      11.970  10.716  20.880  0.00  0.00    +0.150 HD
BRANCH   8  19
ATOM     19  C   UNL     1      11.015  11.279  22.673  0.00  0.00    +0.156 C 
ATOM     20  C   UNL     1      10.989  12.695  22.120  0.00  0.00    +0.038 C 
BRANCH  19  21
ATOM      6  O   UNL     1      13.105  11.605  23.868  0.00  0.00    -0.274 OA
ATOM     10  N   UNL     1      11.360  10.594  24.965  0.00  0.00    -0.328 N 
ATOM     21  C   UNL     1      11.953  11.178  23.867  0.00  0.00    +0.231 C 
ATOM     35  H   UNL     1      11.872  10.475  25.833  0.00  0.00    +0.145 HD
ATOM     36  H   UNL     1      10.400  10.263  24.957  0.00  0.00    +0.145 HD
ENDBRANCH  19  21
ENDBRANCH   8  19
ENDBRANCH  11  17
BRANCH  11   1
ATOM      1  O   UNL     1      11.241   6.908  20.690  0.00  0.00    -0.379 OA
ATOM     30  H   UNL     1      10.282   6.945  20.847  0.00  0.00    +0.211 HD
ENDBRANCH  11   1
BRANCH  14   2
ATOM      2  O   UNL     1      13.750   7.325  16.943  0.00  0.00    -0.387 OA
ATOM     31  H   UNL     1      14.217   6.559  17.316  0.00  0.00    +0.210 HD
ENDBRANCH  14   2
BRANCH  16   3
ATOM      3  O   UNL     1      11.341   8.839  16.846  0.00  0.00    -0.389 OA
ATOM     32  H   UNL     1      11.756   8.415  16.076  0.00  0.00    +0.210 HD
ENDBRANCH  16   3
TORSDOF 8
ENDMDL
MODEL 2
REMARK VINA RESULT:      -7.1      1.620      2.160
REMARK  Name = 11866353
REMARK  10 active torsions:
REMARK  status: ('A' for Active; 'I' for Inactive)
REMARK    1  A    between atoms: O_1  and  C_11
REMARK    2  A    between atoms: O_2  and  C_14
REMARK    3  A    between atoms: O_3  and  C_16
REMARK    4  A    between atoms: N_7  and  C_12
REMARK    5  A    between atoms: N_8  and  C_19
REMARK    6  A    between atoms: N_9  and  C_22
REMARK    7  A    between atoms: C_11  and  C_17
REMARK    8  A    between atoms: C_19  and  C_20
REMARK    9  A    between atoms: C_19  and  C_21
REMARK   10  A    between atoms: C_27  and  C_28
REMARK                            x       y       z     vdW  Elec       q    Type
REMARK                         _______ _______ _______ _____ _____    ______ ____
ROOT
ATOM     11  C   UNL     1      12.446   9.463  21.651  0.00  0.00    +0.146 C 
ATOM     12  C   UNL     1      14.464   8.057  21.012  0.00  0.00    +0.109 C 
ATOM     13  C   UNL     1      13.971   9.400  21.561  0.00  0.00    +0.069 C 
ATOM     14  C   UNL     1      13.799   7.709  19.673  0.00  0.00    +0.163 C 
ATOM     15  C   UNL     1      11.797   9.134  20.307  0.00  0.00    +0.078 C 
ATOM     16  C   UNL     1      12.273   7.791  19.753  0.00  0.00    +0.148 C 
ENDROOT
BRANCH  12   7
ATOM      5  O   UNL     1      16.288   5.951  21.676  0.00  0.00    -0.252 OA
ATOM      7  N   UNL     1      15.904   8.084  20.873  0.00  0.00    -0.294 N 
ATOM      9  N   UNL     1      18.063   7.321  20.981  0.00  0.00    -0.269 N 
ATOM     18  C   UNL     1      16.722   7.007  21.223  0.00  0.00    +0.304 C 
ATOM     29  H   UNL     1      16.345   8.951  20.578  0.00  0.00    +0.151 HD
ATOM     34  H   UNL     1      18.252   8.245  20.600  0.00  0.00    +0.156 HD
BRANCH   9  22
ATOM     22  C   UNL     1      19.199   6.506  21.199  0.00  0.00    +0.035 A 
ATOM     23  C   UNL     1      19.940   6.672  22.356  0.00  0.00    +0.023 A 
ATOM     24  C   UNL     1      19.546   5.560  20.248  0.00  0.00    +0.023 A 
ATOM     25  C   UNL     1      21.060   5.868  22.572  0.00  0.00    +0.005 A 
ATOM     26  C   UNL     1      20.666   4.756  20.464  0.00  0.00    +0.005 A 
ATOM     27  C   UNL     1      21.422   4.910  21.624  0.00  0.00    -0.050 A 
ATOM     28  C   UNL     1      22.620   4.051  21.854  0.00  0.00    +0.044 C 
ENDBRANCH   9  22
ENDBRANCH  12   7
BRANCH  11  17
ATOM      4  O   UNL     1      11.323  11.558  21.418  0.00  0.00    -0.273 OA
ATOM      8  N   UNL     1      12.453  11.100  23.401  0.00  0.00    -0.302 N 
ATOM     17  C   UNL     1      11.998  10.815  22.124  0.00  0.00    +0.245 C 
ATOM     33  H   UNL     1      13.040  10.432  23.891  0.00  0.00    +0.150 HD
BRANCH   8  19
ATOM     19  C   UNL     1      12.178  12.347  24.077  0.00  0.00    +0.156 C 
ATOM     20  C   UNL     1      13.253  12.660  25.105  0.00  0.00    +0.038 C 
BRANCH  19  21
ATOM      6  O   UNL     1      10.617  11.711  25.827  0.00  0.00    -0.274 OA
ATOM     10  N   UNL     1       9.813  12.838  23.994  0.00  0.00    -0.328 N 
ATOM     21  C   UNL     1      10.810  12.240  24.734  0.00  0.00    +0.231 C 
ATOM     35  H   UNL     1       8.854  12.848  24.325  0.00  0.00    +0.145 HD
ATOM     36  H   UNL     1       9.990  13.289  23.103  0.00  0.00    +0.145 HD
ENDBRANCH  19  21
ENDBRANCH   8  19
ENDBRANCH  11  17
BRANCH  11   1
ATOM      1  O   UNL     1      11.968   8.551  22.634  0.00  0.00    -0.379 OA
ATOM     30  H   UNL     1      12.733   8.134  23.066  0.00  0.00    +0.211 HD
ENDBRANCH  11   1
BRANCH  14   2
ATOM      2  O   UNL     1      14.142   6.367  19.316  0.00  0.00    -0.387 OA
ATOM     31  H   UNL     1      14.985   6.152  19.750  0.00  0.00    +0.210 HD
ENDBRANCH  14   2
BRANCH  16   3
ATOM      3  O   UNL     1      11.743   7.622  18.438  0.00  0.00    -0.389 OA
ATOM     32  H   UNL     1      12.326   7.009  17.959  0.00  0.00    +0.210 HD
ENDBRANCH  16   3
TORSDOF 8
ENDMDL
MODEL 3
REMARK VINA RESULT:      -6.8     27.107     29.963
REMARK  Name = 11866353
REMARK  10 active torsions:
REMARK  status: ('A' for Active; 'I' for Inactive)
REMARK    1  A    between atoms: O_1  and  C_11
REMARK    2  A    between atoms: O_2  and  C_14
REMARK    3  A    between atoms: O_3  and  C_16
REMARK    4  A    between atoms: N_7  and  C_12
REMARK    5  A    between atoms: N_8  and  C_19
REMARK    6  A    between atoms: N_9  and  C_22
REMARK    7  A    between atoms: C_11  and  C_17
REMARK    8  A    between atoms: C_19  and  C_20
REMARK    9  A    between atoms: C_19  and  C_21
REMARK   10  A    between atoms: C_27  and  C_28
REMARK                            x       y       z     vdW  Elec       q    Type
REMARK                         _______ _______ _______ _____ _____    ______ ____
ROOT
ATOM     11  C   UNL     1      -5.255 -11.097  17.084  0.00  0.00    +0.146 C 
ATOM     12  C   UNL     1      -7.435 -10.038  17.848  0.00  0.00    +0.109 C 
ATOM     13  C   UNL     1      -6.213  -9.915  16.931  0.00  0.00    +0.069 C 
ATOM     14  C   UNL     1      -7.030 -10.257  19.312  0.00  0.00    +0.163 C 
ATOM     15  C   UNL     1      -4.843 -11.292  18.543  0.00  0.00    +0.078 C 
ATOM     16  C   UNL     1      -6.053 -11.425  19.468  0.00  0.00    +0.148 C 
ENDROOT
BRANCH  12   7
ATOM      5  O   UNL     1      -9.662  -9.694  16.080  0.00  0.00    -0.252 OA
ATOM      7  N   UNL     1      -8.263  -8.859  17.720  0.00  0.00    -0.294 N 
ATOM      9  N   UNL     1      -9.947  -7.522  16.925  0.00  0.00    -0.269 N 
ATOM     18  C   UNL     1      -9.335  -8.776  16.828  0.00  0.00    +0.304 C 
ATOM     29  H   UNL     1      -8.008  -8.029  18.249  0.00  0.00    +0.151 HD
ATOM     34  H   UNL     1      -9.550  -6.873  17.599  0.00  0.00    +0.156 HD
BRANCH   9  22
ATOM     22  C   UNL     1     -11.061  -7.041  16.197  0.00  0.00    +0.035 A 
ATOM     23  C   UNL     1     -12.313  -7.583  16.435  0.00  0.00    +0.023 A 
ATOM     24  C   UNL     1     -10.875  -6.037  15.261  0.00  0.00    +0.023 A 
ATOM     25  C   UNL     1     -13.411  -7.108  15.718  0.00  0.00    +0.005 A 
ATOM     26  C   UNL     1     -11.974  -5.562  14.543  0.00  0.00    +0.005 A 
ATOM     27  C   UNL     1     -13.241  -6.097  14.772  0.00  0.00    -0.050 A 
ATOM     28  C   UNL     1     -14.414  -5.589  14.005  0.00  0.00    +0.044 C 
ENDBRANCH   9  22
ENDBRANCH  12   7
BRANCH  11  17
ATOM      4  O   UNL     1      -2.931 -10.692  16.708  0.00  0.00    -0.273 OA
ATOM      8  N   UNL     1      -4.335 -10.985  14.875  0.00  0.00    -0.302 N 
ATOM     17  C   UNL     1      -4.039 -10.908  16.225  0.00  0.00    +0.245 C 
ATOM     33  H   UNL     1      -5.293 -11.131  14.573  0.00  0.00    +0.150 HD
BRANCH   8  19
ATOM     19  C   UNL     1      -3.343 -10.816  13.838  0.00  0.00    +0.156 C 
ATOM     20  C   UNL     1      -3.977 -10.315  12.550  0.00  0.00    +0.038 C 
BRANCH  19  21
ATOM      6  O   UNL     1      -3.059 -13.015  12.845  0.00  0.00    -0.274 OA
ATOM     10  N   UNL     1      -1.488 -12.280  14.350  0.00  0.00    -0.328 N 
ATOM     21  C   UNL     1      -2.650 -12.153  13.619  0.00  0.00    +0.231 C 
ATOM     35  H   UNL     1      -0.922 -13.119  14.288  0.00  0.00    +0.145 HD
ATOM     36  H   UNL     1      -1.152 -11.550  14.971  0.00  0.00    +0.145 HD
ENDBRANCH  19  21
ENDBRANCH   8  19
ENDBRANCH  11  17
BRANCH  11   1
ATOM      1  O   UNL     1      -5.860 -12.294  16.608  0.00  0.00    -0.379 OA
ATOM     30  H   UNL     1      -6.319 -12.723  17.351  0.00  0.00    +0.211 HD
ENDBRANCH  11   1
BRANCH  14   2
ATOM      2  O   UNL     1      -8.198 -10.563  20.080  0.00  0.00    -0.387 OA
ATOM     31  H   UNL     1      -8.231 -11.527  20.194  0.00  0.00    +0.210 HD
ENDBRANCH  14   2
BRANCH  16   3
ATOM      3  O   UNL     1      -5.598 -11.455  20.821  0.00  0.00    -0.389 OA
ATOM     32  H   UNL     1      -4.633 -11.575  20.806  0.00  0.00    +0.210 HD
ENDBRANCH  16   3
TORSDOF 8
ENDMDL
MODEL 4
REMARK VINA RESULT:      -6.6     14.598     17.848
REMARK  Name = 11866353
REMARK  10 active torsions:
REMARK  status: ('A' for Active; 'I' for Inactive)
REMARK    1  A    between atoms: O_1  and  C_11
REMARK    2  A    between atoms: O_2  and  C_14
REMARK    3  A    between atoms: O_3  and  C_16
REMARK    4  A    between atoms: N_7  and  C_12
REMARK    5  A    between atoms: N_8  and  C_19
REMARK    6  A    between atoms: N_9  and  C_22
REMARK    7  A    between atoms: C_11  and  C_17
REMARK    8  A    between atoms: C_19  and  C_20
REMARK    9  A    between atoms: C_19  and  C_21
REMARK   10  A    between atoms: C_27  and  C_28
REMARK                            x       y       z     vdW  Elec       q    Type
REMARK                         _______ _______ _______ _____ _____    ______ ____
ROOT
ATOM     11  C   UNL     1       9.713   7.973   7.007  0.00  0.00    +0.146 C 
ATOM     12  C   UNL     1      10.429   5.669   6.210  0.00  0.00    +0.109 C 
ATOM     13  C   UNL     1       9.804   7.013   5.820  0.00  0.00    +0.069 C 
ATOM     14  C   UNL     1       9.709   5.030   7.405  0.00  0.00    +0.163 C 
ATOM     15  C   UNL     1       8.976   7.333   8.183  0.00  0.00    +0.078 C 
ATOM     16  C   UNL     1       9.596   5.995   8.589  0.00  0.00    +0.148 C 
ENDROOT
BRANCH  12   7
ATOM      5  O   UNL     1      11.793   6.049   3.720  0.00  0.00    -0.252 OA
ATOM      7  N   UNL     1      10.417   4.776   5.072  0.00  0.00    -0.294 N 
ATOM      9  N   UNL     1      10.916   4.004   2.972  0.00  0.00    -0.269 N 
ATOM     18  C   UNL     1      11.114   5.040   3.891  0.00  0.00    +0.304 C 
ATOM     29  H   UNL     1       9.815   3.957   5.106  0.00  0.00    +0.151 HD
ATOM     34  H   UNL     1      10.322   3.236   3.273  0.00  0.00    +0.156 HD
BRANCH   9  22
ATOM     22  C   UNL     1      11.446   3.890   1.665  0.00  0.00    +0.035 A 
ATOM     23  C   UNL     1      10.674   4.281   0.584  0.00  0.00    +0.023 A 
ATOM     24  C   UNL     1      12.725   3.387   1.495  0.00  0.00    +0.023 A 
ATOM     25  C   UNL     1      11.196   4.169  -0.705  0.00  0.00    +0.005 A 
ATOM     26  C   UNL     1      13.247   3.274   0.206  0.00  0.00    +0.005 A 
ATOM     27  C   UNL     1      12.484   3.665  -0.893  0.00  0.00    -0.050 A 
ATOM     28  C   UNL     1      13.042   3.544  -2.271  0.00  0.00    +0.044 C 
ENDBRANCH   9  22
ENDBRANCH  12   7
BRANCH  11  17
ATOM      4  O   UNL     1       9.068  10.254   7.311  0.00  0.00    -0.273 OA
ATOM      8  N   UNL     1       8.373   9.132   5.393  0.00  0.00    -0.302 N 
ATOM     17  C   UNL     1       9.033   9.249   6.605  0.00  0.00    +0.245 C 
ATOM     33  H   UNL     1       8.371   8.245   4.900  0.00  0.00    +0.150 HD
BRANCH   8  19
ATOM     19  C   UNL     1       7.623  10.212   4.794  0.00  0.00    +0.156 C 
ATOM     20  C   UNL     1       6.636   9.687   3.763  0.00  0.00    +0.038 C 
BRANCH  19  21
ATOM      6  O   UNL     1       9.190  10.969   3.100  0.00  0.00    -0.274 OA
ATOM     10  N   UNL     1       8.749  12.349   4.882  0.00  0.00    -0.328 N 
ATOM     21  C   UNL     1       8.608  11.182   4.161  0.00  0.00    +0.231 C 
ATOM     35  H   UNL     1       9.368  13.086   4.564  0.00  0.00    +0.145 HD
ATOM     36  H   UNL     1       8.247  12.520   5.748  0.00  0.00    +0.145 HD
ENDBRANCH  19  21
ENDBRANCH   8  19
ENDBRANCH  11  17
BRANCH  11   1
ATOM      1  O   UNL     1      11.013   8.366   7.431  0.00  0.00    -0.379 OA
ATOM     30  H   UNL     1      10.920   8.982   8.178  0.00  0.00    +0.211 HD
ENDBRANCH  11   1
BRANCH  14   2
ATOM      2  O   UNL     1      10.454   3.891   7.846  0.00  0.00    -0.387 OA
ATOM     31  H   UNL     1       9.819   3.181   8.040  0.00  0.00    +0.210 HD
ENDBRANCH  14   2
BRANCH  16   3
ATOM      3  O   UNL     1       8.773   5.391   9.586  0.00  0.00    -0.389 OA
ATOM     32  H   UNL     1       7.924   5.162   9.172  0.00  0.00    +0.210 HD
ENDBRANCH  16   3
TORSDOF 8
ENDMDL
MODEL 5
REMARK VINA RESULT:      -6.5     14.010     17.110
REMARK  Name = 11866353
REMARK  10 active torsions:
REMARK  status: ('A' for Active; 'I' for Inactive)
REMARK    1  A    between atoms: O_1  and  C_11
REMARK    2  A    between atoms: O_2  and  C_14
REMARK    3  A    between atoms: O_3  and  C_16
REMARK    4  A    between atoms: N_7  and  C_12
REMARK    5  A    between atoms: N_8  and  C_19
REMARK    6  A    between atoms: N_9  and  C_22
REMARK    7  A    between atoms: C_11  and  C_17
REMARK    8  A    between atoms: C_19  and  C_20
REMARK    9  A    between atoms: C_19  and  C_21
REMARK   10  A    between atoms: C_27  and  C_28
REMARK                            x       y       z     vdW  Elec       q    Type
REMARK                         _______ _______ _______ _____ _____    ______ ____
ROOT
ATOM     11  C   UNL     1       9.679   7.949   7.021  0.00  0.00    +0.146 C 
ATOM     12  C   UNL     1      10.417   5.651   6.227  0.00  0.00    +0.109 C 
ATOM     13  C   UNL     1       9.779   6.988   5.835  0.00  0.00    +0.069 C 
ATOM     14  C   UNL     1       9.705   5.007   7.424  0.00  0.00    +0.163 C 
ATOM     15  C   UNL     1       8.949   7.304   8.198  0.00  0.00    +0.078 C 
ATOM     16  C   UNL     1       9.582   5.973   8.606  0.00  0.00    +0.148 C 
ENDROOT
BRANCH  12   7
ATOM      5  O   UNL     1      11.776   6.041   3.736  0.00  0.00    -0.252 OA
ATOM      7  N   UNL     1      10.414   4.756   5.091  0.00  0.00    -0.294 N 
ATOM      9  N   UNL     1      10.920   3.986   2.992  0.00  0.00    -0.269 N 
ATOM     18  C   UNL     1      11.108   5.025   3.909  0.00  0.00    +0.304 C 
ATOM     29  H   UNL     1       9.821   3.931   5.127  0.00  0.00    +0.151 HD
ATOM     34  H   UNL     1      10.334   3.212   3.295  0.00  0.00    +0.156 HD
BRANCH   9  22
ATOM     22  C   UNL     1      11.450   3.874   1.685  0.00  0.00    +0.035 A 
ATOM     23  C   UNL     1      12.728   3.370   1.512  0.00  0.00    +0.023 A 
ATOM     24  C   UNL     1      10.678   4.272   0.605  0.00  0.00    +0.023 A 
ATOM     25  C   UNL     1      13.250   3.260   0.223  0.00  0.00    +0.005 A 
ATOM     26  C   UNL     1      11.201   4.162  -0.684  0.00  0.00    +0.005 A 
ATOM     27  C   UNL     1      12.485   3.655  -0.875  0.00  0.00    -0.050 A 
ATOM     28  C   UNL     1      13.044   3.538  -2.253  0.00  0.00    +0.044 C 
ENDBRANCH   9  22
ENDBRANCH  12   7
BRANCH  11  17
ATOM      4  O   UNL     1       8.102   9.231   5.764  0.00  0.00    -0.273 OA
ATOM      8  N   UNL     1       9.477  10.322   7.293  0.00  0.00    -0.302 N 
ATOM     17  C   UNL     1       8.986   9.218   6.616  0.00  0.00    +0.245 C 
ATOM     33  H   UNL     1      10.239  10.213   7.955  0.00  0.00    +0.150 HD
BRANCH   8  19
ATOM     19  C   UNL     1       8.994  11.665   7.070  0.00  0.00    +0.156 C 
ATOM     20  C   UNL     1       9.888  12.413   6.093  0.00  0.00    +0.038 C 
BRANCH  19  21
ATOM      6  O   UNL     1       8.785  13.592   8.534  0.00  0.00    -0.274 OA
ATOM     10  N   UNL     1       9.028  11.514   9.482  0.00  0.00    -0.328 N 
ATOM     21  C   UNL     1       8.936  12.378   8.412  0.00  0.00    +0.231 C 
ATOM     35  H   UNL     1       8.991  11.859  10.435  0.00  0.00    +0.145 HD
ATOM     36  H   UNL     1       9.133  10.511   9.366  0.00  0.00    +0.145 HD
ENDBRANCH  19  21
ENDBRANCH   8  19
ENDBRANCH  11  17
BRANCH  11   1
ATOM      1  O   UNL     1      10.975   8.356   7.444  0.00  0.00    -0.379 OA
ATOM     30  H   UNL     1      11.137   9.258   7.117  0.00  0.00    +0.211 HD
ENDBRANCH  11   1
BRANCH  14   2
ATOM      2  O   UNL     1      10.461   3.876   7.866  0.00  0.00    -0.387 OA
ATOM     31  H   UNL     1      10.204   3.691   8.785  0.00  0.00    +0.210 HD
ENDBRANCH  14   2
BRANCH  16   3
ATOM      3  O   UNL     1       8.766   5.362   9.605  0.00  0.00    -0.389 OA
ATOM     32  H   UNL     1       9.344   4.823  10.172  0.00  0.00    +0.210 HD
ENDBRANCH  16   3
TORSDOF 8
ENDMDL
MODEL 6
REMARK VINA RESULT:      -6.3     26.640     29.621
REMARK  Name = 11866353
REMARK  10 active torsions:
REMARK  status: ('A' for Active; 'I' for Inactive)
REMARK    1  A    between atoms: O_1  and  C_11
REMARK    2  A    between atoms: O_2  and  C_14
REMARK    3  A    between atoms: O_3  and  C_16
REMARK    4  A    between atoms: N_7  and  C_12
REMARK    5  A    between atoms: N_8  and  C_19
REMARK    6  A    between atoms: N_9  and  C_22
REMARK    7  A    between atoms: C_11  and  C_17
REMARK    8  A    between atoms: C_19  and  C_20
REMARK    9  A    between atoms: C_19  and  C_21
REMARK   10  A    between atoms: C_27  and  C_28
REMARK                            x       y       z     vdW  Elec       q    Type
REMARK                         _______ _______ _______ _____ _____    ______ ____
ROOT
ATOM     11  C   UNL     1      -4.487 -11.564  14.043  0.00  0.00    +0.146 C 
ATOM     12  C   UNL     1      -5.843 -10.462  15.887  0.00  0.00    +0.109 C 
ATOM     13  C   UNL     1      -5.492 -10.467  14.395  0.00  0.00    +0.069 C 
ATOM     14  C   UNL     1      -4.589 -10.390  16.768  0.00  0.00    +0.163 C 
ATOM     15  C   UNL     1      -3.234 -11.469  14.913  0.00  0.00    +0.078 C 
ATOM     16  C   UNL     1      -3.569 -11.473  16.405  0.00  0.00    +0.148 C 
ENDROOT
BRANCH  12   7
ATOM      5  O   UNL     1      -8.674 -10.387  15.459  0.00  0.00    -0.252 OA
ATOM      7  N   UNL     1      -6.732  -9.358  16.175  0.00  0.00    -0.294 N 
ATOM      9  N   UNL     1      -8.706  -8.200  16.311  0.00  0.00    -0.269 N 
ATOM     18  C   UNL     1      -8.108  -9.406  15.935  0.00  0.00    +0.304 C 
ATOM     29  H   UNL     1      -6.328  -8.483  16.499  0.00  0.00    +0.151 HD
ATOM     34  H   UNL     1      -8.090  -7.485  16.691  0.00  0.00    +0.156 HD
BRANCH   9  22
ATOM     22  C   UNL     1     -10.073  -7.846  16.230  0.00  0.00    +0.035 A 
ATOM     23  C   UNL     1     -11.026  -8.686  16.780  0.00  0.00    +0.023 A 
ATOM     24  C   UNL     1     -10.431  -6.664  15.600  0.00  0.00    +0.023 A 
ATOM     25  C   UNL     1     -12.374  -8.337  16.700  0.00  0.00    +0.005 A 
ATOM     26  C   UNL     1     -11.779  -6.315  15.521  0.00  0.00    +0.005 A 
ATOM     27  C   UNL     1     -12.750  -7.150  16.071  0.00  0.00    -0.050 A 
ATOM     28  C   UNL     1     -14.191  -6.777  15.985  0.00  0.00    +0.044 C 
ENDBRANCH   9  22
ENDBRANCH  12   7
BRANCH  11  17
ATOM      4  O   UNL     1      -4.004 -12.503  11.899  0.00  0.00    -0.273 OA
ATOM      8  N   UNL     1      -3.898 -10.193  12.167  0.00  0.00    -0.302 N 
ATOM     17  C   UNL     1      -4.113 -11.494  12.591  0.00  0.00    +0.245 C 
ATOM     33  H   UNL     1      -3.977  -9.426  12.827  0.00  0.00    +0.150 HD
BRANCH   8  19
ATOM     19  C   UNL     1      -3.506  -9.856  10.818  0.00  0.00    +0.156 C 
ATOM     20  C   UNL     1      -2.099  -9.282  10.784  0.00  0.00    +0.038 C 
BRANCH  19  21
ATOM      6  O   UNL     1      -5.373  -8.306  10.948  0.00  0.00    -0.274 OA
ATOM     10  N   UNL     1      -4.337  -8.609   8.921  0.00  0.00    -0.328 N 
ATOM     21  C   UNL     1      -4.514  -8.860  10.265  0.00  0.00    +0.231 C 
ATOM     35  H   UNL     1      -4.935  -7.954   8.430  0.00  0.00    +0.145 HD
ATOM     36  H   UNL     1      -3.610  -9.058   8.373  0.00  0.00    +0.145 HD
ENDBRANCH  19  21
ENDBRANCH   8  19
ENDBRANCH  11  17
BRANCH  11   1
ATOM      1  O   UNL     1      -5.073 -12.850  14.210  0.00  0.00    -0.379 OA
ATOM     30  H   UNL     1      -4.414 -13.438  14.618  0.00  0.00    +0.211 HD
ENDBRANCH  11   1
BRANCH  14   2
ATOM      2  O   UNL     1      -4.965 -10.590  18.134  0.00  0.00    -0.387 OA
ATOM     31  H   UNL     1      -5.228 -11.520  18.234  0.00  0.00    +0.210 HD
ENDBRANCH  14   2
BRANCH  16   3
ATOM      3  O   UNL     1      -2.373 -11.233  17.146  0.00  0.00    -0.389 OA
ATOM     32  H   UNL     1      -1.662 -11.050  16.510  0.00  0.00    +0.210 HD
ENDBRANCH  16   3
TORSDOF 8
ENDMDL
MODEL 7
REMARK VINA RESULT:      -6.2     17.878     21.631
REMARK  Name = 11866353
REMARK  10 active torsions:
REMARK  status: ('A' for Active; 'I' for Inactive)
REMARK    1  A    between atoms: O_1  and  C_11
REMARK    2  A    between atoms: O_2  and  C_14
REMARK    3  A    between atoms: O_3  and  C_16
REMARK    4  A    between atoms: N_7  and  C_12
REMARK    5  A    between atoms: N_8  and  C_19
REMARK    6  A    between atoms: N_9  and  C_22
REMARK    7  A    between atoms: C_11  and  C_17
REMARK    8  A    between atoms: C_19  and  C_20
REMARK    9  A    between atoms: C_19  and  C_21
REMARK   10  A    between atoms: C_27  and  C_28
REMARK                            x       y       z     vdW  Elec       q    Type
REMARK                         _______ _______ _______ _____ _____    ______ ____
ROOT
ATOM     11  C   UNL     1      12.858   3.934  -1.328  0.00  0.00    +0.146 C 
ATOM     12  C   UNL     1      12.895   3.288   1.130  0.00  0.00    +0.109 C 
ATOM     13  C   UNL     1      12.095   3.943  -0.002  0.00  0.00    +0.069 C 
ATOM     14  C   UNL     1      14.292   3.906   1.273  0.00  0.00    +0.163 C 
ATOM     15  C   UNL     1      14.239   4.570  -1.177  0.00  0.00    +0.078 C 
ATOM     16  C   UNL     1      15.052   3.920  -0.057  0.00  0.00    +0.148 C 
ENDROOT
BRANCH  12   7
ATOM      5  O   UNL     1      12.002   5.702   2.387  0.00  0.00    -0.252 OA
ATOM      7  N   UNL     1      12.161   3.396   2.372  0.00  0.00    -0.294 N 
ATOM      9  N   UNL     1      11.075   4.412   4.115  0.00  0.00    -0.269 N 
ATOM     18  C   UNL     1      11.763   4.619   2.916  0.00  0.00    +0.304 C 
ATOM     29  H   UNL     1      11.992   2.550   2.909  0.00  0.00    +0.151 HD
ATOM     34  H   UNL     1      10.961   3.447   4.415  0.00  0.00    +0.156 HD
BRANCH   9  22
ATOM     22  C   UNL     1      10.510   5.386   4.972  0.00  0.00    +0.035 A 
ATOM     23  C   UNL     1      11.345   6.241   5.672  0.00  0.00    +0.023 A 
ATOM     24  C   UNL     1       9.132   5.465   5.092  0.00  0.00    +0.023 A 
ATOM     25  C   UNL     1      10.788   7.202   6.517  0.00  0.00    +0.005 A 
ATOM     26  C   UNL     1       8.575   6.426   5.937  0.00  0.00    +0.005 A 
ATOM     27  C   UNL     1       9.402   7.294   6.648  0.00  0.00    -0.050 A 
ATOM     28  C   UNL     1       8.806   8.321   7.551  0.00  0.00    +0.044 C 
ENDBRANCH   9  22
ENDBRANCH  12   7
BRANCH  11  17
ATOM      4  O   UNL     1      12.618   5.376  -3.217  0.00  0.00    -0.273 OA
ATOM      8  N   UNL     1      10.718   4.388  -2.306  0.00  0.00    -0.302 N 
ATOM     17  C   UNL     1      12.076   4.645  -2.393  0.00  0.00    +0.245 C 
ATOM     33  H   UNL     1      10.361   3.795  -1.563  0.00  0.00    +0.150 HD
BRANCH   8  19
ATOM     19  C   UNL     1       9.744   4.968  -3.202  0.00  0.00    +0.156 C 
ATOM     20  C   UNL     1       8.733   5.809  -2.441  0.00  0.00    +0.038 C 
BRANCH  19  21
ATOM      6  O   UNL     1       9.105   2.660  -3.609  0.00  0.00    -0.274 OA
ATOM     10  N   UNL     1       8.337   4.281  -5.043  0.00  0.00    -0.328 N 
ATOM     21  C   UNL     1       9.057   3.838  -3.954  0.00  0.00    +0.231 C 
ATOM     35  H   UNL     1       7.821   3.630  -5.626  0.00  0.00    +0.145 HD
ATOM     36  H   UNL     1       8.291   5.260  -5.306  0.00  0.00    +0.145 HD
ENDBRANCH  19  21
ENDBRANCH   8  19
ENDBRANCH  11  17
BRANCH  11   1
ATOM      1  O   UNL     1      13.009   2.603  -1.807  0.00  0.00    -0.379 OA
ATOM     30  H   UNL     1      12.280   2.064  -1.455  0.00  0.00    +0.211 HD
ENDBRANCH  11   1
BRANCH  14   2
ATOM      2  O   UNL     1      15.055   3.128   2.199  0.00  0.00    -0.387 OA
ATOM     31  H   UNL     1      14.462   2.865   2.922  0.00  0.00    +0.210 HD
ENDBRANCH  14   2
BRANCH  16   3
ATOM      3  O   UNL     1      16.261   4.657   0.122  0.00  0.00    -0.389 OA
ATOM     32  H   UNL     1      16.933   4.045   0.468  0.00  0.00    +0.210 HD
ENDBRANCH  16   3
TORSDOF 8
ENDMDL
MODEL 8
REMARK VINA RESULT:      -6.0     27.354     30.456
REMARK  Name = 11866353
REMARK  10 active torsions:
REMARK  status: ('A' for Active; 'I' for Inactive)
REMARK    1  A    between atoms: O_1  and  C_11
REMARK    2  A    between atoms: O_2  and  C_14
REMARK    3  A    between atoms: O_3  and  C_16
REMARK    4  A    between atoms: N_7  and  C_12
REMARK    5  A    between atoms: N_8  and  C_19
REMARK    6  A    between atoms: N_9  and  C_22
REMARK    7  A    between atoms: C_11  and  C_17
REMARK    8  A    between atoms: C_19  and  C_20
REMARK    9  A    between atoms: C_19  and  C_21
REMARK   10  A    between atoms: C_27  and  C_28
REMARK                            x       y       z     vdW  Elec       q    Type
REMARK                         _______ _______ _______ _____ _____    ______ ____
ROOT
ATOM     11  C   UNL     1      -5.085 -12.113  16.596  0.00  0.00    +0.146 C 
ATOM     12  C   UNL     1      -6.800 -11.413  18.336  0.00  0.00    +0.109 C 
ATOM     13  C   UNL     1      -6.267 -11.196  16.915  0.00  0.00    +0.069 C 
ATOM     14  C   UNL     1      -5.688 -11.296  19.387  0.00  0.00    +0.163 C 
ATOM     15  C   UNL     1      -3.976 -11.972  17.638  0.00  0.00    +0.078 C 
ATOM     16  C   UNL     1      -4.493 -12.195  19.060  0.00  0.00    +0.148 C 
ENDROOT
BRANCH  12   7
ATOM      5  O   UNL     1      -9.588 -12.003  18.619  0.00  0.00    -0.252 OA
ATOM      7  N   UNL     1      -7.861 -10.468  18.609  0.00  0.00    -0.294 N 
ATOM      9  N   UNL     1      -9.993  -9.722  18.996  0.00  0.00    -0.269 N 
ATOM     18  C   UNL     1      -9.200 -10.843  18.733  0.00  0.00    +0.304 C 
ATOM     29  H   UNL     1      -7.630  -9.479  18.640  0.00  0.00    +0.151 HD
ATOM     34  H   UNL     1      -9.511  -8.829  19.061  0.00  0.00    +0.156 HD
BRANCH   9  22
ATOM     22  C   UNL     1     -11.394  -9.674  19.188  0.00  0.00    +0.035 A 
ATOM     23  C   UNL     1     -12.218  -9.410  18.107  0.00  0.00    +0.023 A 
ATOM     24  C   UNL     1     -11.912  -9.893  20.454  0.00  0.00    +0.023 A 
ATOM     25  C   UNL     1     -13.600  -9.363  18.296  0.00  0.00    +0.005 A 
ATOM     26  C   UNL     1     -13.294  -9.846  20.643  0.00  0.00    +0.005 A 
ATOM     27  C   UNL     1     -14.137  -9.582  19.565  0.00  0.00    -0.050 A 
ATOM     28  C   UNL     1     -15.614  -9.532  19.767  0.00  0.00    +0.044 C 
ENDBRANCH   9  22
ENDBRANCH  12   7
BRANCH  11  17
ATOM      4  O   UNL     1      -5.245 -11.329  14.344  0.00  0.00    -0.273 OA
ATOM      8  N   UNL     1      -3.219 -12.196  15.095  0.00  0.00    -0.302 N 
ATOM     17  C   UNL     1      -4.546 -11.823  15.225  0.00  0.00    +0.245 C 
ATOM     33  H   UNL     1      -2.736 -12.633  15.874  0.00  0.00    +0.150 HD
BRANCH   8  19
ATOM     19  C   UNL     1      -2.472 -12.043  13.868  0.00  0.00    +0.156 C 
ATOM     20  C   UNL     1      -1.336 -13.050  13.789  0.00  0.00    +0.038 C 
BRANCH  19  21
ATOM      6  O   UNL     1      -1.566  -9.987  14.793  0.00  0.00    -0.274 OA
ATOM     10  N   UNL     1      -1.887 -10.122  12.523  0.00  0.00    -0.328 N 
ATOM     21  C   UNL     1      -1.942 -10.618  13.808  0.00  0.00    +0.231 C 
ATOM     35  H   UNL     1      -1.541  -9.186  12.340  0.00  0.00    +0.145 HD
ATOM     36  H   UNL     1      -2.182 -10.662  11.716  0.00  0.00    +0.145 HD
ENDBRANCH  19  21
ENDBRANCH   8  19
ENDBRANCH  11  17
BRANCH  11   1
ATOM      1  O   UNL     1      -5.507 -13.471  16.547  0.00  0.00    -0.379 OA
ATOM     30  H   UNL     1      -4.932 -13.994  17.131  0.00  0.00    +0.211 HD
ENDBRANCH  11   1
BRANCH  14   2
ATOM      2  O   UNL     1      -6.201 -11.703  20.658  0.00  0.00    -0.387 OA
ATOM     31  H   UNL     1      -5.469 -12.100  21.158  0.00  0.00    +0.210 HD
ENDBRANCH  14   2
BRANCH  16   3
ATOM      3  O   UNL     1      -3.443 -11.904  19.982  0.00  0.00    -0.389 OA
ATOM     32  H   UNL     1      -3.691 -12.283  20.842  0.00  0.00    +0.210 HD
ENDBRANCH  16   3
TORSDOF 8
ENDMDL
MODEL 9
REMARK VINA RESULT:      -6.0     27.833     30.024
REMARK  Name = 11866353
REMARK  10 active torsions:
REMARK  status: ('A' for Active; 'I' for Inactive)
REMARK    1  A    between atoms: O_1  and  C_11
REMARK    2  A    between atoms: O_2  and  C_14
REMARK    3  A    between atoms: O_3  and  C_16
REMARK    4  A    between atoms: N_7  and  C_12
REMARK    5  A    between atoms: N_8  and  C_19
REMARK    6  A    between atoms: N_9  and  C_22
REMARK    7  A    between atoms: C_11  and  C_17
REMARK    8  A    between atoms: C_19  and  C_20
REMARK    9  A    between atoms: C_19  and  C_21
REMARK   10  A    between atoms: C_27  and  C_28
REMARK                            x       y       z     vdW  Elec       q    Type
REMARK                         _______ _______ _______ _____ _____    ______ ____
ROOT
ATOM     11  C   UNL     1     -10.748 -10.708  19.685  0.00  0.00    +0.146 C 
ATOM     12  C   UNL     1      -8.647 -12.113  19.426  0.00  0.00    +0.109 C 
ATOM     13  C   UNL     1      -9.575 -11.081  18.777  0.00  0.00    +0.069 C 
ATOM     14  C   UNL     1      -9.415 -13.353  19.901  0.00  0.00    +0.163 C 
ATOM     15  C   UNL     1     -11.517 -11.949  20.136  0.00  0.00    +0.078 C 
ATOM     16  C   UNL     1     -10.604 -12.984  20.793  0.00  0.00    +0.148 C 
ENDROOT
BRANCH  12   7
ATOM      5  O   UNL     1      -6.648 -10.390  18.312  0.00  0.00    -0.252 OA
ATOM      7  N   UNL     1      -7.605 -12.487  18.494  0.00  0.00    -0.294 N 
ATOM      9  N   UNL     1      -5.787 -12.222  17.123  0.00  0.00    -0.269 N 
ATOM     18  C   UNL     1      -6.666 -11.578  17.999  0.00  0.00    +0.304 C 
ATOM     29  H   UNL     1      -7.601 -13.435  18.128  0.00  0.00    +0.151 HD
ATOM     34  H   UNL     1      -5.941 -13.216  16.972  0.00  0.00    +0.156 HD
BRANCH   9  22
ATOM     22  C   UNL     1      -4.700 -11.660  16.414  0.00  0.00    +0.035 A 
ATOM     23  C   UNL     1      -3.534 -11.351  17.094  0.00  0.00    +0.023 A 
ATOM     24  C   UNL     1      -4.824 -11.429  15.053  0.00  0.00    +0.023 A 
ATOM     25  C   UNL     1      -2.461 -10.796  16.395  0.00  0.00    +0.005 A 
ATOM     26  C   UNL     1      -3.752 -10.875  14.355  0.00  0.00    +0.005 A 
ATOM     27  C   UNL     1      -2.571 -10.559  15.025  0.00  0.00    -0.050 A 
ATOM     28  C   UNL     1      -1.424  -9.966  14.277  0.00  0.00    +0.044 C 
ENDBRANCH   9  22
ENDBRANCH  12   7
BRANCH  11  17
ATOM      4  O   UNL     1     -12.831  -9.583  19.362  0.00  0.00    -0.273 OA
ATOM      8  N   UNL     1     -11.069  -9.131  17.910  0.00  0.00    -0.302 N 
ATOM     17  C   UNL     1     -11.672  -9.751  18.991  0.00  0.00    +0.245 C 
ATOM     33  H   UNL     1     -10.114  -9.366  17.659  0.00  0.00    +0.150 HD
BRANCH   8  19
ATOM     19  C   UNL     1     -11.751  -8.181  17.061  0.00  0.00    +0.156 C 
ATOM     20  C   UNL     1     -12.500  -8.887  15.942  0.00  0.00    +0.038 C 
BRANCH  19  21
ATOM      6  O   UNL     1      -9.662  -7.570  15.983  0.00  0.00    -0.274 OA
ATOM     10  N   UNL     1     -11.111  -5.897  16.598  0.00  0.00    -0.328 N 
ATOM     21  C   UNL     1     -10.718  -7.215  16.502  0.00  0.00    +0.231 C 
ATOM     35  H   UNL     1     -10.518  -5.150  16.251  0.00  0.00    +0.145 HD
ATOM     36  H   UNL     1     -11.995  -5.620  17.011  0.00  0.00    +0.145 HD
ENDBRANCH  19  21
ENDBRANCH   8  19
ENDBRANCH  11  17
BRANCH  11   1
ATOM      1  O   UNL     1     -10.285 -10.006  20.834  0.00  0.00    -0.379 OA
ATOM     30  H   UNL     1     -10.990  -9.407  21.133  0.00  0.00    +0.211 HD
ENDBRANCH  11   1
BRANCH  14   2
ATOM      2  O   UNL     1      -8.538 -14.181  20.670  0.00  0.00    -0.387 OA
ATOM     31  H   UNL     1      -8.137 -14.827  20.065  0.00  0.00    +0.210 HD
ENDBRANCH  14   2
BRANCH  16   3
ATOM      3  O   UNL     1     -11.359 -14.167  21.051  0.00  0.00    -0.389 OA
ATOM     32  H   UNL     1     -11.039 -14.548  21.887  0.00  0.00    +0.210 HD
ENDBRANCH  16   3
TORSDOF 8
ENDMDL
MODEL 10
REMARK VINA RESULT:      -5.9     27.398     29.450
REMARK  Name = 11866353
REMARK  10 active torsions:
REMARK  status: ('A' for Active; 'I' for Inactive)
REMARK    1  A    between atoms: O_1  and  C_11
REMARK    2  A    between atoms: O_2  and  C_14
REMARK    3  A    between atoms: O_3  and  C_16
REMARK    4  A    between atoms: N_7  and  C_12
REMARK    5  A    between atoms: N_8  and  C_19
REMARK    6  A    between atoms: N_9  and  C_22
REMARK    7  A    between atoms: C_11  and  C_17
REMARK    8  A    between atoms: C_19  and  C_20
REMARK    9  A    between atoms: C_19  and  C_21
REMARK   10  A    between atoms: C_27  and  C_28
REMARK                            x       y       z     vdW  Elec       q    Type
REMARK                         _______ _______ _______ _____ _____    ______ ____
ROOT
ATOM     11  C   UNL     1      -6.535 -11.424  17.944  0.00  0.00    +0.146 C 
ATOM     12  C   UNL     1      -4.722 -11.206  16.178  0.00  0.00    +0.109 C 
ATOM     13  C   UNL     1      -6.137 -11.701  16.494  0.00  0.00    +0.069 C 
ATOM     14  C   UNL     1      -3.689 -11.760  17.168  0.00  0.00    +0.163 C 
ATOM     15  C   UNL     1      -5.509 -11.998  18.921  0.00  0.00    +0.078 C 
ATOM     16  C   UNL     1      -4.093 -11.504  18.622  0.00  0.00    +0.148 C 
ENDROOT
BRANCH  12   7
ATOM      5  O   UNL     1      -5.642  -9.941  13.778  0.00  0.00    -0.252 OA
ATOM      7  N   UNL     1      -4.371 -11.565  14.821  0.00  0.00    -0.294 N 
ATOM      9  N   UNL     1      -4.356 -11.458  12.531  0.00  0.00    -0.269 N 
ATOM     18  C   UNL     1      -4.867 -10.891  13.703  0.00  0.00    +0.304 C 
ATOM     29  H   UNL     1      -3.795 -12.390  14.673  0.00  0.00    +0.151 HD
ATOM     34  H   UNL     1      -3.721 -12.245  12.645  0.00  0.00    +0.156 HD
BRANCH   9  22
ATOM     22  C   UNL     1      -4.611 -11.069  11.195  0.00  0.00    +0.035 A 
ATOM     23  C   UNL     1      -3.811 -10.106  10.604  0.00  0.00    +0.023 A 
ATOM     24  C   UNL     1      -5.658 -11.661  10.506  0.00  0.00    +0.023 A 
ATOM     25  C   UNL     1      -4.063  -9.723   9.286  0.00  0.00    +0.005 A 
ATOM     26  C   UNL     1      -5.909 -11.278   9.188  0.00  0.00    +0.005 A 
ATOM     27  C   UNL     1      -5.112 -10.310   8.579  0.00  0.00    -0.050 A 
ATOM     28  C   UNL     1      -5.382  -9.901   7.170  0.00  0.00    +0.044 C 
ENDBRANCH   9  22
ENDBRANCH  12   7
BRANCH  11  17
ATOM      4  O   UNL     1      -8.084 -13.190  18.383  0.00  0.00    -0.273 OA
ATOM      8  N   UNL     1      -8.868 -10.999  18.293  0.00  0.00    -0.302 N 
ATOM     17  C   UNL     1      -7.896 -11.985  18.237  0.00  0.00    +0.245 C 
ATOM     33  H   UNL     1      -8.618 -10.031  18.121  0.00  0.00    +0.150 HD
BRANCH   8  19
ATOM     19  C   UNL     1     -10.264 -11.279  18.539  0.00  0.00    +0.156 C 
ATOM     20  C   UNL     1     -11.153 -10.221  17.906  0.00  0.00    +0.038 C 
BRANCH  19  21
ATOM      6  O   UNL     1     -10.553 -12.391  20.679  0.00  0.00    -0.274 OA
ATOM     10  N   UNL     1     -10.538 -10.095  20.628  0.00  0.00    -0.328 N 
ATOM     21  C   UNL     1     -10.478 -11.342  20.043  0.00  0.00    +0.231 C 
ATOM     35  H   UNL     1     -10.667  -9.995  21.629  0.00  0.00    +0.145 HD
ATOM     36  H   UNL     1     -10.455  -9.237  20.093  0.00  0.00    +0.145 HD
ENDBRANCH  19  21
ENDBRANCH   8  19
ENDBRANCH  11  17
BRANCH  11   1
ATOM      1  O   UNL     1      -6.657 -10.024  18.168  0.00  0.00    -0.379 OA
ATOM     30  H   UNL     1      -5.852  -9.712  18.615  0.00  0.00    +0.211 HD
ENDBRANCH  11   1
BRANCH  14   2
ATOM      2  O   UNL     1      -2.434 -11.110  16.947  0.00  0.00    -0.387 OA
ATOM     31  H   UNL     1      -2.200 -10.634  17.761  0.00  0.00    +0.210 HD
ENDBRANCH  14   2
BRANCH  16   3
ATOM      3  O   UNL     1      -3.176 -12.192  19.473  0.00  0.00    -0.389 OA
ATOM     32  H   UNL     1      -3.664 -12.905  19.919  0.00  0.00    +0.210 HD
ENDBRANCH  16   3
TORSDOF 8
ENDMDL
