REMARK  Name = 11884463
REMARK  7 active torsions:
REMARK  status: ('A' for Active; 'I' for Inactive)
REMARK    1  A    between atoms: S_1  and  N_7
REMARK    2  A    between atoms: S_1  and  C_21
REMARK    3  A    between atoms: O_6  and  C_33
REMARK    4  A    between atoms: O_6  and  C_34
REMARK    5  A    between atoms: N_9  and  C_20
REMARK    6  A    between atoms: C_28  and  C_30
REMARK    7  A    between atoms: C_30  and  C_33
REMARK                            x       y       z     vdW  Elec       q    Type
REMARK                         _______ _______ _______ _____ _____    ______ ____
ROOT
ATOM      4  O   UNL     1      -2.979  -2.134   1.742  0.00  0.00    -0.266 OA
ATOM      7  N   UNL     1       1.287  -0.273  -0.036  0.00  0.00    -0.176 NA
ATOM      8  N   UNL     1      -1.424  -1.899   0.014  0.00  0.00    -0.310 N 
ATOM     11  C   UNL     1       0.988  -2.741   0.194  0.00  0.00    +0.025 C 
ATOM     12  C   UNL     1       0.242  -1.609  -1.855  0.00  0.00    +0.052 C 
ATOM     13  C   UNL     1       0.904  -2.877  -1.321  0.00  0.00    +0.017 C 
ATOM     14  C   UNL     1       1.833  -1.516   0.580  0.00  0.00    +0.114 C 
ATOM     15  C   UNL     1       1.118  -0.389  -1.516  0.00  0.00    +0.119 C 
ATOM     16  C   UNL     1      -0.433  -2.678   0.768  0.00  0.00    +0.130 C 
ATOM     17  C   UNL     1      -1.151  -1.437  -1.278  0.00  0.00    +0.026 A 
ATOM     18  C   UNL     1      -2.110  -0.825  -1.993  0.00  0.00    +0.024 A 
ATOM     19  C   UNL     1      -2.688  -1.731   0.615  0.00  0.00    +0.273 A 
ATOM     20  C   UNL     1      -3.721  -1.024  -0.207  0.00  0.00    +0.099 A 
ATOM     22  C   UNL     1      -3.420  -0.615  -1.443  0.00  0.00    +0.030 A 
ENDROOT
BRANCH  20   9
ATOM      5  O   UNL     1      -5.517   1.132  -0.776  0.00  0.00    -0.275 OA
ATOM      9  N   UNL     1      -4.954  -0.831   0.344  0.00  0.00    -0.281 N 
ATOM     28  C   UNL     1      -5.781   0.240   0.026  0.00  0.00    +0.220 C 
ATOM     35  H   UNL     1      -5.174  -1.372   1.177  0.00  0.00    +0.155 HD
BRANCH  28  30
ATOM     30  C   UNL     1      -7.088   0.180   0.803  0.00  0.00    +0.124 C 
BRANCH  30  33
ATOM     33  C   UNL     1      -8.023   1.336   0.483  0.00  0.00    +0.168 C 
BRANCH  33   6
ATOM      6  O   UNL     1      -7.398   2.562   0.842  0.00  0.00    -0.382 OA
ATOM     34  C   UNL     1      -8.239   3.675   0.570  0.00  0.00    +0.194 C 
ENDBRANCH  33   6
ENDBRANCH  30  33
ENDBRANCH  28  30
ENDBRANCH  20   9
BRANCH   7   1
ATOM      1  S   UNL     1       1.979   1.192   0.517  0.00  0.00    +0.063 S 
ATOM      2  O   UNL     1       2.229   1.076   1.938  0.00  0.00    -0.153 OA
ATOM      3  O   UNL     1       1.243   2.306  -0.043  0.00  0.00    -0.153 OA
BRANCH   1  21
ATOM     10  N   UNL     1       4.559   0.189   1.622  0.00  0.00    -0.253 NA
ATOM     21  C   UNL     1       3.602   1.333  -0.223  0.00  0.00    +0.131 A 
ATOM     23  C   UNL     1       4.691   0.808   0.434  0.00  0.00    +0.097 A 
ATOM     24  C   UNL     1       3.671   1.978  -1.443  0.00  0.00    +0.031 A 
ATOM     25  C   UNL     1       5.944   0.950  -0.197  0.00  0.00    +0.002 A 
ATOM     26  C   UNL     1       4.909   2.114  -2.058  0.00  0.00    +0.003 A 
ATOM     27  C   UNL     1       6.045   1.601  -1.438  0.00  0.00    +0.010 A 
ATOM     29  C   UNL     1       7.071   0.424   0.449  0.00  0.00    +0.011 A 
ATOM     31  C   UNL     1       5.672  -0.304   2.213  0.00  0.00    +0.111 A 
ATOM     32  C   UNL     1       6.939  -0.214   1.674  0.00  0.00    +0.020 A 
ENDBRANCH   1  21
ENDBRANCH   7   1
TORSDOF 6
