REMARK  Name = 26743147
REMARK  8 active torsions:
REMARK  status: ('A' for Active; 'I' for Inactive)
REMARK    1  A    between atoms: O_3  and  C_19
REMARK    2  A    between atoms: O_3  and  C_25
REMARK    3  A    between atoms: N_5  and  C_18
REMARK    4  A    between atoms: C_7  and  C_13
REMARK    5  A    between atoms: C_8  and  C_12
REMARK    6  A    between atoms: C_12  and  C_14
REMARK    7  A    between atoms: C_13  and  C_15
REMARK    8  A    between atoms: C_17  and  C_19
REMARK                            x       y       z     vdW  Elec       q    Type
REMARK                         _______ _______ _______ _____ _____    ______ ____
ROOT
ATOM      4  N   UNL     1       0.323   3.087   0.815  0.00  0.00    -0.316 NA
ATOM      7  C   UNL     1       2.012   1.154  -0.640  0.00  0.00    +0.004 C 
ATOM      8  C   UNL     1       0.520   0.891  -0.327  0.00  0.00    +0.012 C 
ATOM      9  C   UNL     1       2.261   2.672  -0.660  0.00  0.00    +0.019 C 
ATOM     10  C   UNL     1       0.060   1.652   0.928  0.00  0.00    +0.085 C 
ATOM     11  C   UNL     1       1.742   3.365   0.599  0.00  0.00    +0.081 C 
ATOM     31  H   UNL     1       0.014   3.555   1.666  0.00  0.00    +0.122 HD
ENDROOT
BRANCH   8  12
ATOM     12  C   UNL     1       0.187  -0.597  -0.204  0.00  0.00    +0.064 C 
BRANCH  12  14
ATOM      2  O   UNL     1      -3.089  -1.288  -1.527  0.00  0.00    -0.356 OA
ATOM      6  N   UNL     1      -1.720  -1.102  -1.670  0.00  0.00    -0.083 NA
ATOM     14  C   UNL     1      -1.274  -0.851  -0.435  0.00  0.00    +0.084 A 
ATOM     16  C   UNL     1      -2.307  -0.866   0.518  0.00  0.00    +0.074 A 
ATOM     17  C   UNL     1      -3.427  -1.146  -0.220  0.00  0.00    +0.175 A 
BRANCH  17  19
ATOM     19  C   UNL     1      -4.847  -1.312   0.112  0.00  0.00    +0.306 C 
BRANCH  19   3
ATOM      3  O   UNL     1      -5.590  -0.161  -0.296  0.00  0.00    -0.484 OA
BRANCH   3  25
ATOM     25  C   UNL     1      -6.922  -0.154   0.012  0.00  0.00    +0.121 A 
ATOM     26  C   UNL     1      -7.486  -1.235   0.690  0.00  0.00    +0.045 A 
ATOM     27  C   UNL     1      -7.717   0.933  -0.351  0.00  0.00    +0.045 A 
ATOM     28  C   UNL     1      -8.845  -1.229   1.004  0.00  0.00    +0.004 A 
ATOM     29  C   UNL     1      -9.075   0.939  -0.037  0.00  0.00    +0.004 A 
ATOM     30  C   UNL     1      -9.640  -0.142   0.641  0.00  0.00    +0.000 A 
ENDBRANCH   3  25
ENDBRANCH  19   3
ENDBRANCH  17  19
ENDBRANCH  12  14
ENDBRANCH   8  12
BRANCH   7  13
ATOM     13  C   UNL     1       2.984   0.455   0.318  0.00  0.00    +0.100 C 
BRANCH  13  15
ATOM      1  O   UNL     1       4.649   0.689  -1.406  0.00  0.00    -0.275 OA
ATOM      5  N   UNL     1       5.220  -0.319   0.638  0.00  0.00    -0.285 N 
ATOM     15  C   UNL     1       4.372   0.302  -0.276  0.00  0.00    +0.217 C 
ATOM     32  H   UNL     1       4.828  -0.579   1.540  0.00  0.00    +0.155 HD
BRANCH   5  18
ATOM     18  C   UNL     1       6.587  -0.640   0.466  0.00  0.00    +0.033 A 
ATOM     20  C   UNL     1       7.291  -1.267   1.494  0.00  0.00    +0.023 A 
ATOM     21  C   UNL     1       7.231  -0.329  -0.732  0.00  0.00    +0.023 A 
ATOM     22  C   UNL     1       8.639  -1.583   1.324  0.00  0.00    +0.002 A 
ATOM     23  C   UNL     1       8.579  -0.646  -0.902  0.00  0.00    +0.002 A 
ATOM     24  C   UNL     1       9.283  -1.273   0.126  0.00  0.00    +0.000 A 
ENDBRANCH   5  18
ENDBRANCH  13  15
ENDBRANCH   7  13
TORSDOF 8
