REMARK  Name = 38027340
REMARK  12 active torsions:
REMARK  status: ('A' for Active; 'I' for Inactive)
REMARK    1  A    between atoms: O_3  and  C_25
REMARK    2  A    between atoms: O_3  and  C_26
REMARK    3  A    between atoms: N_4  and  C_15
REMARK    4  A    between atoms: N_5  and  C_14
REMARK    5  A    between atoms: C_6  and  C_10
REMARK    6  A    between atoms: C_7  and  C_14
REMARK    7  A    between atoms: C_9  and  C_13
REMARK    8  A    between atoms: C_10  and  C_16
REMARK    9  A    between atoms: C_10  and  C_17
REMARK   10  A    between atoms: C_11  and  C_20
REMARK   11  A    between atoms: C_13  and  C_21
REMARK   12  A    between atoms: C_24  and  C_25
REMARK                            x       y       z     vdW  Elec       q    Type
REMARK                         _______ _______ _______ _____ _____    ______ ____
ROOT
ATOM      6  C   UNL     1      -2.671   0.602  -0.774  0.00  0.00    +0.000 C 
ATOM      7  C   UNL     1      -3.164   1.923  -0.133  0.00  0.00    +0.032 C 
ATOM      8  C   UNL     1      -3.340  -0.604  -0.098  0.00  0.00    +0.012 C 
ATOM      9  C   UNL     1      -3.053  -0.658   1.415  0.00  0.00    +0.023 C 
ATOM     11  C   UNL     1      -3.261   0.689   2.076  0.00  0.00    -0.073 C 
ATOM     12  C   UNL     1      -3.321   1.831   1.367  0.00  0.00    -0.022 C 
ATOM     20  C   UNL     1      -3.444   0.691   3.568  0.00  0.00    +0.039 C 
ENDROOT
BRANCH   6  10
ATOM     10  C   UNL     1      -2.938   0.566  -2.281  0.00  0.00    -0.013 C 
ATOM     16  C   UNL     1      -1.967  -0.386  -2.972  0.00  0.00    +0.007 C 
ATOM     17  C   UNL     1      -4.383   0.159  -2.556  0.00  0.00    +0.007 C 
ENDBRANCH   6  10
BRANCH   9  13
ATOM     13  C   UNL     1      -1.644  -1.193   1.691  0.00  0.00    +0.103 C 
BRANCH  13  21
ATOM      1  O   UNL     1      -2.285  -3.360   0.825  0.00  0.00    -0.276 OA
ATOM      4  N   UNL     1      -0.067  -2.681   0.682  0.00  0.00    -0.312 N 
ATOM     21  C   UNL     1      -1.402  -2.529   1.025  0.00  0.00    +0.214 C 
ATOM     32  H   UNL     1       0.578  -1.915   0.856  0.00  0.00    +0.149 HD
BRANCH   4  15
ATOM     15  C   UNL     1       0.451  -3.860   0.034  0.00  0.00    +0.073 C 
ATOM     18  C   UNL     1       1.923  -4.080   0.359  0.00  0.00    +0.022 C 
ATOM     19  C   UNL     1       0.458  -3.719  -1.483  0.00  0.00    +0.022 C 
ATOM     22  C   UNL     1       2.670  -3.159  -0.602  0.00  0.00    +0.002 C 
ATOM     23  C   UNL     1       1.745  -2.962  -1.804  0.00  0.00    +0.002 C 
ENDBRANCH   4  15
ENDBRANCH  13  21
ENDBRANCH   9  13
BRANCH   7  14
ATOM     14  C   UNL     1      -2.228   3.088  -0.477  0.00  0.00    +0.112 C 
BRANCH  14   5
ATOM      2  O   UNL     1       0.309   2.878  -1.850  0.00  0.00    -0.272 OA
ATOM      5  N   UNL     1      -0.941   2.896   0.114  0.00  0.00    -0.312 N 
ATOM     24  C   UNL     1       0.238   2.805  -0.626  0.00  0.00    +0.251 C 
ATOM     33  H   UNL     1      -0.876   2.880   1.127  0.00  0.00    +0.149 HD
BRANCH  24  25
ATOM     25  C   UNL     1       1.453   2.605   0.255  0.00  0.00    +0.324 C 
BRANCH  25   3
ATOM      3  O   UNL     1       2.627   2.531  -0.525  0.00  0.00    -0.483 OA
BRANCH   3  26
ATOM     26  C   UNL     1       3.658   1.764  -0.035  0.00  0.00    +0.121 A 
ATOM     27  C   UNL     1       3.827   1.620   1.342  0.00  0.00    +0.045 A 
ATOM     28  C   UNL     1       4.537   1.132  -0.915  0.00  0.00    +0.045 A 
ATOM     29  C   UNL     1       4.874   0.844   1.839  0.00  0.00    +0.004 A 
ATOM     30  C   UNL     1       5.584   0.356  -0.418  0.00  0.00    +0.004 A 
ATOM     31  C   UNL     1       5.752   0.212   0.959  0.00  0.00    +0.000 A 
ENDBRANCH   3  26
ENDBRANCH  25   3
ENDBRANCH  24  25
ENDBRANCH  14   5
ENDBRANCH   7  14
TORSDOF 9
