REMARK  Name = 38030795
REMARK  12 active torsions:
REMARK  status: ('A' for Active; 'I' for Inactive)
REMARK    1  A    between atoms: O_1  and  C_22
REMARK    2  A    between atoms: O_3  and  C_31
REMARK    3  A    between atoms: O_3  and  C_32
REMARK    4  A    between atoms: N_4  and  C_12
REMARK    5  A    between atoms: C_7  and  C_11
REMARK    6  A    between atoms: C_8  and  C_12
REMARK    7  A    between atoms: C_10  and  C_15
REMARK    8  A    between atoms: C_11  and  C_18
REMARK    9  A    between atoms: C_11  and  C_19
REMARK   10  A    between atoms: C_14  and  C_23
REMARK   11  A    between atoms: C_15  and  C_24
REMARK   12  A    between atoms: C_25  and  C_26
REMARK                            x       y       z     vdW  Elec       q    Type
REMARK                         _______ _______ _______ _____ _____    ______ ____
ROOT
ATOM      7  C   UNL     1      -1.252  -0.339  -0.636  0.00  0.00    +0.000 C 
ATOM      8  C   UNL     1      -2.755  -0.680  -0.473  0.00  0.00    +0.029 C 
ATOM      9  C   UNL     1      -0.483  -1.552  -1.181  0.00  0.00    +0.012 C 
ATOM     10  C   UNL     1      -0.607  -2.781  -0.261  0.00  0.00    +0.024 C 
ATOM     13  C   UNL     1      -2.990  -2.078   0.049  0.00  0.00    -0.023 C 
ATOM     14  C   UNL     1      -2.041  -3.024   0.164  0.00  0.00    -0.073 C 
ATOM     23  C   UNL     1      -2.370  -4.397   0.681  0.00  0.00    +0.039 C 
ENDROOT
BRANCH   7  11
ATOM     11  C   UNL     1      -1.040   0.867  -1.558  0.00  0.00    -0.013 C 
ATOM     18  C   UNL     1       0.290   1.545  -1.248  0.00  0.00    +0.007 C 
ATOM     19  C   UNL     1      -1.101   0.436  -3.020  0.00  0.00    +0.007 C 
ENDBRANCH   7  11
BRANCH   8  12
ATOM     12  C   UNL     1      -3.455   0.331   0.442  0.00  0.00    +0.092 C 
BRANCH  12   4
ATOM      4  N   UNL     1      -4.890   0.063   0.504  0.00  0.00    -0.302 NA
ATOM     16  C   UNL     1      -5.515   0.656   1.694  0.00  0.00    +0.087 C 
ATOM     17  C   UNL     1      -5.585   0.472  -0.725  0.00  0.00    +0.087 C 
ATOM     20  C   UNL     1      -5.671   2.176   1.625  0.00  0.00    +0.046 C 
ATOM     21  C   UNL     1      -5.744   1.985  -0.877  0.00  0.00    +0.046 C 
ATOM     22  C   UNL     1      -6.403   2.600   0.355  0.00  0.00    +0.117 C 
BRANCH  22   1
ATOM      1  O   UNL     1      -6.382   4.019   0.260  0.00  0.00    -0.392 OA
ATOM     33  H   UNL     1      -6.846   4.264  -0.558  0.00  0.00    +0.210 HD
ENDBRANCH  22   1
ENDBRANCH  12   4
ENDBRANCH   8  12
BRANCH  10  15
ATOM     15  C   UNL     1       0.313  -2.653   0.958  0.00  0.00    +0.105 C 
BRANCH  15  24
ATOM      2  O   UNL     1       2.239  -1.184   0.659  0.00  0.00    -0.420 OA
ATOM      5  N   UNL     1       2.614  -3.314   0.086  0.00  0.00    -0.112 NA
ATOM      6  N   UNL     1       3.778  -2.601  -0.132  0.00  0.00    -0.107 NA
ATOM     24  C   UNL     1       1.743  -2.447   0.548  0.00  0.00    +0.218 A 
ATOM     25  C   UNL     1       3.513  -1.363   0.215  0.00  0.00    +0.248 A 
BRANCH  25  26
ATOM     26  C   UNL     1       4.343  -0.194   0.201  0.00  0.00    +0.039 A 
ATOM     27  C   UNL     1       5.664  -0.282  -0.238  0.00  0.00    +0.017 A 
ATOM     28  C   UNL     1       3.829   1.031   0.624  0.00  0.00    +0.017 A 
ATOM     29  C   UNL     1       6.471   0.855  -0.252  0.00  0.00    +0.046 A 
ATOM     30  C   UNL     1       4.636   2.169   0.610  0.00  0.00    +0.046 A 
ATOM     31  C   UNL     1       5.957   2.081   0.172  0.00  0.00    +0.120 A 
BRANCH  31   3
ATOM      3  O   UNL     1       6.744   3.191   0.154  0.00  0.00    -0.495 OA
ATOM     32  C   UNL     1       6.154   4.412   0.601  0.00  0.00    +0.277 C 
ENDBRANCH  31   3
ENDBRANCH  25  26
ENDBRANCH  15  24
ENDBRANCH  10  15
TORSDOF 8
