MODEL 1
REMARK VINA RESULT:      -6.9      0.000      0.000
REMARK  Name = 75368584
REMARK  6 active torsions:
REMARK  status: ('A' for Active; 'I' for Inactive)
REMARK    1  A    between atoms: N_4  and  C_13
REMARK    2  A    between atoms: N_5  and  C_14
REMARK    3  A    between atoms: N_6  and  C_23
REMARK    4  A    between atoms: C_13  and  C_15
REMARK    5  A    between atoms: C_14  and  C_16
REMARK    6  A    between atoms: C_27  and  C_28
REMARK                            x       y       z     vdW  Elec       q    Type
REMARK                         _______ _______ _______ _____ _____    ______ ____
ROOT
ATOM      1  O   UNL     1      15.458   9.648  20.469  0.00  0.00    -0.252 OA
ATOM      3  N   UNL     1      17.101   8.015  20.858  0.00  0.00    -0.278 N 
ATOM      4  N   UNL     1      19.658   6.875  21.127  0.00  0.00    -0.295 NA
ATOM      5  N   UNL     1      15.338   7.468  19.578  0.00  0.00    -0.279 N 
ATOM      7  C   UNL     1      17.272   6.603  20.588  0.00  0.00    +0.109 C 
ATOM      8  C   UNL     1      18.707   6.316  20.145  0.00  0.00    +0.109 C 
ATOM      9  C   UNL     1      16.205   6.302  19.537  0.00  0.00    +0.133 C 
ATOM     10  C   UNL     1      18.067   8.699  21.692  0.00  0.00    +0.125 C 
ATOM     11  C   UNL     1      19.488   8.337  21.252  0.00  0.00    +0.104 C 
ATOM     12  C   UNL     1      15.907   8.520  20.324  0.00  0.00    +0.305 C 
ENDROOT
BRANCH   4  13
ATOM     13  C   UNL     1      21.033   6.553  20.743  0.00  0.00    +0.119 C 
BRANCH  13  15
ATOM     15  C   UNL     1      21.569   5.380  21.508  0.00  0.00    -0.033 A 
ATOM     17  C   UNL     1      21.561   4.108  20.932  0.00  0.00    +0.007 A 
ATOM     18  C   UNL     1      22.077   5.558  22.796  0.00  0.00    +0.007 A 
ATOM     21  C   UNL     1      22.061   3.018  21.644  0.00  0.00    +0.023 A 
ATOM     22  C   UNL     1      22.576   4.467  23.507  0.00  0.00    +0.023 A 
ATOM     23  C   UNL     1      22.568   3.196  22.931  0.00  0.00    +0.033 A 
BRANCH  23   6
ATOM      2  O   UNL     1      25.132   1.654  22.599  0.00  0.00    -0.276 OA
ATOM      6  N   UNL     1      23.066   2.105  23.642  0.00  0.00    -0.286 N 
ATOM     27  C   UNL     1      24.273   1.420  23.443  0.00  0.00    +0.214 C 
ATOM     28  C   UNL     1      24.444   0.290  24.427  0.00  0.00    +0.109 C 
ATOM     29  H   UNL     1      22.472   1.771  24.398  0.00  0.00    +0.155 HD
ENDBRANCH  23   6
ENDBRANCH  13  15
ENDBRANCH   4  13
BRANCH   5  14
ATOM     14  C   UNL     1      14.120   7.545  18.802  0.00  0.00    +0.144 C 
BRANCH  14  16
ATOM     16  C   UNL     1      12.900   7.581  19.677  0.00  0.00    -0.030 A 
ATOM     19  C   UNL     1      12.635   6.527  20.549  0.00  0.00    +0.005 A 
ATOM     20  C   UNL     1      12.031   8.671  19.615  0.00  0.00    +0.005 A 
ATOM     24  C   UNL     1      11.500   6.561  21.361  0.00  0.00    +0.000 A 
ATOM     25  C   UNL     1      10.896   8.705  20.426  0.00  0.00    +0.000 A 
ATOM     26  C   UNL     1      10.632   7.650  21.300  0.00  0.00    +0.000 A 
ENDBRANCH  14  16
ENDBRANCH   5  14
TORSDOF 5
ENDMDL
MODEL 2
REMARK VINA RESULT:      -6.6     28.191     31.426
REMARK  Name = 75368584
REMARK  6 active torsions:
REMARK  status: ('A' for Active; 'I' for Inactive)
REMARK    1  A    between atoms: N_4  and  C_13
REMARK    2  A    between atoms: N_5  and  C_14
REMARK    3  A    between atoms: N_6  and  C_23
REMARK    4  A    between atoms: C_13  and  C_15
REMARK    5  A    between atoms: C_14  and  C_16
REMARK    6  A    between atoms: C_27  and  C_28
REMARK                            x       y       z     vdW  Elec       q    Type
REMARK                         _______ _______ _______ _____ _____    ______ ____
ROOT
ATOM      1  O   UNL     1      -1.693 -10.289  14.309  0.00  0.00    -0.252 OA
ATOM      3  N   UNL     1      -3.771 -10.894  15.223  0.00  0.00    -0.278 N 
ATOM      4  N   UNL     1      -5.635 -11.852  17.099  0.00  0.00    -0.295 NA
ATOM      5  N   UNL     1      -3.323 -11.496  13.106  0.00  0.00    -0.279 N 
ATOM      7  C   UNL     1      -5.001 -11.492  14.748  0.00  0.00    +0.109 C 
ATOM      8  C   UNL     1      -5.536 -12.493  15.772  0.00  0.00    +0.109 C 
ATOM      9  C   UNL     1      -4.612 -12.099  13.401  0.00  0.00    +0.133 C 
ATOM     10  C   UNL     1      -3.714 -10.365  16.571  0.00  0.00    +0.125 C 
ATOM     11  C   UNL     1      -4.314 -11.374  17.554  0.00  0.00    +0.104 C 
ATOM     12  C   UNL     1      -2.791 -10.821  14.224  0.00  0.00    +0.305 C 
ENDROOT
BRANCH   4  13
ATOM     13  C   UNL     1      -6.203 -12.784  18.073  0.00  0.00    +0.119 C 
BRANCH  13  15
ATOM     15  C   UNL     1      -7.460 -12.250  18.694  0.00  0.00    -0.033 A 
ATOM     17  C   UNL     1      -8.245 -13.076  19.501  0.00  0.00    +0.007 A 
ATOM     18  C   UNL     1      -7.846 -10.929  18.465  0.00  0.00    +0.007 A 
ATOM     21  C   UNL     1      -9.413 -12.580  20.078  0.00  0.00    +0.023 A 
ATOM     22  C   UNL     1      -9.015 -10.434  19.043  0.00  0.00    +0.023 A 
ATOM     23  C   UNL     1      -9.799 -11.259  19.850  0.00  0.00    +0.033 A 
BRANCH  23   6
ATOM      2  O   UNL     1     -12.200  -9.951  18.588  0.00  0.00    -0.276 OA
ATOM      6  N   UNL     1     -10.968 -10.764  20.427  0.00  0.00    -0.286 N 
ATOM     27  C   UNL     1     -12.060 -10.159  19.789  0.00  0.00    +0.214 C 
ATOM     28  C   UNL     1     -13.131  -9.760  20.772  0.00  0.00    +0.109 C 
ATOM     29  H   UNL     1     -11.026 -10.858  21.439  0.00  0.00    +0.155 HD
ENDBRANCH  23   6
ENDBRANCH  13  15
ENDBRANCH   4  13
BRANCH   5  14
ATOM     14  C   UNL     1      -2.642 -11.719  11.851  0.00  0.00    +0.144 C 
BRANCH  14  16
ATOM     16  C   UNL     1      -3.313 -11.005  10.713  0.00  0.00    -0.030 A 
ATOM     19  C   UNL     1      -3.214  -9.618  10.605  0.00  0.00    +0.005 A 
ATOM     20  C   UNL     1      -4.034 -11.729   9.764  0.00  0.00    +0.005 A 
ATOM     24  C   UNL     1      -3.838  -8.954   9.547  0.00  0.00    +0.000 A 
ATOM     25  C   UNL     1      -4.659 -11.066   8.706  0.00  0.00    +0.000 A 
ATOM     26  C   UNL     1      -4.559  -9.678   8.598  0.00  0.00    +0.000 A 
ENDBRANCH  14  16
ENDBRANCH   5  14
TORSDOF 5
ENDMDL
MODEL 3
REMARK VINA RESULT:      -6.5     27.809     31.651
REMARK  Name = 75368584
REMARK  6 active torsions:
REMARK  status: ('A' for Active; 'I' for Inactive)
REMARK    1  A    between atoms: N_4  and  C_13
REMARK    2  A    between atoms: N_5  and  C_14
REMARK    3  A    between atoms: N_6  and  C_23
REMARK    4  A    between atoms: C_13  and  C_15
REMARK    5  A    between atoms: C_14  and  C_16
REMARK    6  A    between atoms: C_27  and  C_28
REMARK                            x       y       z     vdW  Elec       q    Type
REMARK                         _______ _______ _______ _____ _____    ______ ____
ROOT
ATOM      1  O   UNL     1     -10.487  -7.025   5.821  0.00  0.00    -0.252 OA
ATOM      3  N   UNL     1      -8.525  -7.757   6.886  0.00  0.00    -0.278 N 
ATOM      4  N   UNL     1      -6.199  -9.269   7.353  0.00  0.00    -0.295 NA
ATOM      5  N   UNL     1     -10.337  -7.355   8.151  0.00  0.00    -0.279 N 
ATOM      7  C   UNL     1      -8.064  -7.932   8.247  0.00  0.00    +0.109 C 
ATOM      8  C   UNL     1      -7.266  -9.229   8.375  0.00  0.00    +0.109 C 
ATOM      9  C   UNL     1      -9.347  -7.884   9.074  0.00  0.00    +0.133 C 
ATOM     10  C   UNL     1      -7.589  -7.922   5.793  0.00  0.00    +0.125 C 
ATOM     11  C   UNL     1      -6.771  -9.200   5.993  0.00  0.00    +0.104 C 
ATOM     12  C   UNL     1      -9.860  -7.335   6.824  0.00  0.00    +0.305 C 
ENDROOT
BRANCH   4  13
ATOM     13  C   UNL     1      -5.392 -10.479   7.507  0.00  0.00    +0.119 C 
BRANCH  13  15
ATOM     15  C   UNL     1      -4.572 -10.451   8.763  0.00  0.00    -0.033 A 
ATOM     17  C   UNL     1      -3.979  -9.259   9.183  0.00  0.00    +0.007 A 
ATOM     18  C   UNL     1      -4.402 -11.615   9.512  0.00  0.00    +0.007 A 
ATOM     21  C   UNL     1      -3.216  -9.233  10.350  0.00  0.00    +0.023 A 
ATOM     22  C   UNL     1      -3.639 -11.589  10.680  0.00  0.00    +0.023 A 
ATOM     23  C   UNL     1      -3.046 -10.398  11.099  0.00  0.00    +0.033 A 
BRANCH  23   6
ATOM      2  O   UNL     1      -3.884 -10.563  13.986  0.00  0.00    -0.276 OA
ATOM      6  N   UNL     1      -2.283 -10.371  12.266  0.00  0.00    -0.286 N 
ATOM     27  C   UNL     1      -2.728 -10.450  13.593  0.00  0.00    +0.214 C 
ATOM     28  C   UNL     1      -1.582 -10.385  14.571  0.00  0.00    +0.109 C 
ATOM     29  H   UNL     1      -1.279 -10.283  12.126  0.00  0.00    +0.155 HD
ENDBRANCH  23   6
ENDBRANCH  13  15
ENDBRANCH   4  13
BRANCH   5  14
ATOM     14  C   UNL     1     -11.685  -7.044   8.569  0.00  0.00    +0.144 C 
BRANCH  14  16
ATOM     16  C   UNL     1     -11.737  -5.814   9.429  0.00  0.00    -0.030 A 
ATOM     19  C   UNL     1     -12.211  -5.897  10.738  0.00  0.00    +0.005 A 
ATOM     20  C   UNL     1     -11.310  -4.588   8.919  0.00  0.00    +0.005 A 
ATOM     24  C   UNL     1     -12.259  -4.754  11.537  0.00  0.00    +0.000 A 
ATOM     25  C   UNL     1     -11.358  -3.444   9.717  0.00  0.00    +0.000 A 
ATOM     26  C   UNL     1     -11.832  -3.528  11.027  0.00  0.00    +0.000 A 
ENDBRANCH  14  16
ENDBRANCH   5  14
TORSDOF 5
ENDMDL
MODEL 4
REMARK VINA RESULT:      -6.5     29.094     31.042
REMARK  Name = 75368584
REMARK  6 active torsions:
REMARK  status: ('A' for Active; 'I' for Inactive)
REMARK    1  A    between atoms: N_4  and  C_13
REMARK    2  A    between atoms: N_5  and  C_14
REMARK    3  A    between atoms: N_6  and  C_23
REMARK    4  A    between atoms: C_13  and  C_15
REMARK    5  A    between atoms: C_14  and  C_16
REMARK    6  A    between atoms: C_27  and  C_28
REMARK                            x       y       z     vdW  Elec       q    Type
REMARK                         _______ _______ _______ _____ _____    ______ ____
ROOT
ATOM      1  O   UNL     1      -4.448 -13.214  17.726  0.00  0.00    -0.252 OA
ATOM      3  N   UNL     1      -4.469 -12.342  15.545  0.00  0.00    -0.278 N 
ATOM      4  N   UNL     1      -3.538 -11.670  12.977  0.00  0.00    -0.295 NA
ATOM      5  N   UNL     1      -5.354 -11.103  17.196  0.00  0.00    -0.279 N 
ATOM      7  C   UNL     1      -5.035 -11.192  14.873  0.00  0.00    +0.109 C 
ATOM      8  C   UNL     1      -4.030 -10.609  13.880  0.00  0.00    +0.109 C 
ATOM      9  C   UNL     1      -5.423 -10.257  16.016  0.00  0.00    +0.133 C 
ATOM     10  C   UNL     1      -3.827 -13.377  14.761  0.00  0.00    +0.125 C 
ATOM     11  C   UNL     1      -2.875 -12.746  13.742  0.00  0.00    +0.104 C 
ATOM     12  C   UNL     1      -4.725 -12.335  16.923  0.00  0.00    +0.305 C 
ENDROOT
BRANCH   4  13
ATOM     13  C   UNL     1      -2.621 -11.110  11.985  0.00  0.00    +0.119 C 
BRANCH  13  15
ATOM     15  C   UNL     1      -3.336 -10.686  10.736  0.00  0.00    -0.033 A 
ATOM     17  C   UNL     1      -3.355  -9.340  10.365  0.00  0.00    +0.007 A 
ATOM     18  C   UNL     1      -3.983 -11.635   9.945  0.00  0.00    +0.007 A 
ATOM     21  C   UNL     1      -4.019  -8.946   9.204  0.00  0.00    +0.023 A 
ATOM     22  C   UNL     1      -4.648 -11.240   8.783  0.00  0.00    +0.023 A 
ATOM     23  C   UNL     1      -4.666  -9.896   8.413  0.00  0.00    +0.033 A 
BRANCH  23   6
ATOM      2  O   UNL     1      -7.610  -9.639   7.838  0.00  0.00    -0.276 OA
ATOM      6  N   UNL     1      -5.330  -9.500   7.252  0.00  0.00    -0.286 N 
ATOM     27  C   UNL     1      -6.712  -9.400   7.038  0.00  0.00    +0.214 C 
ATOM     28  C   UNL     1      -7.028  -8.935   5.638  0.00  0.00    +0.109 C 
ATOM     29  H   UNL     1      -4.728  -9.257   6.469  0.00  0.00    +0.155 HD
ENDBRANCH  23   6
ENDBRANCH  13  15
ENDBRANCH   4  13
BRANCH   5  14
ATOM     14  C   UNL     1      -5.757 -10.630  18.502  0.00  0.00    +0.144 C 
BRANCH  14  16
ATOM     16  C   UNL     1      -7.130 -11.112  18.874  0.00  0.00    -0.030 A 
ATOM     19  C   UNL     1      -7.280 -12.260  19.650  0.00  0.00    +0.005 A 
ATOM     20  C   UNL     1      -8.255 -10.410  18.442  0.00  0.00    +0.005 A 
ATOM     24  C   UNL     1      -8.556 -12.708  19.996  0.00  0.00    +0.000 A 
ATOM     25  C   UNL     1      -9.531 -10.857  18.786  0.00  0.00    +0.000 A 
ATOM     26  C   UNL     1      -9.681 -12.006  19.564  0.00  0.00    +0.000 A 
ENDBRANCH  14  16
ENDBRANCH   5  14
TORSDOF 5
ENDMDL
MODEL 5
REMARK VINA RESULT:      -6.4     29.172     34.003
REMARK  Name = 75368584
REMARK  6 active torsions:
REMARK  status: ('A' for Active; 'I' for Inactive)
REMARK    1  A    between atoms: N_4  and  C_13
REMARK    2  A    between atoms: N_5  and  C_14
REMARK    3  A    between atoms: N_6  and  C_23
REMARK    4  A    between atoms: C_13  and  C_15
REMARK    5  A    between atoms: C_14  and  C_16
REMARK    6  A    between atoms: C_27  and  C_28
REMARK                            x       y       z     vdW  Elec       q    Type
REMARK                         _______ _______ _______ _____ _____    ______ ____
ROOT
ATOM      1  O   UNL     1     -18.397   4.720  26.874  0.00  0.00    -0.252 OA
ATOM      3  N   UNL     1     -16.856   5.018  25.126  0.00  0.00    -0.278 N 
ATOM      4  N   UNL     1     -15.874   5.694  22.579  0.00  0.00    -0.295 NA
ATOM      5  N   UNL     1     -16.757   3.118  26.320  0.00  0.00    -0.279 N 
ATOM      7  C   UNL     1     -15.687   4.331  24.620  0.00  0.00    +0.109 C 
ATOM      8  C   UNL     1     -15.697   4.320  23.091  0.00  0.00    +0.109 C 
ATOM      9  C   UNL     1     -15.765   2.951  25.271  0.00  0.00    +0.133 C 
ATOM     10  C   UNL     1     -17.208   6.314  24.583  0.00  0.00    +0.125 C 
ATOM     11  C   UNL     1     -17.147   6.273  23.054  0.00  0.00    +0.104 C 
ATOM     12  C   UNL     1     -17.454   4.337  26.196  0.00  0.00    +0.305 C 
ENDROOT
BRANCH   4  13
ATOM     13  C   UNL     1     -15.825   5.702  21.117  0.00  0.00    +0.119 C 
BRANCH  13  15
ATOM     15  C   UNL     1     -14.723   6.576  20.597  0.00  0.00    -0.033 A 
ATOM     17  C   UNL     1     -14.953   7.414  19.504  0.00  0.00    +0.007 A 
ATOM     18  C   UNL     1     -13.467   6.553  21.204  0.00  0.00    +0.007 A 
ATOM     21  C   UNL     1     -13.928   8.227  19.021  0.00  0.00    +0.023 A 
ATOM     22  C   UNL     1     -12.442   7.366  20.720  0.00  0.00    +0.023 A 
ATOM     23  C   UNL     1     -12.673   8.204  19.628  0.00  0.00    +0.033 A 
BRANCH  23   6
ATOM      2  O   UNL     1     -10.641   7.706  17.462  0.00  0.00    -0.276 OA
ATOM      6  N   UNL     1     -11.648   9.017  19.144  0.00  0.00    -0.286 N 
ATOM     27  C   UNL     1     -10.724   8.733  18.129  0.00  0.00    +0.214 C 
ATOM     28  C   UNL     1      -9.772   9.880  17.902  0.00  0.00    +0.109 C 
ATOM     29  H   UNL     1     -11.570   9.928  19.590  0.00  0.00    +0.155 HD
ENDBRANCH  23   6
ENDBRANCH  13  15
ENDBRANCH   4  13
BRANCH   5  14
ATOM     14  C   UNL     1     -17.060   2.064  27.263  0.00  0.00    +0.144 C 
BRANCH  14  16
ATOM     16  C   UNL     1     -16.073   2.022  28.394  0.00  0.00    -0.030 A 
ATOM     19  C   UNL     1     -15.731   0.803  28.977  0.00  0.00    +0.005 A 
ATOM     20  C   UNL     1     -15.499   3.204  28.862  0.00  0.00    +0.005 A 
ATOM     24  C   UNL     1     -14.814   0.764  30.029  0.00  0.00    +0.000 A 
ATOM     25  C   UNL     1     -14.582   3.167  29.913  0.00  0.00    +0.000 A 
ATOM     26  C   UNL     1     -14.240   1.946  30.496  0.00  0.00    +0.000 A 
ENDBRANCH  14  16
ENDBRANCH   5  14
TORSDOF 5
ENDMDL
MODEL 6
REMARK VINA RESULT:      -6.4     32.072     34.234
REMARK  Name = 75368584
REMARK  6 active torsions:
REMARK  status: ('A' for Active; 'I' for Inactive)
REMARK    1  A    between atoms: N_4  and  C_13
REMARK    2  A    between atoms: N_5  and  C_14
REMARK    3  A    between atoms: N_6  and  C_23
REMARK    4  A    between atoms: C_13  and  C_15
REMARK    5  A    between atoms: C_14  and  C_16
REMARK    6  A    between atoms: C_27  and  C_28
REMARK                            x       y       z     vdW  Elec       q    Type
REMARK                         _______ _______ _______ _____ _____    ______ ____
ROOT
ATOM      1  O   UNL     1     -13.195  11.316  34.078  0.00  0.00    -0.252 OA
ATOM      3  N   UNL     1     -13.370   9.060  33.450  0.00  0.00    -0.278 N 
ATOM      4  N   UNL     1     -14.482   6.716  32.362  0.00  0.00    -0.295 NA
ATOM      5  N   UNL     1     -12.572   9.537  35.495  0.00  0.00    -0.279 N 
ATOM      7  C   UNL     1     -12.975   7.777  33.995  0.00  0.00    +0.109 C 
ATOM      8  C   UNL     1     -14.084   6.746  33.785  0.00  0.00    +0.109 C 
ATOM      9  C   UNL     1     -12.654   8.086  35.456  0.00  0.00    +0.133 C 
ATOM     10  C   UNL     1     -13.916   9.123  32.110  0.00  0.00    +0.125 C 
ATOM     11  C   UNL     1     -14.978   8.037  31.926  0.00  0.00    +0.104 C 
ATOM     12  C   UNL     1     -13.059  10.123  34.309  0.00  0.00    +0.305 C 
ENDROOT
BRANCH   4  13
ATOM     13  C   UNL     1     -15.500   5.690  32.141  0.00  0.00    +0.119 C 
BRANCH  13  15
ATOM     15  C   UNL     1     -14.918   4.439  31.552  0.00  0.00    -0.033 A 
ATOM     17  C   UNL     1     -14.077   3.631  32.319  0.00  0.00    +0.007 A 
ATOM     18  C   UNL     1     -15.217   4.082  30.236  0.00  0.00    +0.007 A 
ATOM     21  C   UNL     1     -13.537   2.468  31.771  0.00  0.00    +0.023 A 
ATOM     22  C   UNL     1     -14.675   2.919  29.689  0.00  0.00    +0.023 A 
ATOM     23  C   UNL     1     -13.835   2.112  30.456  0.00  0.00    +0.033 A 
BRANCH  23   6
ATOM      2  O   UNL     1     -15.031  -0.632  30.122  0.00  0.00    -0.276 OA
ATOM      6  N   UNL     1     -13.294   0.949  29.909  0.00  0.00    -0.286 N 
ATOM     27  C   UNL     1     -13.898  -0.310  29.779  0.00  0.00    +0.214 C 
ATOM     28  C   UNL     1     -12.973  -1.309  29.131  0.00  0.00    +0.109 C 
ATOM     29  H   UNL     1     -12.340   1.035  29.563  0.00  0.00    +0.155 HD
ENDBRANCH  23   6
ENDBRANCH  13  15
ENDBRANCH   4  13
BRANCH   5  14
ATOM     14  C   UNL     1     -12.174  10.249  36.688  0.00  0.00    +0.144 C 
BRANCH  14  16
ATOM     16  C   UNL     1     -10.851   9.770  37.214  0.00  0.00    -0.030 A 
ATOM     19  C   UNL     1     -10.776   9.170  38.470  0.00  0.00    +0.005 A 
ATOM     20  C   UNL     1      -9.698   9.925  36.445  0.00  0.00    +0.005 A 
ATOM     24  C   UNL     1      -9.547   8.724  38.959  0.00  0.00    +0.000 A 
ATOM     25  C   UNL     1      -8.469   9.480  36.933  0.00  0.00    +0.000 A 
ATOM     26  C   UNL     1      -8.394   8.879  38.190  0.00  0.00    +0.000 A 
ENDBRANCH  14  16
ENDBRANCH   5  14
TORSDOF 5
ENDMDL
MODEL 7
REMARK VINA RESULT:      -6.4     29.592     33.067
REMARK  Name = 75368584
REMARK  6 active torsions:
REMARK  status: ('A' for Active; 'I' for Inactive)
REMARK    1  A    between atoms: N_4  and  C_13
REMARK    2  A    between atoms: N_5  and  C_14
REMARK    3  A    between atoms: N_6  and  C_23
REMARK    4  A    between atoms: C_13  and  C_15
REMARK    5  A    between atoms: C_14  and  C_16
REMARK    6  A    between atoms: C_27  and  C_28
REMARK                            x       y       z     vdW  Elec       q    Type
REMARK                         _______ _______ _______ _____ _____    ______ ____
ROOT
ATOM      1  O   UNL     1     -15.103  -6.650  12.741  0.00  0.00    -0.252 OA
ATOM      3  N   UNL     1     -13.294  -7.246  14.115  0.00  0.00    -0.278 N 
ATOM      4  N   UNL     1     -11.895  -8.445  16.241  0.00  0.00    -0.295 NA
ATOM      5  N   UNL     1     -13.455  -5.112  13.435  0.00  0.00    -0.279 N 
ATOM      7  C   UNL     1     -12.085  -6.617  14.603  0.00  0.00    +0.109 C 
ATOM      8  C   UNL     1     -11.851  -6.978  16.070  0.00  0.00    +0.109 C 
ATOM      9  C   UNL     1     -12.316  -5.131  14.337  0.00  0.00    +0.133 C 
ATOM     10  C   UNL     1     -13.507  -8.658  14.361  0.00  0.00    +0.125 C 
ATOM     11  C   UNL     1     -13.206  -8.985  15.826  0.00  0.00    +0.104 C 
ATOM     12  C   UNL     1     -14.079  -6.373  13.350  0.00  0.00    +0.305 C 
ENDROOT
BRANCH   4  13
ATOM     13  C   UNL     1     -11.614  -8.803  17.631  0.00  0.00    +0.119 C 
BRANCH  13  15
ATOM     15  C   UNL     1     -10.249  -9.405  17.790  0.00  0.00    -0.033 A 
ATOM     17  C   UNL     1      -9.129  -8.740  17.288  0.00  0.00    +0.007 A 
ATOM     18  C   UNL     1     -10.098 -10.630  18.440  0.00  0.00    +0.007 A 
ATOM     21  C   UNL     1      -7.861  -9.300  17.436  0.00  0.00    +0.023 A 
ATOM     22  C   UNL     1      -8.828 -11.190  18.588  0.00  0.00    +0.023 A 
ATOM     23  C   UNL     1      -7.709 -10.525  18.086  0.00  0.00    +0.033 A 
BRANCH  23   6
ATOM      2  O   UNL     1      -6.084 -11.056  20.564  0.00  0.00    -0.276 OA
ATOM      6  N   UNL     1      -6.441 -11.084  18.233  0.00  0.00    -0.286 N 
ATOM     27  C   UNL     1      -5.725 -11.308  19.418  0.00  0.00    +0.214 C 
ATOM     28  C   UNL     1      -4.380 -11.935  19.149  0.00  0.00    +0.109 C 
ATOM     29  H   UNL     1      -5.985 -11.361  17.366  0.00  0.00    +0.155 HD
ENDBRANCH  23   6
ENDBRANCH  13  15
ENDBRANCH   4  13
BRANCH   5  14
ATOM     14  C   UNL     1     -13.942  -3.887  12.842  0.00  0.00    +0.144 C 
BRANCH  14  16
ATOM     16  C   UNL     1     -13.428  -3.698  11.443  0.00  0.00    -0.030 A 
ATOM     19  C   UNL     1     -14.324  -3.526  10.388  0.00  0.00    +0.005 A 
ATOM     20  C   UNL     1     -12.055  -3.694  11.200  0.00  0.00    +0.005 A 
ATOM     24  C   UNL     1     -13.846  -3.351   9.089  0.00  0.00    +0.000 A 
ATOM     25  C   UNL     1     -11.577  -3.519   9.901  0.00  0.00    +0.000 A 
ATOM     26  C   UNL     1     -12.473  -3.347   8.845  0.00  0.00    +0.000 A 
ENDBRANCH  14  16
ENDBRANCH   5  14
TORSDOF 5
ENDMDL
MODEL 8
REMARK VINA RESULT:      -6.3     27.450     31.665
REMARK  Name = 75368584
REMARK  6 active torsions:
REMARK  status: ('A' for Active; 'I' for Inactive)
REMARK    1  A    between atoms: N_4  and  C_13
REMARK    2  A    between atoms: N_5  and  C_14
REMARK    3  A    between atoms: N_6  and  C_23
REMARK    4  A    between atoms: C_13  and  C_15
REMARK    5  A    between atoms: C_14  and  C_16
REMARK    6  A    between atoms: C_27  and  C_28
REMARK                            x       y       z     vdW  Elec       q    Type
REMARK                         _______ _______ _______ _____ _____    ______ ____
ROOT
ATOM      1  O   UNL     1     -14.132  -8.281  15.528  0.00  0.00    -0.252 OA
ATOM      3  N   UNL     1     -11.863  -8.775  15.883  0.00  0.00    -0.278 N 
ATOM      4  N   UNL     1      -9.554  -9.729  17.177  0.00  0.00    -0.295 NA
ATOM      5  N   UNL     1     -12.396  -6.757  15.053  0.00  0.00    -0.279 N 
ATOM      7  C   UNL     1     -10.588  -8.153  15.593  0.00  0.00    +0.109 C 
ATOM      8  C   UNL     1      -9.638  -8.308  16.780  0.00  0.00    +0.109 C 
ATOM      9  C   UNL     1     -10.957  -6.711  15.251  0.00  0.00    +0.133 C 
ATOM     10  C   UNL     1     -11.889 -10.120  16.420  0.00  0.00    +0.125 C 
ATOM     11  C   UNL     1     -10.882 -10.246  17.565  0.00  0.00    +0.104 C 
ATOM     12  C   UNL     1     -12.947  -7.979  15.489  0.00  0.00    +0.305 C 
ENDROOT
BRANCH   4  13
ATOM     13  C   UNL     1      -8.602  -9.895  18.274  0.00  0.00    +0.119 C 
BRANCH  13  15
ATOM     15  C   UNL     1      -7.190 -10.012  17.779  0.00  0.00    -0.033 A 
ATOM     17  C   UNL     1      -6.208 -10.575  18.596  0.00  0.00    +0.007 A 
ATOM     18  C   UNL     1      -6.858  -9.558  16.503  0.00  0.00    +0.007 A 
ATOM     21  C   UNL     1      -4.896 -10.683  18.136  0.00  0.00    +0.023 A 
ATOM     22  C   UNL     1      -5.545  -9.667  16.043  0.00  0.00    +0.023 A 
ATOM     23  C   UNL     1      -4.564 -10.230  16.859  0.00  0.00    +0.033 A 
BRANCH  23   6
ATOM      2  O   UNL     1      -3.288 -12.275  15.056  0.00  0.00    -0.276 OA
ATOM      6  N   UNL     1      -3.252 -10.338  16.400  0.00  0.00    -0.286 N 
ATOM     27  C   UNL     1      -2.707 -11.318  15.558  0.00  0.00    +0.214 C 
ATOM     28  C   UNL     1      -1.241 -11.079  15.297  0.00  0.00    +0.109 C 
ATOM     29  H   UNL     1      -2.618  -9.610  16.723  0.00  0.00    +0.155 HD
ENDBRANCH  23   6
ENDBRANCH  13  15
ENDBRANCH   4  13
BRANCH   5  14
ATOM     14  C   UNL     1     -13.144  -5.606  14.601  0.00  0.00    +0.144 C 
BRANCH  14  16
ATOM     16  C   UNL     1     -12.785  -5.219  13.195  0.00  0.00    -0.030 A 
ATOM     19  C   UNL     1     -12.468  -3.895  12.895  0.00  0.00    +0.005 A 
ATOM     20  C   UNL     1     -12.769  -6.185  12.189  0.00  0.00    +0.005 A 
ATOM     24  C   UNL     1     -12.134  -3.535  11.589  0.00  0.00    +0.000 A 
ATOM     25  C   UNL     1     -12.437  -5.826  10.882  0.00  0.00    +0.000 A 
ATOM     26  C   UNL     1     -12.118  -4.501  10.583  0.00  0.00    +0.000 A 
ENDBRANCH  14  16
ENDBRANCH   5  14
TORSDOF 5
ENDMDL
MODEL 9
REMARK VINA RESULT:      -6.3     15.023     19.026
REMARK  Name = 75368584
REMARK  6 active torsions:
REMARK  status: ('A' for Active; 'I' for Inactive)
REMARK    1  A    between atoms: N_4  and  C_13
REMARK    2  A    between atoms: N_5  and  C_14
REMARK    3  A    between atoms: N_6  and  C_23
REMARK    4  A    between atoms: C_13  and  C_15
REMARK    5  A    between atoms: C_14  and  C_16
REMARK    6  A    between atoms: C_27  and  C_28
REMARK                            x       y       z     vdW  Elec       q    Type
REMARK                         _______ _______ _______ _____ _____    ______ ____
ROOT
ATOM      1  O   UNL     1      17.237   8.434   1.407  0.00  0.00    -0.252 OA
ATOM      3  N   UNL     1      15.374   7.389   2.385  0.00  0.00    -0.278 N 
ATOM      4  N   UNL     1      12.725   6.495   2.688  0.00  0.00    -0.295 NA
ATOM      5  N   UNL     1      16.694   8.651   3.692  0.00  0.00    -0.279 N 
ATOM      7  C   UNL     1      14.843   7.209   3.719  0.00  0.00    +0.109 C 
ATOM      8  C   UNL     1      13.323   7.374   3.713  0.00  0.00    +0.109 C 
ATOM      9  C   UNL     1      15.597   8.243   4.553  0.00  0.00    +0.133 C 
ATOM     10  C   UNL     1      14.762   6.684   1.277  0.00  0.00    +0.125 C 
ATOM     11  C   UNL     1      13.240   6.827   1.344  0.00  0.00    +0.104 C 
ATOM     12  C   UNL     1      16.528   8.185   2.372  0.00  0.00    +0.305 C 
ENDROOT
BRANCH   4  13
ATOM     13  C   UNL     1      11.266   6.601   2.715  0.00  0.00    +0.119 C 
BRANCH  13  15
ATOM     15  C   UNL     1      10.701   6.224   4.053  0.00  0.00    -0.033 A 
ATOM     17  C   UNL     1      10.319   7.220   4.955  0.00  0.00    +0.007 A 
ATOM     18  C   UNL     1      10.557   4.880   4.397  0.00  0.00    +0.007 A 
ATOM     21  C   UNL     1       9.794   6.869   6.198  0.00  0.00    +0.023 A 
ATOM     22  C   UNL     1      10.031   4.531   5.642  0.00  0.00    +0.023 A 
ATOM     23  C   UNL     1       9.650   5.525   6.542  0.00  0.00    +0.033 A 
BRANCH  23   6
ATOM      2  O   UNL     1      10.948   5.440   9.257  0.00  0.00    -0.276 OA
ATOM      6  N   UNL     1       9.125   5.176   7.786  0.00  0.00    -0.286 N 
ATOM     27  C   UNL     1       9.778   5.152   9.026  0.00  0.00    +0.214 C 
ATOM     28  C   UNL     1       8.856   4.715  10.136  0.00  0.00    +0.109 C 
ATOM     29  H   UNL     1       8.143   4.906   7.782  0.00  0.00    +0.155 HD
ENDBRANCH  23   6
ENDBRANCH  13  15
ENDBRANCH   4  13
BRANCH   5  14
ATOM     14  C   UNL     1      17.729   9.554   4.145  0.00  0.00    +0.144 C 
BRANCH  14  16
ATOM     16  C   UNL     1      18.829   8.829   4.867  0.00  0.00    -0.030 A 
ATOM     19  C   UNL     1      19.656   7.947   4.174  0.00  0.00    +0.005 A 
ATOM     20  C   UNL     1      19.022   9.040   6.232  0.00  0.00    +0.005 A 
ATOM     24  C   UNL     1      20.677   7.274   4.846  0.00  0.00    +0.000 A 
ATOM     25  C   UNL     1      20.043   8.367   6.905  0.00  0.00    +0.000 A 
ATOM     26  C   UNL     1      20.871   7.484   6.211  0.00  0.00    +0.000 A 
ENDBRANCH  14  16
ENDBRANCH   5  14
TORSDOF 5
ENDMDL
MODEL 10
REMARK VINA RESULT:      -6.2     27.219     30.472
REMARK  Name = 75368584
REMARK  6 active torsions:
REMARK  status: ('A' for Active; 'I' for Inactive)
REMARK    1  A    between atoms: N_4  and  C_13
REMARK    2  A    between atoms: N_5  and  C_14
REMARK    3  A    between atoms: N_6  and  C_23
REMARK    4  A    between atoms: C_13  and  C_15
REMARK    5  A    between atoms: C_14  and  C_16
REMARK    6  A    between atoms: C_27  and  C_28
REMARK                            x       y       z     vdW  Elec       q    Type
REMARK                         _______ _______ _______ _____ _____    ______ ____
ROOT
ATOM      1  O   UNL     1      -1.286 -10.411  11.896  0.00  0.00    -0.252 OA
ATOM      3  N   UNL     1      -2.698 -10.495  13.772  0.00  0.00    -0.278 N 
ATOM      4  N   UNL     1      -3.579 -11.126  16.368  0.00  0.00    -0.295 NA
ATOM      5  N   UNL     1      -3.596 -10.867  11.747  0.00  0.00    -0.279 N 
ATOM      7  C   UNL     1      -4.119 -10.613  14.021  0.00  0.00    +0.109 C 
ATOM      8  C   UNL     1      -4.376 -11.552  15.199  0.00  0.00    +0.109 C 
ATOM      9  C   UNL     1      -4.683 -11.091  12.685  0.00  0.00    +0.133 C 
ATOM     10  C   UNL     1      -1.804 -10.225  14.880  0.00  0.00    +0.125 C 
ATOM     11  C   UNL     1      -2.136 -11.146  16.057  0.00  0.00    +0.104 C 
ATOM     12  C   UNL     1      -2.387 -10.566  12.408  0.00  0.00    +0.305 C 
ENDROOT
BRANCH   4  13
ATOM     13  C   UNL     1      -3.865 -11.983  17.518  0.00  0.00    +0.119 C 
BRANCH  13  15
ATOM     15  C   UNL     1      -5.208 -11.689  18.118  0.00  0.00    -0.033 A 
ATOM     17  C   UNL     1      -5.490 -10.412  18.607  0.00  0.00    +0.007 A 
ATOM     18  C   UNL     1      -6.176 -12.691  18.188  0.00  0.00    +0.007 A 
ATOM     21  C   UNL     1      -6.739 -10.139  19.164  0.00  0.00    +0.023 A 
ATOM     22  C   UNL     1      -7.426 -12.418  18.745  0.00  0.00    +0.023 A 
ATOM     23  C   UNL     1      -7.707 -11.142  19.233  0.00  0.00    +0.033 A 
BRANCH  23   6
ATOM      2  O   UNL     1     -10.250 -10.168  17.949  0.00  0.00    -0.276 OA
ATOM      6  N   UNL     1      -8.956 -10.868  19.791  0.00  0.00    -0.286 N 
ATOM     27  C   UNL     1     -10.112 -10.412  19.144  0.00  0.00    +0.214 C 
ATOM     28  C   UNL     1     -11.260 -10.237  20.106  0.00  0.00    +0.109 C 
ATOM     29  H   UNL     1      -9.025 -11.021  20.795  0.00  0.00    +0.155 HD
ENDBRANCH  23   6
ENDBRANCH  13  15
ENDBRANCH   4  13
BRANCH   5  14
ATOM     14  C   UNL     1      -3.751 -11.087  10.327  0.00  0.00    +0.144 C 
BRANCH  14  16
ATOM     16  C   UNL     1      -4.816 -10.210   9.736  0.00  0.00    -0.030 A 
ATOM     19  C   UNL     1      -5.864 -10.777   9.010  0.00  0.00    +0.005 A 
ATOM     20  C   UNL     1      -4.758  -8.828   9.912  0.00  0.00    +0.005 A 
ATOM     24  C   UNL     1      -6.854  -9.961   8.461  0.00  0.00    +0.000 A 
ATOM     25  C   UNL     1      -5.748  -8.011   9.362  0.00  0.00    +0.000 A 
ATOM     26  C   UNL     1      -6.796  -8.579   8.637  0.00  0.00    +0.000 A 
ENDBRANCH  14  16
ENDBRANCH   5  14
TORSDOF 5
ENDMDL
