MODEL 1
REMARK VINA RESULT:      -7.2      0.000      0.000
REMARK  Name = 28963135
REMARK  11 active torsions:
REMARK  status: ('A' for Active; 'I' for Inactive)
REMARK    1  A    between atoms: O_1  and  C_10
REMARK    2  A    between atoms: N_4  and  C_14
REMARK    3  A    between atoms: N_5  and  C_23
REMARK    4  A    between atoms: N_6  and  C_24
REMARK    5  A    between atoms: C_7  and  C_17
REMARK    6  A    between atoms: C_9  and  C_19
REMARK    7  A    between atoms: C_13  and  C_18
REMARK    8  A    between atoms: C_18  and  C_20
REMARK    9  A    between atoms: C_18  and  C_21
REMARK   10  A    between atoms: C_23  and  C_25
REMARK   11  A    between atoms: C_24  and  C_26
REMARK                            x       y       z     vdW  Elec       q    Type
REMARK                         _______ _______ _______ _____ _____    ______ ____
ROOT
ATOM      7  C   UNL     1      11.609   8.057  21.129  0.00  0.00    -0.027 C 
ATOM      8  C   UNL     1      12.839   8.944  21.519  0.00  0.00    +0.028 C 
ATOM      9  C   UNL     1      12.377  10.379  21.960  0.00  0.00    +0.012 C 
ATOM     10  C   UNL     1      13.935   8.904  20.416  0.00  0.00    +0.122 C 
ATOM     11  C   UNL     1      12.088   6.622  20.812  0.00  0.00    +0.007 C 
ATOM     12  C   UNL     1      10.644   7.975  22.335  0.00  0.00    +0.009 C 
ATOM     13  C   UNL     1      14.336   7.461  20.028  0.00  0.00    +0.029 C 
ATOM     14  C   UNL     1      11.350  10.281  23.123  0.00  0.00    +0.078 C 
ATOM     15  C   UNL     1      13.133   6.574  19.705  0.00  0.00    +0.007 C 
ATOM     16  C   UNL     1      10.182   9.341  22.825  0.00  0.00    +0.023 C 
ATOM     17  C   UNL     1      10.845   8.611  19.901  0.00  0.00    +0.011 C 
ATOM     19  C   UNL     1      13.536  11.296  22.385  0.00  0.00    +0.010 C 
ENDROOT
BRANCH  14   4
ATOM      3  O   UNL     1      11.668  11.669  25.632  0.00  0.00    -0.253 OA
ATOM      4  N   UNL     1      10.814  11.579  23.476  0.00  0.00    -0.296 N 
ATOM      6  N   UNL     1      10.396  13.416  24.788  0.00  0.00    -0.300 N 
ATOM     22  C   UNL     1      11.020  12.173  24.716  0.00  0.00    +0.300 C 
ATOM     32  H   UNL     1      10.195  12.042  22.817  0.00  0.00    +0.151 HD
ATOM     35  H   UNL     1       9.892  13.757  23.974  0.00  0.00    +0.150 HD
BRANCH   6  24
ATOM     24  C   UNL     1      10.449  14.251  25.964  0.00  0.00    +0.102 C 
ATOM     26  C   UNL     1      11.663  15.155  25.949  0.00  0.00    +0.024 C 
ENDBRANCH   6  24
ENDBRANCH  14   4
BRANCH  10   1
ATOM      1  O   UNL     1      15.120   9.541  20.898  0.00  0.00    -0.391 OA
ATOM     33  H   UNL     1      15.732   9.647  20.149  0.00  0.00    +0.210 HD
ENDBRANCH  10   1
BRANCH  13  18
ATOM     18  C   UNL     1      15.318   7.440  18.852  0.00  0.00    +0.077 C 
ATOM     20  C   UNL     1      14.608   6.985  17.582  0.00  0.00    +0.017 C 
BRANCH  18  21
ATOM      2  O   UNL     1      16.755   5.514  18.549  0.00  0.00    -0.276 OA
ATOM      5  N   UNL     1      17.247   7.006  20.254  0.00  0.00    -0.311 N 
ATOM     21  C   UNL     1      16.505   6.538  19.180  0.00  0.00    +0.216 C 
ATOM     34  H   UNL     1      17.007   7.891  20.690  0.00  0.00    +0.149 HD
BRANCH   5  23
ATOM     23  C   UNL     1      18.416   6.321  20.753  0.00  0.00    +0.139 C 
BRANCH  23  25
ATOM     25  C   UNL     1      19.154   7.138  21.774  0.00  0.00    -0.030 A 
ATOM     27  C   UNL     1      19.001   8.524  21.800  0.00  0.00    +0.005 A 
ATOM     28  C   UNL     1      19.990   6.511  22.698  0.00  0.00    +0.005 A 
ATOM     29  C   UNL     1      19.686   9.283  22.749  0.00  0.00    +0.000 A 
ATOM     30  C   UNL     1      20.674   7.270  23.647  0.00  0.00    +0.000 A 
ATOM     31  C   UNL     1      20.521   8.656  23.673  0.00  0.00    +0.000 A 
ENDBRANCH  23  25
ENDBRANCH   5  23
ENDBRANCH  18  21
ENDBRANCH  13  18
TORSDOF 7
ENDMDL
MODEL 2
REMARK VINA RESULT:      -6.9     27.696     30.296
REMARK  Name = 28963135
REMARK  11 active torsions:
REMARK  status: ('A' for Active; 'I' for Inactive)
REMARK    1  A    between atoms: O_1  and  C_10
REMARK    2  A    between atoms: N_4  and  C_14
REMARK    3  A    between atoms: N_5  and  C_23
REMARK    4  A    between atoms: N_6  and  C_24
REMARK    5  A    between atoms: C_7  and  C_17
REMARK    6  A    between atoms: C_9  and  C_19
REMARK    7  A    between atoms: C_13  and  C_18
REMARK    8  A    between atoms: C_18  and  C_20
REMARK    9  A    between atoms: C_18  and  C_21
REMARK   10  A    between atoms: C_23  and  C_25
REMARK   11  A    between atoms: C_24  and  C_26
REMARK                            x       y       z     vdW  Elec       q    Type
REMARK                         _______ _______ _______ _____ _____    ______ ____
ROOT
ATOM      7  C   UNL     1      -3.542 -10.308  11.141  0.00  0.00    -0.027 C 
ATOM      8  C   UNL     1      -4.807  -9.871  11.954  0.00  0.00    +0.028 C 
ATOM      9  C   UNL     1      -4.965 -10.741  13.252  0.00  0.00    +0.012 C 
ATOM     10  C   UNL     1      -6.065  -9.797  11.041  0.00  0.00    +0.122 C 
ATOM     11  C   UNL     1      -3.352  -9.360   9.934  0.00  0.00    +0.007 C 
ATOM     12  C   UNL     1      -2.293 -10.176  12.044  0.00  0.00    +0.009 C 
ATOM     13  C   UNL     1      -5.834  -8.931   9.780  0.00  0.00    +0.029 C 
ATOM     14  C   UNL     1      -3.674 -10.661  14.115  0.00  0.00    +0.078 C 
ATOM     15  C   UNL     1      -4.566  -9.315   9.017  0.00  0.00    +0.007 C 
ATOM     16  C   UNL     1      -2.400 -10.978  13.333  0.00  0.00    +0.023 C 
ATOM     17  C   UNL     1      -3.643 -11.763  10.621  0.00  0.00    +0.011 C 
ATOM     19  C   UNL     1      -6.176 -10.346  14.115  0.00  0.00    +0.010 C 
ENDROOT
BRANCH  14   4
ATOM      3  O   UNL     1      -3.992  -9.899  16.880  0.00  0.00    -0.253 OA
ATOM      4  N   UNL     1      -3.740 -11.543  15.262  0.00  0.00    -0.296 N 
ATOM      6  N   UNL     1      -3.927 -12.142  17.470  0.00  0.00    -0.300 N 
ATOM     22  C   UNL     1      -3.895 -11.084  16.564  0.00  0.00    +0.300 C 
ATOM     32  H   UNL     1      -3.588 -12.537  15.116  0.00  0.00    +0.151 HD
ATOM     35  H   UNL     1      -3.853 -13.091  17.115  0.00  0.00    +0.150 HD
BRANCH   6  24
ATOM     24  C   UNL     1      -4.080 -11.949  18.892  0.00  0.00    +0.102 C 
ATOM     26  C   UNL     1      -5.536 -11.785  19.277  0.00  0.00    +0.024 C 
ENDBRANCH   6  24
ENDBRANCH  14   4
BRANCH  10   1
ATOM      1  O   UNL     1      -7.141  -9.193  11.761  0.00  0.00    -0.391 OA
ATOM     33  H   UNL     1      -6.768  -8.511  12.346  0.00  0.00    +0.210 HD
ENDBRANCH  10   1
BRANCH  13  18
ATOM     18  C   UNL     1      -7.037  -8.977   8.832  0.00  0.00    +0.077 C 
ATOM     20  C   UNL     1      -6.684  -9.759   7.572  0.00  0.00    +0.017 C 
BRANCH  18  21
ATOM      2  O   UNL     1      -6.801  -6.568   8.729  0.00  0.00    -0.276 OA
ATOM      5  N   UNL     1      -8.749  -7.527   7.915  0.00  0.00    -0.311 N 
ATOM     21  C   UNL     1      -7.490  -7.558   8.497  0.00  0.00    +0.216 C 
ATOM     34  H   UNL     1      -9.235  -8.393   7.707  0.00  0.00    +0.149 HD
BRANCH   5  23
ATOM     23  C   UNL     1      -9.392  -6.297   7.512  0.00  0.00    +0.139 C 
BRANCH  23  25
ATOM     25  C   UNL     1     -10.284  -5.750   8.589  0.00  0.00    -0.030 A 
ATOM     27  C   UNL     1     -10.354  -4.373   8.803  0.00  0.00    +0.005 A 
ATOM     28  C   UNL     1     -11.042  -6.618   9.374  0.00  0.00    +0.005 A 
ATOM     29  C   UNL     1     -11.182  -3.865   9.803  0.00  0.00    +0.000 A 
ATOM     30  C   UNL     1     -11.871  -6.109  10.374  0.00  0.00    +0.000 A 
ATOM     31  C   UNL     1     -11.941  -4.732  10.588  0.00  0.00    +0.000 A 
ENDBRANCH  23  25
ENDBRANCH   5  23
ENDBRANCH  18  21
ENDBRANCH  13  18
TORSDOF 7
ENDMDL
MODEL 3
REMARK VINA RESULT:      -6.7     27.359     30.270
REMARK  Name = 28963135
REMARK  11 active torsions:
REMARK  status: ('A' for Active; 'I' for Inactive)
REMARK    1  A    between atoms: O_1  and  C_10
REMARK    2  A    between atoms: N_4  and  C_14
REMARK    3  A    between atoms: N_5  and  C_23
REMARK    4  A    between atoms: N_6  and  C_24
REMARK    5  A    between atoms: C_7  and  C_17
REMARK    6  A    between atoms: C_9  and  C_19
REMARK    7  A    between atoms: C_13  and  C_18
REMARK    8  A    between atoms: C_18  and  C_20
REMARK    9  A    between atoms: C_18  and  C_21
REMARK   10  A    between atoms: C_23  and  C_25
REMARK   11  A    between atoms: C_24  and  C_26
REMARK                            x       y       z     vdW  Elec       q    Type
REMARK                         _______ _______ _______ _____ _____    ______ ____
ROOT
ATOM      7  C   UNL     1      -3.417 -11.221  11.715  0.00  0.00    -0.027 C 
ATOM      8  C   UNL     1      -4.750 -10.569  12.214  0.00  0.00    +0.028 C 
ATOM      9  C   UNL     1      -5.271  -9.504  11.184  0.00  0.00    +0.012 C 
ATOM     10  C   UNL     1      -4.619 -10.072  13.682  0.00  0.00    +0.122 C 
ATOM     11  C   UNL     1      -2.994 -12.342  12.693  0.00  0.00    +0.007 C 
ATOM     12  C   UNL     1      -3.660 -11.870  10.332  0.00  0.00    +0.009 C 
ATOM     13  C   UNL     1      -4.096 -11.170  14.638  0.00  0.00    +0.029 C 
ATOM     14  C   UNL     1      -5.440 -10.149   9.780  0.00  0.00    +0.078 C 
ATOM     15  C   UNL     1      -2.827 -11.851  14.124  0.00  0.00    +0.007 C 
ATOM     16  C   UNL     1      -4.192 -10.889   9.297  0.00  0.00    +0.023 C 
ATOM     17  C   UNL     1      -2.262 -10.196  11.602  0.00  0.00    +0.011 C 
ATOM     19  C   UNL     1      -6.596  -8.842  11.599  0.00  0.00    +0.010 C 
ENDROOT
BRANCH  14   4
ATOM      3  O   UNL     1      -7.572 -10.352   7.846  0.00  0.00    -0.253 OA
ATOM      4  N   UNL     1      -5.807  -9.169   8.780  0.00  0.00    -0.296 N 
ATOM      6  N   UNL     1      -6.989  -8.258   7.035  0.00  0.00    -0.300 N 
ATOM     22  C   UNL     1      -6.855  -9.353   7.885  0.00  0.00    +0.300 C 
ATOM     32  H   UNL     1      -5.224  -8.344   8.675  0.00  0.00    +0.151 HD
ATOM     35  H   UNL     1      -6.358  -7.470   7.150  0.00  0.00    +0.150 HD
BRANCH   6  24
ATOM     24  C   UNL     1      -8.000  -8.184   6.008  0.00  0.00    +0.102 C 
ATOM     26  C   UNL     1      -9.058  -7.154   6.342  0.00  0.00    +0.024 C 
ENDBRANCH   6  24
ENDBRANCH  14   4
BRANCH  10   1
ATOM      1  O   UNL     1      -5.904  -9.685  14.171  0.00  0.00    -0.391 OA
ATOM     33  H   UNL     1      -6.520  -9.660  13.417  0.00  0.00    +0.210 HD
ENDBRANCH  10   1
BRANCH  13  18
ATOM     18  C   UNL     1      -3.849 -10.625  16.049  0.00  0.00    +0.077 C 
ATOM     20  C   UNL     1      -2.396 -10.848  16.453  0.00  0.00    +0.017 C 
BRANCH  18  21
ATOM      2  O   UNL     1      -4.586 -12.380  17.547  0.00  0.00    -0.276 OA
ATOM      5  N   UNL     1      -5.936 -10.514  17.277  0.00  0.00    -0.311 N 
ATOM     21  C   UNL     1      -4.808 -11.285  17.036  0.00  0.00    +0.216 C 
ATOM     34  H   UNL     1      -6.022  -9.595  16.856  0.00  0.00    +0.149 HD
BRANCH   5  23
ATOM     23  C   UNL     1      -6.989 -10.930  18.174  0.00  0.00    +0.139 C 
BRANCH  23  25
ATOM     25  C   UNL     1      -8.248 -10.138  17.968  0.00  0.00    -0.030 A 
ATOM     27  C   UNL     1      -9.418 -10.504  18.634  0.00  0.00    +0.005 A 
ATOM     28  C   UNL     1      -8.248  -9.037  17.113  0.00  0.00    +0.005 A 
ATOM     29  C   UNL     1     -10.587  -9.769  18.443  0.00  0.00    +0.000 A 
ATOM     30  C   UNL     1      -9.417  -8.301  16.922  0.00  0.00    +0.000 A 
ATOM     31  C   UNL     1     -10.587  -8.667  17.588  0.00  0.00    +0.000 A 
ENDBRANCH  23  25
ENDBRANCH   5  23
ENDBRANCH  18  21
ENDBRANCH  13  18
TORSDOF 7
ENDMDL
MODEL 4
REMARK VINA RESULT:      -6.7      2.249      3.061
REMARK  Name = 28963135
REMARK  11 active torsions:
REMARK  status: ('A' for Active; 'I' for Inactive)
REMARK    1  A    between atoms: O_1  and  C_10
REMARK    2  A    between atoms: N_4  and  C_14
REMARK    3  A    between atoms: N_5  and  C_23
REMARK    4  A    between atoms: N_6  and  C_24
REMARK    5  A    between atoms: C_7  and  C_17
REMARK    6  A    between atoms: C_9  and  C_19
REMARK    7  A    between atoms: C_13  and  C_18
REMARK    8  A    between atoms: C_18  and  C_20
REMARK    9  A    between atoms: C_18  and  C_21
REMARK   10  A    between atoms: C_23  and  C_25
REMARK   11  A    between atoms: C_24  and  C_26
REMARK                            x       y       z     vdW  Elec       q    Type
REMARK                         _______ _______ _______ _____ _____    ______ ____
ROOT
ATOM      7  C   UNL     1      13.020   8.182  21.068  0.00  0.00    -0.027 C 
ATOM      8  C   UNL     1      13.910   9.354  21.603  0.00  0.00    +0.028 C 
ATOM      9  C   UNL     1      13.180  10.734  21.433  0.00  0.00    +0.012 C 
ATOM     10  C   UNL     1      15.349   9.282  21.015  0.00  0.00    +0.122 C 
ATOM     11  C   UNL     1      13.717   6.832  21.354  0.00  0.00    +0.007 C 
ATOM     12  C   UNL     1      11.673   8.186  21.828  0.00  0.00    +0.009 C 
ATOM     13  C   UNL     1      16.003   7.894  21.212  0.00  0.00    +0.029 C 
ATOM     14  C   UNL     1      11.794  10.701  22.137  0.00  0.00    +0.078 C 
ATOM     15  C   UNL     1      15.111   6.743  20.746  0.00  0.00    +0.007 C 
ATOM     16  C   UNL     1      10.930   9.510  21.722  0.00  0.00    +0.023 C 
ATOM     17  C   UNL     1      12.747   8.291  19.547  0.00  0.00    +0.011 C 
ATOM     19  C   UNL     1      13.989  11.929  21.966  0.00  0.00    +0.010 C 
ENDROOT
BRANCH  14   4
ATOM      3  O   UNL     1      10.673  12.465  24.126  0.00  0.00    -0.253 OA
ATOM      4  N   UNL     1      11.043  11.916  21.902  0.00  0.00    -0.296 N 
ATOM      6  N   UNL     1       9.860  13.813  22.423  0.00  0.00    -0.300 N 
ATOM     22  C   UNL     1      10.539  12.707  22.928  0.00  0.00    +0.300 C 
ATOM     32  H   UNL     1      10.807  12.160  20.945  0.00  0.00    +0.151 HD
ATOM     35  H   UNL     1       9.811  13.938  21.416  0.00  0.00    +0.150 HD
BRANCH   6  24
ATOM     24  C   UNL     1       9.236  14.802  23.269  0.00  0.00    +0.102 C 
ATOM     26  C   UNL     1       7.897  15.242  22.715  0.00  0.00    +0.024 C 
ENDBRANCH   6  24
ENDBRANCH  14   4
BRANCH  10   1
ATOM      1  O   UNL     1      16.185  10.227  21.684  0.00  0.00    -0.391 OA
ATOM     33  H   UNL     1      16.817   9.734  22.236  0.00  0.00    +0.210 HD
ENDBRANCH  10   1
BRANCH  13  18
ATOM     18  C   UNL     1      17.364   7.803  20.513  0.00  0.00    +0.077 C 
ATOM     20  C   UNL     1      17.477   6.486  19.753  0.00  0.00    +0.017 C 
BRANCH  18  21
ATOM      2  O   UNL     1      18.720   9.012  22.115  0.00  0.00    -0.276 OA
ATOM      5  N   UNL     1      19.194   6.775  21.725  0.00  0.00    -0.311 N 
ATOM     21  C   UNL     1      18.486   7.953  21.536  0.00  0.00    +0.216 C 
ATOM     34  H   UNL     1      18.905   5.927  21.248  0.00  0.00    +0.149 HD
BRANCH   5  23
ATOM     23  C   UNL     1      20.303   6.670  22.644  0.00  0.00    +0.139 C 
BRANCH  23  25
ATOM     25  C   UNL     1      21.140   5.452  22.378  0.00  0.00    -0.030 A 
ATOM     27  C   UNL     1      22.136   5.080  23.281  0.00  0.00    +0.005 A 
ATOM     28  C   UNL     1      20.920   4.692  21.229  0.00  0.00    +0.005 A 
ATOM     29  C   UNL     1      22.912   3.948  23.034  0.00  0.00    +0.000 A 
ATOM     30  C   UNL     1      21.696   3.560  20.983  0.00  0.00    +0.000 A 
ATOM     31  C   UNL     1      22.692   3.188  21.886  0.00  0.00    +0.000 A 
ENDBRANCH  23  25
ENDBRANCH   5  23
ENDBRANCH  18  21
ENDBRANCH  13  18
TORSDOF 7
ENDMDL
MODEL 5
REMARK VINA RESULT:      -6.6     27.463     29.533
REMARK  Name = 28963135
REMARK  11 active torsions:
REMARK  status: ('A' for Active; 'I' for Inactive)
REMARK    1  A    between atoms: O_1  and  C_10
REMARK    2  A    between atoms: N_4  and  C_14
REMARK    3  A    between atoms: N_5  and  C_23
REMARK    4  A    between atoms: N_6  and  C_24
REMARK    5  A    between atoms: C_7  and  C_17
REMARK    6  A    between atoms: C_9  and  C_19
REMARK    7  A    between atoms: C_13  and  C_18
REMARK    8  A    between atoms: C_18  and  C_20
REMARK    9  A    between atoms: C_18  and  C_21
REMARK   10  A    between atoms: C_23  and  C_25
REMARK   11  A    between atoms: C_24  and  C_26
REMARK                            x       y       z     vdW  Elec       q    Type
REMARK                         _______ _______ _______ _____ _____    ______ ____
ROOT
ATOM      7  C   UNL     1      -4.661 -11.055  16.839  0.00  0.00    -0.027 C 
ATOM      8  C   UNL     1      -5.481 -10.531  15.613  0.00  0.00    +0.028 C 
ATOM      9  C   UNL     1      -7.020 -10.752  15.833  0.00  0.00    +0.012 C 
ATOM     10  C   UNL     1      -4.911 -11.084  14.275  0.00  0.00    +0.122 C 
ATOM     11  C   UNL     1      -3.165 -10.720  16.641  0.00  0.00    +0.007 C 
ATOM     12  C   UNL     1      -5.142 -10.326  18.116  0.00  0.00    +0.009 C 
ATOM     13  C   UNL     1      -3.391 -10.837  14.129  0.00  0.00    +0.029 C 
ATOM     14  C   UNL     1      -7.478 -10.079  17.158  0.00  0.00    +0.078 C 
ATOM     15  C   UNL     1      -2.593 -11.293  15.351  0.00  0.00    +0.007 C 
ATOM     16  C   UNL     1      -6.635 -10.483  18.367  0.00  0.00    +0.023 C 
ATOM     17  C   UNL     1      -4.807 -12.584  17.040  0.00  0.00    +0.011 C 
ATOM     19  C   UNL     1      -7.890 -10.232  14.676  0.00  0.00    +0.010 C 
ENDROOT
BRANCH  14   4
ATOM      3  O   UNL     1      -9.595  -8.161  17.566  0.00  0.00    -0.253 OA
ATOM      4  N   UNL     1      -8.867 -10.362  17.452  0.00  0.00    -0.296 N 
ATOM      6  N   UNL     1     -11.073  -9.916  17.904  0.00  0.00    -0.300 N 
ATOM     22  C   UNL     1      -9.821  -9.368  17.634  0.00  0.00    +0.300 C 
ATOM     32  H   UNL     1      -9.140 -11.327  17.610  0.00  0.00    +0.151 HD
ATOM     35  H   UNL     1     -11.168 -10.928  17.927  0.00  0.00    +0.150 HD
BRANCH   6  24
ATOM     24  C   UNL     1     -12.248  -9.109  18.134  0.00  0.00    +0.102 C 
ATOM     26  C   UNL     1     -12.998  -8.841  16.847  0.00  0.00    +0.024 C 
ENDBRANCH   6  24
ENDBRANCH  14   4
BRANCH  10   1
ATOM      1  O   UNL     1      -5.540 -10.420  13.178  0.00  0.00    -0.391 OA
ATOM     33  H   UNL     1      -6.484 -10.656  13.182  0.00  0.00    +0.210 HD
ENDBRANCH  10   1
BRANCH  13  18
ATOM     18  C   UNL     1      -2.825 -11.503  12.870  0.00  0.00    +0.077 C 
ATOM     20  C   UNL     1      -1.610 -12.353  13.225  0.00  0.00    +0.017 C 
BRANCH  18  21
ATOM      2  O   UNL     1      -1.375  -9.898  11.780  0.00  0.00    -0.276 OA
ATOM      5  N   UNL     1      -3.533 -10.168  10.975  0.00  0.00    -0.311 N 
ATOM     21  C   UNL     1      -2.476 -10.440  11.832  0.00  0.00    +0.216 C 
ATOM     34  H   UNL     1      -4.395 -10.697  11.048  0.00  0.00    +0.149 HD
BRANCH   5  23
ATOM     23  C   UNL     1      -3.444  -9.196   9.910  0.00  0.00    +0.139 C 
BRANCH  23  25
ATOM     25  C   UNL     1      -4.725  -9.095   9.133  0.00  0.00    -0.030 A 
ATOM     27  C   UNL     1      -5.726  -8.219   9.553  0.00  0.00    +0.005 A 
ATOM     28  C   UNL     1      -4.912  -9.875   7.993  0.00  0.00    +0.005 A 
ATOM     29  C   UNL     1      -6.916  -8.125   8.831  0.00  0.00    +0.000 A 
ATOM     30  C   UNL     1      -6.102  -9.780   7.271  0.00  0.00    +0.000 A 
ATOM     31  C   UNL     1      -7.104  -8.904   7.690  0.00  0.00    +0.000 A 
ENDBRANCH  23  25
ENDBRANCH   5  23
ENDBRANCH  18  21
ENDBRANCH  13  18
TORSDOF 7
ENDMDL
MODEL 6
REMARK VINA RESULT:      -6.4     26.538     29.489
REMARK  Name = 28963135
REMARK  11 active torsions:
REMARK  status: ('A' for Active; 'I' for Inactive)
REMARK    1  A    between atoms: O_1  and  C_10
REMARK    2  A    between atoms: N_4  and  C_14
REMARK    3  A    between atoms: N_5  and  C_23
REMARK    4  A    between atoms: N_6  and  C_24
REMARK    5  A    between atoms: C_7  and  C_17
REMARK    6  A    between atoms: C_9  and  C_19
REMARK    7  A    between atoms: C_13  and  C_18
REMARK    8  A    between atoms: C_18  and  C_20
REMARK    9  A    between atoms: C_18  and  C_21
REMARK   10  A    between atoms: C_23  and  C_25
REMARK   11  A    between atoms: C_24  and  C_26
REMARK                            x       y       z     vdW  Elec       q    Type
REMARK                         _______ _______ _______ _____ _____    ______ ____
ROOT
ATOM      7  C   UNL     1      -6.431 -10.838  17.413  0.00  0.00    -0.027 C 
ATOM      8  C   UNL     1      -6.111 -10.180  16.029  0.00  0.00    +0.028 C 
ATOM      9  C   UNL     1      -7.357 -10.249  15.076  0.00  0.00    +0.012 C 
ATOM     10  C   UNL     1      -4.784 -10.732  15.435  0.00  0.00    +0.122 C 
ATOM     11  C   UNL     1      -5.225 -10.652  18.363  0.00  0.00    +0.007 C 
ATOM     12  C   UNL     1      -7.644 -10.117  18.046  0.00  0.00    +0.009 C 
ATOM     13  C   UNL     1      -3.602 -10.638  16.430  0.00  0.00    +0.029 C 
ATOM     14  C   UNL     1      -8.591  -9.588  15.753  0.00  0.00    +0.078 C 
ATOM     15  C   UNL     1      -3.932 -11.227  17.803  0.00  0.00    +0.007 C 
ATOM     16  C   UNL     1      -8.878 -10.129  17.154  0.00  0.00    +0.023 C 
ATOM     17  C   UNL     1      -6.742 -12.351  17.293  0.00  0.00    +0.011 C 
ATOM     19  C   UNL     1      -7.122  -9.593  13.705  0.00  0.00    +0.010 C 
ENDROOT
BRANCH  14   4
ATOM      3  O   UNL     1     -10.622  -7.595  15.271  0.00  0.00    -0.253 OA
ATOM      4  N   UNL     1      -9.787  -9.737  14.951  0.00  0.00    -0.296 N 
ATOM      6  N   UNL     1     -11.766  -9.128  13.959  0.00  0.00    -0.300 N 
ATOM     22  C   UNL     1     -10.714  -8.717  14.774  0.00  0.00    +0.300 C 
ATOM     32  H   UNL     1      -9.998 -10.652  14.564  0.00  0.00    +0.151 HD
ATOM     35  H   UNL     1     -11.751 -10.072  13.582  0.00  0.00    +0.150 HD
BRANCH   6  24
ATOM     24  C   UNL     1     -12.870  -8.266  13.610  0.00  0.00    +0.102 C 
ATOM     26  C   UNL     1     -12.601  -7.514  12.323  0.00  0.00    +0.024 C 
ENDBRANCH   6  24
ENDBRANCH  14   4
BRANCH  10   1
ATOM      1  O   UNL     1      -4.416  -9.961  14.291  0.00  0.00    -0.391 OA
ATOM     33  H   UNL     1      -3.449  -9.852  14.297  0.00  0.00    +0.210 HD
ENDBRANCH  10   1
BRANCH  13  18
ATOM     18  C   UNL     1      -2.339 -11.306  15.876  0.00  0.00    +0.077 C 
ATOM     20  C   UNL     1      -1.319 -10.247  15.471  0.00  0.00    +0.017 C 
BRANCH  18  21
ATOM      2  O   UNL     1      -3.285 -13.281  14.841  0.00  0.00    -0.276 OA
ATOM      5  N   UNL     1      -2.294 -11.683  13.483  0.00  0.00    -0.311 N 
ATOM     21  C   UNL     1      -2.700 -12.209  14.700  0.00  0.00    +0.216 C 
ATOM     34  H   UNL     1      -1.862 -10.766  13.444  0.00  0.00    +0.149 HD
BRANCH   5  23
ATOM     23  C   UNL     1      -2.522 -12.358  12.226  0.00  0.00    +0.139 C 
BRANCH  23  25
ATOM     25  C   UNL     1      -3.050 -11.425  11.175  0.00  0.00    -0.030 A 
ATOM     27  C   UNL     1      -2.690 -10.077  11.195  0.00  0.00    +0.005 A 
ATOM     28  C   UNL     1      -3.899 -11.905  10.178  0.00  0.00    +0.005 A 
ATOM     29  C   UNL     1      -3.180  -9.210  10.219  0.00  0.00    +0.000 A 
ATOM     30  C   UNL     1      -4.389 -11.038   9.202  0.00  0.00    +0.000 A 
ATOM     31  C   UNL     1      -4.029  -9.690   9.222  0.00  0.00    +0.000 A 
ENDBRANCH  23  25
ENDBRANCH   5  23
ENDBRANCH  18  21
ENDBRANCH  13  18
TORSDOF 7
ENDMDL
MODEL 7
REMARK VINA RESULT:      -6.4     27.507     30.846
REMARK  Name = 28963135
REMARK  11 active torsions:
REMARK  status: ('A' for Active; 'I' for Inactive)
REMARK    1  A    between atoms: O_1  and  C_10
REMARK    2  A    between atoms: N_4  and  C_14
REMARK    3  A    between atoms: N_5  and  C_23
REMARK    4  A    between atoms: N_6  and  C_24
REMARK    5  A    between atoms: C_7  and  C_17
REMARK    6  A    between atoms: C_9  and  C_19
REMARK    7  A    between atoms: C_13  and  C_18
REMARK    8  A    between atoms: C_18  and  C_20
REMARK    9  A    between atoms: C_18  and  C_21
REMARK   10  A    between atoms: C_23  and  C_25
REMARK   11  A    between atoms: C_24  and  C_26
REMARK                            x       y       z     vdW  Elec       q    Type
REMARK                         _______ _______ _______ _____ _____    ______ ____
ROOT
ATOM      7  C   UNL     1      -3.230 -10.433  11.440  0.00  0.00    -0.027 C 
ATOM      8  C   UNL     1      -4.634 -10.147  12.071  0.00  0.00    +0.028 C 
ATOM      9  C   UNL     1      -4.850 -11.008  13.367  0.00  0.00    +0.012 C 
ATOM     10  C   UNL     1      -5.762 -10.249  11.005  0.00  0.00    +0.122 C 
ATOM     11  C   UNL     1      -3.004  -9.490  10.235  0.00  0.00    +0.007 C 
ATOM     12  C   UNL     1      -2.134 -10.128  12.488  0.00  0.00    +0.009 C 
ATOM     13  C   UNL     1      -5.480  -9.382   9.755  0.00  0.00    +0.029 C 
ATOM     14  C   UNL     1      -3.702 -10.750  14.383  0.00  0.00    +0.078 C 
ATOM     15  C   UNL     1      -4.086  -9.615   9.171  0.00  0.00    +0.007 C 
ATOM     16  C   UNL     1      -2.307 -10.916  13.779  0.00  0.00    +0.023 C 
ATOM     17  C   UNL     1      -3.083 -11.899  10.960  0.00  0.00    +0.011 C 
ATOM     19  C   UNL     1      -6.201 -10.754  14.057  0.00  0.00    +0.010 C 
ENDROOT
BRANCH  14   4
ATOM      3  O   UNL     1      -4.233  -9.953  17.105  0.00  0.00    -0.253 OA
ATOM      4  N   UNL     1      -3.806 -11.613  15.541  0.00  0.00    -0.296 N 
ATOM      6  N   UNL     1      -4.113 -12.179  17.744  0.00  0.00    -0.300 N 
ATOM     22  C   UNL     1      -4.066 -11.137  16.821  0.00  0.00    +0.300 C 
ATOM     32  H   UNL     1      -3.602 -12.601  15.426  0.00  0.00    +0.151 HD
ATOM     35  H   UNL     1      -3.975 -13.131  17.415  0.00  0.00    +0.150 HD
BRANCH   6  24
ATOM     24  C   UNL     1      -4.367 -11.968  19.150  0.00  0.00    +0.102 C 
ATOM     26  C   UNL     1      -5.842 -11.753  19.420  0.00  0.00    +0.024 C 
ENDBRANCH   6  24
ENDBRANCH  14   4
BRANCH  10   1
ATOM      1  O   UNL     1      -6.989  -9.774  11.563  0.00  0.00    -0.391 OA
ATOM     33  H   UNL     1      -6.963  -8.801  11.566  0.00  0.00    +0.210 HD
ENDBRANCH  10   1
BRANCH  13  18
ATOM     18  C   UNL     1      -6.535  -9.596   8.664  0.00  0.00    +0.077 C 
ATOM     20  C   UNL     1      -5.859  -9.910   7.334  0.00  0.00    +0.017 C 
BRANCH  18  21
ATOM      2  O   UNL     1      -7.965  -7.846   9.534  0.00  0.00    -0.276 OA
ATOM      5  N   UNL     1      -7.564  -7.918   7.251  0.00  0.00    -0.311 N 
ATOM     21  C   UNL     1      -7.430  -8.365   8.557  0.00  0.00    +0.216 C 
ATOM     34  H   UNL     1      -7.047  -8.370   6.504  0.00  0.00    +0.149 HD
BRANCH   5  23
ATOM     23  C   UNL     1      -8.364  -6.769   6.897  0.00  0.00    +0.139 C 
BRANCH  23  25
ATOM     25  C   UNL     1      -9.687  -7.164   6.308  0.00  0.00    -0.030 A 
ATOM     27  C   UNL     1      -9.861  -7.165   4.924  0.00  0.00    +0.005 A 
ATOM     28  C   UNL     1     -10.741  -7.532   7.144  0.00  0.00    +0.005 A 
ATOM     29  C   UNL     1     -11.090  -7.532   4.377  0.00  0.00    +0.000 A 
ATOM     30  C   UNL     1     -11.970  -7.901   6.596  0.00  0.00    +0.000 A 
ATOM     31  C   UNL     1     -12.144  -7.901   5.212  0.00  0.00    +0.000 A 
ENDBRANCH  23  25
ENDBRANCH   5  23
ENDBRANCH  18  21
ENDBRANCH  13  18
TORSDOF 7
ENDMDL
MODEL 8
REMARK VINA RESULT:      -6.3     28.052     30.674
REMARK  Name = 28963135
REMARK  11 active torsions:
REMARK  status: ('A' for Active; 'I' for Inactive)
REMARK    1  A    between atoms: O_1  and  C_10
REMARK    2  A    between atoms: N_4  and  C_14
REMARK    3  A    between atoms: N_5  and  C_23
REMARK    4  A    between atoms: N_6  and  C_24
REMARK    5  A    between atoms: C_7  and  C_17
REMARK    6  A    between atoms: C_9  and  C_19
REMARK    7  A    between atoms: C_13  and  C_18
REMARK    8  A    between atoms: C_18  and  C_20
REMARK    9  A    between atoms: C_18  and  C_21
REMARK   10  A    between atoms: C_23  and  C_25
REMARK   11  A    between atoms: C_24  and  C_26
REMARK                            x       y       z     vdW  Elec       q    Type
REMARK                         _______ _______ _______ _____ _____    ______ ____
ROOT
ATOM      7  C   UNL     1      -8.707 -10.449  16.874  0.00  0.00    -0.027 C 
ATOM      8  C   UNL     1      -8.263 -11.688  17.722  0.00  0.00    +0.028 C 
ATOM      9  C   UNL     1      -8.938 -11.667  19.140  0.00  0.00    +0.012 C 
ATOM     10  C   UNL     1      -6.715 -11.846  17.721  0.00  0.00    +0.122 C 
ATOM     11  C   UNL     1      -8.117 -10.561  15.449  0.00  0.00    +0.007 C 
ATOM     12  C   UNL     1     -10.249 -10.453  16.746  0.00  0.00    +0.009 C 
ATOM     13  C   UNL     1      -6.119 -11.852  16.293  0.00  0.00    +0.029 C 
ATOM     14  C   UNL     1     -10.484 -11.595  18.999  0.00  0.00    +0.078 C 
ATOM     15  C   UNL     1      -6.599 -10.676  15.442  0.00  0.00    +0.007 C 
ATOM     16  C   UNL     1     -10.960 -10.460  18.092  0.00  0.00    +0.023 C 
ATOM     17  C   UNL     1      -8.251  -9.108  17.500  0.00  0.00    +0.011 C 
ATOM     19  C   UNL     1      -8.566 -12.874  20.017  0.00  0.00    +0.010 C 
ENDROOT
BRANCH  14   4
ATOM      3  O   UNL     1     -12.910 -12.891  19.872  0.00  0.00    -0.253 OA
ATOM      4  N   UNL     1     -11.134 -11.456  20.286  0.00  0.00    -0.296 N 
ATOM      6  N   UNL     1     -12.712 -11.810  21.915  0.00  0.00    -0.300 N 
ATOM     22  C   UNL     1     -12.307 -12.123  20.620  0.00  0.00    +0.300 C 
ATOM     32  H   UNL     1     -10.759 -10.781  20.946  0.00  0.00    +0.151 HD
ATOM     35  H   UNL     1     -12.142 -11.174  22.465  0.00  0.00    +0.150 HD
BRANCH   6  24
ATOM     24  C   UNL     1     -13.901 -12.364  22.518  0.00  0.00    +0.102 C 
ATOM     26  C   UNL     1     -15.122 -11.521  22.216  0.00  0.00    +0.024 C 
ENDBRANCH   6  24
ENDBRANCH  14   4
BRANCH  10   1
ATOM      1  O   UNL     1      -6.362 -13.096  18.315  0.00  0.00    -0.391 OA
ATOM     33  H   UNL     1      -5.581 -12.954  18.877  0.00  0.00    +0.210 HD
ENDBRANCH  10   1
BRANCH  13  18
ATOM     18  C   UNL     1      -4.587 -11.875  16.316  0.00  0.00    +0.077 C 
ATOM     20  C   UNL     1      -4.048 -10.534  16.800  0.00  0.00    +0.017 C 
BRANCH  18  21
ATOM      2  O   UNL     1      -4.234 -13.318  14.403  0.00  0.00    -0.276 OA
ATOM      5  N   UNL     1      -3.344 -11.177  14.356  0.00  0.00    -0.311 N 
ATOM     21  C   UNL     1      -4.050 -12.224  14.931  0.00  0.00    +0.216 C 
ATOM     34  H   UNL     1      -3.280 -10.285  14.834  0.00  0.00    +0.149 HD
BRANCH   5  23
ATOM     23  C   UNL     1      -2.739 -11.269  13.048  0.00  0.00    +0.139 C 
BRANCH  23  25
ATOM     25  C   UNL     1      -3.411 -10.369  12.053  0.00  0.00    -0.030 A 
ATOM     27  C   UNL     1      -2.724  -9.954  10.912  0.00  0.00    +0.005 A 
ATOM     28  C   UNL     1      -4.723  -9.947  12.269  0.00  0.00    +0.005 A 
ATOM     29  C   UNL     1      -3.349  -9.118   9.987  0.00  0.00    +0.000 A 
ATOM     30  C   UNL     1      -5.348  -9.111  11.344  0.00  0.00    +0.000 A 
ATOM     31  C   UNL     1      -4.660  -8.697  10.203  0.00  0.00    +0.000 A 
ENDBRANCH  23  25
ENDBRANCH   5  23
ENDBRANCH  18  21
ENDBRANCH  13  18
TORSDOF 7
ENDMDL
MODEL 9
REMARK VINA RESULT:      -6.3     14.547     16.522
REMARK  Name = 28963135
REMARK  11 active torsions:
REMARK  status: ('A' for Active; 'I' for Inactive)
REMARK    1  A    between atoms: O_1  and  C_10
REMARK    2  A    between atoms: N_4  and  C_14
REMARK    3  A    between atoms: N_5  and  C_23
REMARK    4  A    between atoms: N_6  and  C_24
REMARK    5  A    between atoms: C_7  and  C_17
REMARK    6  A    between atoms: C_9  and  C_19
REMARK    7  A    between atoms: C_13  and  C_18
REMARK    8  A    between atoms: C_18  and  C_20
REMARK    9  A    between atoms: C_18  and  C_21
REMARK   10  A    between atoms: C_23  and  C_25
REMARK   11  A    between atoms: C_24  and  C_26
REMARK                            x       y       z     vdW  Elec       q    Type
REMARK                         _______ _______ _______ _____ _____    ______ ____
ROOT
ATOM      7  C   UNL     1      16.250  -4.541  30.770  0.00  0.00    -0.027 C 
ATOM      8  C   UNL     1      15.233  -5.447  29.998  0.00  0.00    +0.028 C 
ATOM      9  C   UNL     1      14.188  -6.080  30.985  0.00  0.00    +0.012 C 
ATOM     10  C   UNL     1      15.969  -6.454  29.068  0.00  0.00    +0.122 C 
ATOM     11  C   UNL     1      17.191  -3.845  29.759  0.00  0.00    +0.007 C 
ATOM     12  C   UNL     1      15.471  -3.437  31.523  0.00  0.00    +0.009 C 
ATOM     13  C   UNL     1      16.987  -5.762  28.130  0.00  0.00    +0.029 C 
ATOM     14  C   UNL     1      13.464  -4.965  31.790  0.00  0.00    +0.078 C 
ATOM     15  C   UNL     1      17.943  -4.829  28.873  0.00  0.00    +0.007 C 
ATOM     16  C   UNL     1      14.422  -3.991  32.477  0.00  0.00    +0.023 C 
ATOM     17  C   UNL     1      17.108  -5.340  31.782  0.00  0.00    +0.011 C 
ATOM     19  C   UNL     1      13.138  -6.963  30.287  0.00  0.00    +0.010 C 
ENDROOT
BRANCH  14   4
ATOM      3  O   UNL     1      10.812  -4.046  32.462  0.00  0.00    -0.253 OA
ATOM      4  N   UNL     1      12.576  -5.517  32.792  0.00  0.00    -0.296 N 
ATOM      6  N   UNL     1      10.672  -5.724  34.058  0.00  0.00    -0.300 N 
ATOM     22  C   UNL     1      11.309  -5.006  33.048  0.00  0.00    +0.300 C 
ATOM     32  H   UNL     1      12.925  -6.262  33.389  0.00  0.00    +0.151 HD
ATOM     35  H   UNL     1      11.157  -6.513  34.477  0.00  0.00    +0.150 HD
BRANCH   6  24
ATOM     24  C   UNL     1       9.343  -5.408  34.523  0.00  0.00    +0.102 C 
ATOM     26  C   UNL     1       8.298  -6.270  33.847  0.00  0.00    +0.024 C 
ENDBRANCH   6  24
ENDBRANCH  14   4
BRANCH  10   1
ATOM      1  O   UNL     1      15.018  -7.109  28.227  0.00  0.00    -0.391 OA
ATOM     33  H   UNL     1      14.427  -7.636  28.792  0.00  0.00    +0.210 HD
ENDBRANCH  10   1
BRANCH  13  18
ATOM     18  C   UNL     1      17.794  -6.781  27.317  0.00  0.00    +0.077 C 
ATOM     20  C   UNL     1      19.286  -6.573  27.546  0.00  0.00    +0.017 C 
BRANCH  18  21
ATOM      2  O   UNL     1      16.525  -7.307  25.322  0.00  0.00    -0.276 OA
ATOM      5  N   UNL     1      18.252  -5.769  25.163  0.00  0.00    -0.311 N 
ATOM     21  C   UNL     1      17.437  -6.665  25.837  0.00  0.00    +0.216 C 
ATOM     34  H   UNL     1      18.951  -5.236  25.671  0.00  0.00    +0.149 HD
BRANCH   5  23
ATOM     23  C   UNL     1      18.109  -5.491  23.753  0.00  0.00    +0.139 C 
BRANCH  23  25
ATOM     25  C   UNL     1      17.598  -4.102  23.502  0.00  0.00    -0.030 A 
ATOM     27  C   UNL     1      18.206  -3.300  22.536  0.00  0.00    +0.005 A 
ATOM     28  C   UNL     1      16.517  -3.613  24.234  0.00  0.00    +0.005 A 
ATOM     29  C   UNL     1      17.732  -2.009  22.303  0.00  0.00    +0.000 A 
ATOM     30  C   UNL     1      16.042  -2.323  24.001  0.00  0.00    +0.000 A 
ATOM     31  C   UNL     1      16.650  -1.521  23.035  0.00  0.00    +0.000 A 
ENDBRANCH  23  25
ENDBRANCH   5  23
ENDBRANCH  18  21
ENDBRANCH  13  18
TORSDOF 7
ENDMDL
MODEL 10
REMARK VINA RESULT:      -6.2     28.600     30.902
REMARK  Name = 28963135
REMARK  11 active torsions:
REMARK  status: ('A' for Active; 'I' for Inactive)
REMARK    1  A    between atoms: O_1  and  C_10
REMARK    2  A    between atoms: N_4  and  C_14
REMARK    3  A    between atoms: N_5  and  C_23
REMARK    4  A    between atoms: N_6  and  C_24
REMARK    5  A    between atoms: C_7  and  C_17
REMARK    6  A    between atoms: C_9  and  C_19
REMARK    7  A    between atoms: C_13  and  C_18
REMARK    8  A    between atoms: C_18  and  C_20
REMARK    9  A    between atoms: C_18  and  C_21
REMARK   10  A    between atoms: C_23  and  C_25
REMARK   11  A    between atoms: C_24  and  C_26
REMARK                            x       y       z     vdW  Elec       q    Type
REMARK                         _______ _______ _______ _____ _____    ______ ____
ROOT
ATOM      7  C   UNL     1      -4.621 -13.081  14.407  0.00  0.00    -0.027 C 
ATOM      8  C   UNL     1      -5.351 -11.698  14.351  0.00  0.00    +0.028 C 
ATOM      9  C   UNL     1      -4.971 -10.917  13.042  0.00  0.00    +0.012 C 
ATOM     10  C   UNL     1      -5.165 -10.908  15.678  0.00  0.00    +0.122 C 
ATOM     11  C   UNL     1      -5.105 -13.870  15.646  0.00  0.00    +0.007 C 
ATOM     12  C   UNL     1      -4.999 -13.902  13.151  0.00  0.00    +0.009 C 
ATOM     13  C   UNL     1      -5.553 -11.740  16.924  0.00  0.00    +0.029 C 
ATOM     14  C   UNL     1      -5.285 -11.781  11.788  0.00  0.00    +0.078 C 
ATOM     15  C   UNL     1      -4.888 -13.117  16.951  0.00  0.00    +0.007 C 
ATOM     16  C   UNL     1      -4.677 -13.183  11.848  0.00  0.00    +0.023 C 
ATOM     17  C   UNL     1      -3.081 -12.937  14.477  0.00  0.00    +0.011 C 
ATOM     19  C   UNL     1      -5.677  -9.557  12.908  0.00  0.00    +0.010 C 
ENDROOT
BRANCH  14   4
ATOM      3  O   UNL     1      -6.799 -11.419   9.359  0.00  0.00    -0.253 OA
ATOM      4  N   UNL     1      -4.838 -11.140  10.569  0.00  0.00    -0.296 N 
ATOM      6  N   UNL     1      -4.965 -10.356   8.415  0.00  0.00    -0.300 N 
ATOM     22  C   UNL     1      -5.642 -11.010   9.442  0.00  0.00    +0.300 C 
ATOM     32  H   UNL     1      -3.869 -10.842  10.507  0.00  0.00    +0.151 HD
ATOM     35  H   UNL     1      -4.013 -10.042   8.580  0.00  0.00    +0.150 HD
BRANCH   6  24
ATOM     24  C   UNL     1      -5.566 -10.087   7.130  0.00  0.00    +0.102 C 
ATOM     26  C   UNL     1      -5.170 -11.128   6.104  0.00  0.00    +0.024 C 
ENDBRANCH   6  24
ENDBRANCH  14   4
BRANCH  10   1
ATOM      1  O   UNL     1      -6.015  -9.760  15.673  0.00  0.00    -0.391 OA
ATOM     33  H   UNL     1      -6.696  -9.885  16.356  0.00  0.00    +0.210 HD
ENDBRANCH  10   1
BRANCH  13  18
ATOM     18  C   UNL     1      -5.239 -10.993  18.225  0.00  0.00    +0.077 C 
ATOM     20  C   UNL     1      -4.215 -11.771  19.044  0.00  0.00    +0.017 C 
BRANCH  18  21
ATOM      2  O   UNL     1      -6.527 -10.500  20.216  0.00  0.00    -0.276 OA
ATOM      5  N   UNL     1      -7.660 -10.888  18.230  0.00  0.00    -0.311 N 
ATOM     21  C   UNL     1      -6.524 -10.763  19.016  0.00  0.00    +0.216 C 
ATOM     34  H   UNL     1      -7.572 -11.056  17.233  0.00  0.00    +0.149 HD
BRANCH   5  23
ATOM     23  C   UNL     1      -8.995 -10.717  18.755  0.00  0.00    +0.139 C 
BRANCH  23  25
ATOM     25  C   UNL     1      -9.763  -9.666  18.006  0.00  0.00    -0.030 A 
ATOM     27  C   UNL     1      -9.081  -8.684  17.287  0.00  0.00    +0.005 A 
ATOM     28  C   UNL     1     -11.157  -9.672  18.029  0.00  0.00    +0.005 A 
ATOM     29  C   UNL     1      -9.794  -7.709  16.592  0.00  0.00    +0.000 A 
ATOM     30  C   UNL     1     -11.871  -8.696  17.333  0.00  0.00    +0.000 A 
ATOM     31  C   UNL     1     -11.188  -7.715  16.614  0.00  0.00    +0.000 A 
ENDBRANCH  23  25
ENDBRANCH   5  23
ENDBRANCH  18  21
ENDBRANCH  13  18
TORSDOF 7
ENDMDL
