REMARK  Name = 26743024
REMARK  11 active torsions:
REMARK  status: ('A' for Active; 'I' for Inactive)
REMARK    1  A    between atoms: O_3  and  C_20
REMARK    2  A    between atoms: O_3  and  C_27
REMARK    3  A    between atoms: O_4  and  C_22
REMARK    4  A    between atoms: O_4  and  C_28
REMARK    5  A    between atoms: N_6  and  C_19
REMARK    6  A    between atoms: C_8  and  C_14
REMARK    7  A    between atoms: C_9  and  C_13
REMARK    8  A    between atoms: C_13  and  C_15
REMARK    9  A    between atoms: C_14  and  C_16
REMARK   10  A    between atoms: C_18  and  C_20
REMARK   11  A    between atoms: C_19  and  C_21
REMARK                            x       y       z     vdW  Elec       q    Type
REMARK                         _______ _______ _______ _____ _____    ______ ____
ROOT
ATOM      5  N   UNL     1      -4.635  -1.112   0.279  0.00  0.00    -0.316 NA
ATOM      8  C   UNL     1      -3.207   1.382  -0.280  0.00  0.00    +0.004 C 
ATOM      9  C   UNL     1      -2.485   0.013  -0.297  0.00  0.00    +0.012 C 
ATOM     10  C   UNL     1      -4.455   1.336   0.614  0.00  0.00    +0.019 C 
ATOM     11  C   UNL     1      -3.498  -1.094  -0.643  0.00  0.00    +0.085 C 
ATOM     12  C   UNL     1      -5.359   0.158   0.250  0.00  0.00    +0.081 C 
ATOM     29  H   UNL     1      -4.314  -1.301   1.227  0.00  0.00    +0.122 HD
ENDROOT
BRANCH   9  13
ATOM     13  C   UNL     1      -1.746  -0.315   1.007  0.00  0.00    +0.064 C 
BRANCH  13  15
ATOM      2  O   UNL     1       1.262  -2.177   0.340  0.00  0.00    -0.357 OA
ATOM      7  N   UNL     1       0.554  -0.988   0.462  0.00  0.00    -0.083 NA
ATOM     15  C   UNL     1      -0.688  -1.357   0.788  0.00  0.00    +0.084 A 
ATOM     17  C   UNL     1      -0.821  -2.753   0.885  0.00  0.00    +0.073 A 
ATOM     18  C   UNL     1       0.433  -3.221   0.594  0.00  0.00    +0.163 A 
BRANCH  18  20
ATOM     20  C   UNL     1       1.023  -4.562   0.508  0.00  0.00    +0.236 C 
BRANCH  20   3
ATOM      3  O   UNL     1       1.214  -4.934  -0.860  0.00  0.00    -0.375 OA
ATOM     27  C   UNL     1       1.784  -6.228  -0.965  0.00  0.00    +0.194 C 
ENDBRANCH  20   3
ENDBRANCH  18  20
ENDBRANCH  13  15
ENDBRANCH   9  13
BRANCH   8  14
ATOM     14  C   UNL     1      -2.297   2.543   0.117  0.00  0.00    +0.099 C 
BRANCH  14  16
ATOM      1  O   UNL     1      -1.101   2.323  -1.974  0.00  0.00    -0.276 OA
ATOM      6  N   UNL     1      -0.011   3.215  -0.126  0.00  0.00    -0.311 N 
ATOM     16  C   UNL     1      -1.096   2.668  -0.796  0.00  0.00    +0.214 C 
ATOM     30  H   UNL     1      -0.102   3.462   0.855  0.00  0.00    +0.149 HD
BRANCH   6  19
ATOM     19  C   UNL     1       1.269   3.447  -0.753  0.00  0.00    +0.143 C 
BRANCH  19  21
ATOM     21  C   UNL     1       2.163   2.244  -0.667  0.00  0.00    +0.011 A 
ATOM     22  C   UNL     1       2.796   1.910   0.530  0.00  0.00    +0.125 A 
ATOM     23  C   UNL     1       2.357   1.456  -1.802  0.00  0.00    +0.009 A 
ATOM     24  C   UNL     1       3.623   0.789   0.593  0.00  0.00    +0.046 A 
ATOM     25  C   UNL     1       3.184   0.334  -1.739  0.00  0.00    +0.001 A 
ATOM     26  C   UNL     1       3.818   0.001  -0.542  0.00  0.00    +0.004 A 
BRANCH  22   4
ATOM      4  O   UNL     1       2.617   2.668   1.648  0.00  0.00    -0.495 OA
ATOM     28  C   UNL     1       3.302   2.254   2.828  0.00  0.00    +0.277 C 
ENDBRANCH  22   4
ENDBRANCH  19  21
ENDBRANCH   6  19
ENDBRANCH  14  16
ENDBRANCH   8  14
TORSDOF 9
