REMARK  Name = 71693199
REMARK  15 active torsions:
REMARK  status: ('A' for Active; 'I' for Inactive)
REMARK    1  A    between atoms: O_2  and  C_28
REMARK    2  A    between atoms: O_4  and  C_34
REMARK    3  A    between atoms: O_4  and  C_36
REMARK    4  A    between atoms: N_5  and  C_20
REMARK    5  A    between atoms: C_8  and  C_17
REMARK    6  A    between atoms: C_8  and  C_19
REMARK    7  A    between atoms: C_9  and  C_18
REMARK    8  A    between atoms: C_10  and  C_20
REMARK    9  A    between atoms: C_14  and  C_23
REMARK   10  A    between atoms: C_17  and  C_24
REMARK   11  A    between atoms: C_18  and  C_25
REMARK   12  A    between atoms: C_18  and  C_26
REMARK   13  A    between atoms: C_19  and  C_28
REMARK   14  A    between atoms: C_21  and  C_27
REMARK   15  A    between atoms: C_23  and  C_29
REMARK                            x       y       z     vdW  Elec       q    Type
REMARK                         _______ _______ _______ _____ _____    ______ ____
ROOT
ATOM      9  C   UNL     1      -0.449   2.339   0.920  0.00  0.00    +0.000 C 
ATOM     10  C   UNL     1      -1.422   3.378   0.308  0.00  0.00    +0.032 C 
ATOM     13  C   UNL     1       0.975   2.558   0.387  0.00  0.00    +0.012 C 
ATOM     14  C   UNL     1       1.046   2.446  -1.147  0.00  0.00    +0.022 C 
ATOM     21  C   UNL     1      -0.058   3.237  -1.821  0.00  0.00    -0.073 C 
ATOM     22  C   UNL     1      -1.146   3.656  -1.152  0.00  0.00    -0.022 C 
ATOM     27  C   UNL     1       0.140   3.574  -3.272  0.00  0.00    +0.039 C 
ENDROOT
BRANCH   9  18
ATOM     18  C   UNL     1      -0.445   2.398   2.451  0.00  0.00    -0.013 C 
ATOM     25  C   UNL     1       0.458   3.528   2.937  0.00  0.00    +0.007 C 
ATOM     26  C   UNL     1       0.001   1.061   3.034  0.00  0.00    +0.007 C 
ENDBRANCH   9  18
BRANCH  10  20
ATOM     20  C   UNL     1      -2.880   2.938   0.477  0.00  0.00    +0.112 C 
BRANCH  20   5
ATOM      1  O   UNL     1      -3.775   0.378   1.488  0.00  0.00    -0.276 OA
ATOM      5  N   UNL     1      -3.144   1.754  -0.279  0.00  0.00    -0.315 N 
ATOM     24  C   UNL     1      -3.575   0.554   0.289  0.00  0.00    +0.214 C 
ATOM     37  H   UNL     1      -3.066   1.806  -1.291  0.00  0.00    +0.149 HD
BRANCH  24  17
ATOM     17  C   UNL     1      -3.777  -0.531  -0.754  0.00  0.00    +0.103 C 
BRANCH  17   8
ATOM      8  C   UNL     1      -4.217  -1.866  -0.138  0.00  0.00    -0.011 C 
ATOM     11  C   UNL     1      -4.505  -2.909  -1.243  0.00  0.00    +0.008 C 
ATOM     12  C   UNL     1      -5.557  -1.695   0.617  0.00  0.00    +0.008 C 
ATOM     15  C   UNL     1      -6.022  -2.970  -1.347  0.00  0.00    +0.001 C 
ATOM     16  C   UNL     1      -6.469  -2.798   0.092  0.00  0.00    +0.001 C 
BRANCH   8  19
ATOM     19  C   UNL     1      -3.117  -2.371   0.803  0.00  0.00    +0.127 C 
BRANCH  19  28
ATOM      3  O   UNL     1      -1.594  -3.274  -0.873  0.00  0.00    -0.251 OA
ATOM     28  C   UNL     1      -1.814  -2.540   0.079  0.00  0.00    +0.305 C 
BRANCH  28   2
ATOM      2  O   UNL     1      -0.876  -1.737   0.645  0.00  0.00    -0.481 OA
ATOM     39  H   UNL     1      -0.007  -1.817   0.198  0.00  0.00    +0.295 HD
ENDBRANCH  28   2
ENDBRANCH  19  28
ENDBRANCH   8  19
ENDBRANCH  17   8
ENDBRANCH  24  17
ENDBRANCH  20   5
ENDBRANCH  10  20
BRANCH  14  23
ATOM     23  C   UNL     1       1.024   0.981  -1.597  0.00  0.00    +0.082 C 
BRANCH  23  29
ATOM      6  N   UNL     1       3.425   0.307  -1.401  0.00  0.00    -0.342 N 
ATOM      7  N   UNL     1       2.029  -0.651   0.037  0.00  0.00    -0.232 NA
ATOM     29  C   UNL     1       2.136   0.196  -0.962  0.00  0.00    +0.109 A 
ATOM     30  C   UNL     1       4.202  -0.523  -0.635  0.00  0.00    +0.070 A 
ATOM     31  C   UNL     1       3.308  -1.110   0.255  0.00  0.00    +0.089 A 
ATOM     32  C   UNL     1       5.569  -0.802  -0.644  0.00  0.00    +0.073 A 
ATOM     33  C   UNL     1       3.787  -2.033   1.200  0.00  0.00    +0.033 A 
ATOM     34  C   UNL     1       6.030  -1.723   0.303  0.00  0.00    +0.122 A 
ATOM     35  C   UNL     1       5.156  -2.329   1.209  0.00  0.00    +0.048 A 
ATOM     38  H   UNL     1       3.751   0.897  -2.156  0.00  0.00    +0.167 HD
BRANCH  34   4
ATOM      4  O   UNL     1       7.357  -2.034   0.341  0.00  0.00    -0.495 OA
ATOM     36  C   UNL     1       8.200  -1.385  -0.608  0.00  0.00    +0.277 C 
ENDBRANCH  34   4
ENDBRANCH  23  29
ENDBRANCH  14  23
TORSDOF 11
