MODEL 1
REMARK VINA RESULT:      -8.1      0.000      0.000
REMARK  Name = 26745446
REMARK  10 active torsions:
REMARK  status: ('A' for Active; 'I' for Inactive)
REMARK    1  A    between atoms: S_1  and  N_6
REMARK    2  A    between atoms: S_1  and  C_15
REMARK    3  A    between atoms: O_4  and  C_16
REMARK    4  A    between atoms: O_4  and  C_31
REMARK    5  A    between atoms: N_7  and  C_17
REMARK    6  A    between atoms: N_9  and  C_24
REMARK    7  A    between atoms: N_9  and  C_34
REMARK    8  A    between atoms: N_9  and  C_35
REMARK    9  A    between atoms: C_10  and  C_16
REMARK   10  A    between atoms: C_17  and  C_22
REMARK                            x       y       z     vdW  Elec       q    Type
REMARK                         _______ _______ _______ _____ _____    ______ ____
ROOT
ATOM      6  N   UNL     1      13.540   8.306  20.169  0.00  0.00    -0.157 NA
ATOM      7  N   UNL     1      11.802  10.407  22.729  0.00  0.00    -0.328 N 
ATOM      8  N   UNL     1      10.533   8.592  23.027  0.00  0.00    -0.240 NA
ATOM     10  C   UNL     1      12.349   7.421  19.904  0.00  0.00    +0.194 C 
ATOM     11  C   UNL     1      13.247   9.661  20.766  0.00  0.00    +0.165 C 
ATOM     12  C   UNL     1      11.527   7.165  21.186  0.00  0.00    +0.089 C 
ATOM     13  C   UNL     1      12.204   9.499  21.795  0.00  0.00    +0.057 A 
ATOM     14  C   UNL     1      11.408   8.398  21.995  0.00  0.00    +0.066 A 
ATOM     18  C   UNL     1      10.795   9.814  23.448  0.00  0.00    +0.200 A 
ENDROOT
BRANCH   6   1
ATOM      1  S   UNL     1      14.792   8.276  18.998  0.00  0.00    +0.062 S 
ATOM      2  O   UNL     1      14.680   9.449  18.160  0.00  0.00    -0.153 OA
ATOM      3  O   UNL     1      14.863   6.950  18.422  0.00  0.00    -0.153 OA
BRANCH   1  15
ATOM     15  C   UNL     1      16.196   8.490  20.044  0.00  0.00    +0.113 A 
ATOM     19  C   UNL     1      17.212   7.527  20.162  0.00  0.00    +0.010 A 
ATOM     20  C   UNL     1      16.259   9.682  20.767  0.00  0.00    +0.029 A 
ATOM     21  C   UNL     1      18.306   7.776  21.024  0.00  0.00    +0.005 A 
ATOM     23  C   UNL     1      17.165   6.321  19.444  0.00  0.00    +0.010 A 
ATOM     24  C   UNL     1      19.322   6.814  21.142  0.00  0.00    +0.037 A 
ATOM     25  C   UNL     1      17.335   9.927  21.615  0.00  0.00    +0.003 A 
ATOM     26  C   UNL     1      18.353   8.982  21.743  0.00  0.00    +0.010 A 
ATOM     27  C   UNL     1      18.183   5.376  19.572  0.00  0.00    +0.002 A 
ATOM     28  C   UNL     1      19.259   5.621  20.420  0.00  0.00    +0.024 A 
BRANCH  24   9
ATOM      9  N   UNL     1      20.439   7.014  21.989  0.00  0.00    -0.336 N 
ATOM     34  C   UNL     1      20.320   6.791  23.413  0.00  0.00    +0.129 C 
ATOM     35  C   UNL     1      21.708   7.434  21.435  0.00  0.00    +0.129 C 
ENDBRANCH  24   9
ENDBRANCH   1  15
ENDBRANCH   6   1
BRANCH  10  16
ATOM      5  O   UNL     1      10.556   8.759  19.023  0.00  0.00    -0.249 OA
ATOM     16  C   UNL     1      11.520   8.035  18.820  0.00  0.00    +0.326 C 
BRANCH  16   4
ATOM      4  O   UNL     1      12.011   7.661  17.604  0.00  0.00    -0.467 OA
ATOM     31  C   UNL     1      11.742   8.566  16.528  0.00  0.00    +0.280 C 
ENDBRANCH  16   4
ENDBRANCH  10  16
BRANCH   7  17
ATOM     17  C   UNL     1      12.320  11.738  22.932  0.00  0.00    +0.158 C 
BRANCH  17  22
ATOM     22  C   UNL     1      11.254  12.804  22.909  0.00  0.00    -0.028 A 
ATOM     29  C   UNL     1      10.731  13.293  24.107  0.00  0.00    +0.005 A 
ATOM     30  C   UNL     1      10.790  13.303  21.692  0.00  0.00    +0.005 A 
ATOM     32  C   UNL     1       9.744  14.278  24.087  0.00  0.00    +0.000 A 
ATOM     33  C   UNL     1       9.803  14.290  21.672  0.00  0.00    +0.000 A 
ATOM     36  C   UNL     1       9.281  14.777  22.869  0.00  0.00    +0.000 A 
ENDBRANCH  17  22
ENDBRANCH   7  17
TORSDOF 7
ENDMDL
MODEL 2
REMARK VINA RESULT:      -7.5     25.123     28.868
REMARK  Name = 26745446
REMARK  10 active torsions:
REMARK  status: ('A' for Active; 'I' for Inactive)
REMARK    1  A    between atoms: S_1  and  N_6
REMARK    2  A    between atoms: S_1  and  C_15
REMARK    3  A    between atoms: O_4  and  C_16
REMARK    4  A    between atoms: O_4  and  C_31
REMARK    5  A    between atoms: N_7  and  C_17
REMARK    6  A    between atoms: N_9  and  C_24
REMARK    7  A    between atoms: N_9  and  C_34
REMARK    8  A    between atoms: N_9  and  C_35
REMARK    9  A    between atoms: C_10  and  C_16
REMARK   10  A    between atoms: C_17  and  C_22
REMARK                            x       y       z     vdW  Elec       q    Type
REMARK                         _______ _______ _______ _____ _____    ______ ____
ROOT
ATOM      6  N   UNL     1     -11.709   9.018  17.562  0.00  0.00    -0.157 NA
ATOM      7  N   UNL     1     -14.123   8.267  14.805  0.00  0.00    -0.328 N 
ATOM      8  N   UNL     1     -12.303   7.576  13.707  0.00  0.00    -0.240 NA
ATOM     10  C   UNL     1     -10.524   9.194  16.645  0.00  0.00    +0.194 C 
ATOM     11  C   UNL     1     -13.070   9.192  16.935  0.00  0.00    +0.165 C 
ATOM     12  C   UNL     1     -10.579   8.227  15.443  0.00  0.00    +0.089 C 
ATOM     13  C   UNL     1     -13.058   8.545  15.610  0.00  0.00    +0.057 A 
ATOM     14  C   UNL     1     -11.956   8.117  14.912  0.00  0.00    +0.066 A 
ATOM     18  C   UNL     1     -13.618   7.682  13.672  0.00  0.00    +0.200 A 
ENDROOT
BRANCH   6   1
ATOM      1  S   UNL     1     -11.547   9.641  19.150  0.00  0.00    +0.062 S 
ATOM      2  O   UNL     1     -12.335  10.849  19.264  0.00  0.00    -0.153 OA
ATOM      3  O   UNL     1     -10.148   9.624  19.521  0.00  0.00    -0.153 OA
BRANCH   1  15
ATOM     15  C   UNL     1     -12.367   8.372  20.062  0.00  0.00    +0.113 A 
ATOM     19  C   UNL     1     -13.733   8.425  20.381  0.00  0.00    +0.010 A 
ATOM     20  C   UNL     1     -11.584   7.289  20.464  0.00  0.00    +0.029 A 
ATOM     21  C   UNL     1     -14.314   7.366  21.117  0.00  0.00    +0.005 A 
ATOM     23  C   UNL     1     -14.536   9.508  19.987  0.00  0.00    +0.010 A 
ATOM     24  C   UNL     1     -15.681   7.418  21.436  0.00  0.00    +0.037 A 
ATOM     25  C   UNL     1     -12.155   6.247  21.188  0.00  0.00    +0.003 A 
ATOM     26  C   UNL     1     -13.511   6.283  21.513  0.00  0.00    +0.010 A 
ATOM     27  C   UNL     1     -15.892   9.544  20.312  0.00  0.00    +0.002 A 
ATOM     28  C   UNL     1     -16.463   8.502  21.036  0.00  0.00    +0.024 A 
BRANCH  24   9
ATOM      9  N   UNL     1     -16.312   6.384  22.170  0.00  0.00    -0.336 N 
ATOM     34  C   UNL     1     -16.361   6.442  23.614  0.00  0.00    +0.129 C 
ATOM     35  C   UNL     1     -16.919   5.267  21.479  0.00  0.00    +0.129 C 
ENDBRANCH  24   9
ENDBRANCH   1  15
ENDBRANCH   6   1
BRANCH  10  16
ATOM      5  O   UNL     1     -11.187  11.119  15.365  0.00  0.00    -0.249 OA
ATOM     16  C   UNL     1     -10.456  10.625  16.212  0.00  0.00    +0.326 C 
BRANCH  16   4
ATOM      4  O   UNL     1      -9.469  11.263  16.901  0.00  0.00    -0.467 OA
ATOM     31  C   UNL     1      -9.793  12.578  17.365  0.00  0.00    +0.280 C 
ENDBRANCH  16   4
ENDBRANCH  10  16
BRANCH   7  17
ATOM     17  C   UNL     1     -15.515   8.533  15.075  0.00  0.00    +0.158 C 
BRANCH  17  22
ATOM     22  C   UNL     1     -16.201   7.424  15.831  0.00  0.00    -0.028 A 
ATOM     29  C   UNL     1     -16.414   7.544  17.204  0.00  0.00    +0.005 A 
ATOM     30  C   UNL     1     -16.623   6.277  15.158  0.00  0.00    +0.005 A 
ATOM     32  C   UNL     1     -17.048   6.517  17.904  0.00  0.00    +0.000 A 
ATOM     33  C   UNL     1     -17.258   5.251  15.858  0.00  0.00    +0.000 A 
ATOM     36  C   UNL     1     -17.470   5.371  17.231  0.00  0.00    +0.000 A 
ENDBRANCH  17  22
ENDBRANCH   7  17
TORSDOF 7
ENDMDL
MODEL 3
REMARK VINA RESULT:      -7.3     16.138     19.736
REMARK  Name = 26745446
REMARK  10 active torsions:
REMARK  status: ('A' for Active; 'I' for Inactive)
REMARK    1  A    between atoms: S_1  and  N_6
REMARK    2  A    between atoms: S_1  and  C_15
REMARK    3  A    between atoms: O_4  and  C_16
REMARK    4  A    between atoms: O_4  and  C_31
REMARK    5  A    between atoms: N_7  and  C_17
REMARK    6  A    between atoms: N_9  and  C_24
REMARK    7  A    between atoms: N_9  and  C_34
REMARK    8  A    between atoms: N_9  and  C_35
REMARK    9  A    between atoms: C_10  and  C_16
REMARK   10  A    between atoms: C_17  and  C_22
REMARK                            x       y       z     vdW  Elec       q    Type
REMARK                         _______ _______ _______ _____ _____    ______ ____
ROOT
ATOM      6  N   UNL     1      12.216   5.400   1.527  0.00  0.00    -0.157 NA
ATOM      7  N   UNL     1      15.146   7.280   2.895  0.00  0.00    -0.328 N 
ATOM      8  N   UNL     1      15.589   7.705   0.747  0.00  0.00    -0.240 NA
ATOM     10  C   UNL     1      12.857   5.126   0.190  0.00  0.00    +0.194 C 
ATOM     11  C   UNL     1      13.155   5.704   2.669  0.00  0.00    +0.165 C 
ATOM     12  C   UNL     1      13.744   6.302  -0.274  0.00  0.00    +0.089 C 
ATOM     13  C   UNL     1      14.226   6.585   2.168  0.00  0.00    +0.057 A 
ATOM     14  C   UNL     1      14.521   6.858   0.856  0.00  0.00    +0.066 A 
ATOM     18  C   UNL     1      15.944   7.939   1.995  0.00  0.00    +0.200 A 
ENDROOT
BRANCH   6   1
ATOM      1  S   UNL     1      10.853   4.445   1.933  0.00  0.00    +0.062 S 
ATOM      2  O   UNL     1      11.293   3.296   2.694  0.00  0.00    -0.153 OA
ATOM      3  O   UNL     1      10.023   4.288   0.757  0.00  0.00    -0.153 OA
BRANCH   1  15
ATOM     15  C   UNL     1      10.026   5.543   3.040  0.00  0.00    +0.113 A 
ATOM     19  C   UNL     1       9.589   6.822   2.659  0.00  0.00    +0.010 A 
ATOM     20  C   UNL     1       9.818   5.078   4.339  0.00  0.00    +0.029 A 
ATOM     21  C   UNL     1       8.933   7.641   3.608  0.00  0.00    +0.005 A 
ATOM     23  C   UNL     1       9.791   7.307   1.356  0.00  0.00    +0.010 A 
ATOM     24  C   UNL     1       8.497   8.920   3.227  0.00  0.00    +0.037 A 
ATOM     25  C   UNL     1       9.173   5.883   5.272  0.00  0.00    +0.003 A 
ATOM     26  C   UNL     1       8.733   7.156   4.911  0.00  0.00    +0.010 A 
ATOM     27  C   UNL     1       9.350   8.580   0.995  0.00  0.00    +0.002 A 
ATOM     28  C   UNL     1       8.705   9.385   1.928  0.00  0.00    +0.024 A 
BRANCH  24   9
ATOM      9  N   UNL     1       7.834   9.780   4.137  0.00  0.00    -0.336 N 
ATOM     34  C   UNL     1       8.589  10.496   5.141  0.00  0.00    +0.129 C 
ATOM     35  C   UNL     1       6.400   9.953   4.063  0.00  0.00    +0.129 C 
ENDBRANCH  24   9
ENDBRANCH   1  15
ENDBRANCH   6   1
BRANCH  10  16
ATOM      5  O   UNL     1      14.753   3.752   0.737  0.00  0.00    -0.249 OA
ATOM     16  C   UNL     1      13.624   3.844   0.276  0.00  0.00    +0.326 C 
BRANCH  16   4
ATOM      4  O   UNL     1      12.872   2.828  -0.234  0.00  0.00    -0.467 OA
ATOM     31  C   UNL     1      12.419   3.014  -1.579  0.00  0.00    +0.280 C 
ENDBRANCH  16   4
ENDBRANCH  10  16
BRANCH   7  17
ATOM     17  C   UNL     1      15.275   7.320   4.332  0.00  0.00    +0.158 C 
BRANCH  17  22
ATOM     22  C   UNL     1      14.014   7.759   5.033  0.00  0.00    -0.028 A 
ATOM     29  C   UNL     1      13.560   7.062   6.153  0.00  0.00    +0.005 A 
ATOM     30  C   UNL     1      13.302   8.862   4.564  0.00  0.00    +0.005 A 
ATOM     32  C   UNL     1      12.394   7.468   6.802  0.00  0.00    +0.000 A 
ATOM     33  C   UNL     1      12.136   9.269   5.213  0.00  0.00    +0.000 A 
ATOM     36  C   UNL     1      11.682   8.572   6.332  0.00  0.00    +0.000 A 
ENDBRANCH  17  22
ENDBRANCH   7  17
TORSDOF 7
ENDMDL
MODEL 4
REMARK VINA RESULT:      -7.2     17.116     21.813
REMARK  Name = 26745446
REMARK  10 active torsions:
REMARK  status: ('A' for Active; 'I' for Inactive)
REMARK    1  A    between atoms: S_1  and  N_6
REMARK    2  A    between atoms: S_1  and  C_15
REMARK    3  A    between atoms: O_4  and  C_16
REMARK    4  A    between atoms: O_4  and  C_31
REMARK    5  A    between atoms: N_7  and  C_17
REMARK    6  A    between atoms: N_9  and  C_24
REMARK    7  A    between atoms: N_9  and  C_34
REMARK    8  A    between atoms: N_9  and  C_35
REMARK    9  A    between atoms: C_10  and  C_16
REMARK   10  A    between atoms: C_17  and  C_22
REMARK                            x       y       z     vdW  Elec       q    Type
REMARK                         _______ _______ _______ _____ _____    ______ ____
ROOT
ATOM      6  N   UNL     1      11.646   5.665   0.566  0.00  0.00    -0.157 NA
ATOM      7  N   UNL     1      10.953   6.036   4.223  0.00  0.00    -0.328 N 
ATOM      8  N   UNL     1      12.958   7.021   4.272  0.00  0.00    -0.240 NA
ATOM     10  C   UNL     1      13.146   5.690   0.721  0.00  0.00    +0.194 C 
ATOM     11  C   UNL     1      10.855   5.277   1.791  0.00  0.00    +0.165 C 
ATOM     12  C   UNL     1      13.591   6.645   1.849  0.00  0.00    +0.089 C 
ATOM     13  C   UNL     1      11.466   5.927   2.965  0.00  0.00    +0.057 A 
ATOM     14  C   UNL     1      12.696   6.534   3.022  0.00  0.00    +0.066 A 
ATOM     18  C   UNL     1      11.887   6.703   4.974  0.00  0.00    +0.200 A 
ENDROOT
BRANCH   6   1
ATOM      1  S   UNL     1      11.039   5.064  -0.920  0.00  0.00    +0.062 S 
ATOM      2  O   UNL     1      10.342   3.821  -0.675  0.00  0.00    -0.153 OA
ATOM      3  O   UNL     1      12.081   5.151  -1.921  0.00  0.00    -0.153 OA
BRANCH   1  15
ATOM     15  C   UNL     1       9.833   6.300  -1.281  0.00  0.00    +0.113 A 
ATOM     19  C   UNL     1       8.924   6.189  -2.346  0.00  0.00    +0.010 A 
ATOM     20  C   UNL     1       9.817   7.418  -0.446  0.00  0.00    +0.029 A 
ATOM     21  C   UNL     1       7.987   7.225  -2.568  0.00  0.00    +0.005 A 
ATOM     23  C   UNL     1       8.926   5.071  -3.197  0.00  0.00    +0.010 A 
ATOM     24  C   UNL     1       7.078   7.114  -3.632  0.00  0.00    +0.037 A 
ATOM     25  C   UNL     1       8.896   8.438  -0.664  0.00  0.00    +0.003 A 
ATOM     26  C   UNL     1       7.986   8.343  -1.717  0.00  0.00    +0.010 A 
ATOM     27  C   UNL     1       8.016   4.976  -4.249  0.00  0.00    +0.002 A 
ATOM     28  C   UNL     1       7.094   5.996  -4.468  0.00  0.00    +0.024 A 
BRANCH  24   9
ATOM      9  N   UNL     1       6.119   8.122  -3.898  0.00  0.00    -0.336 N 
ATOM     34  C   UNL     1       6.441   9.215  -4.788  0.00  0.00    +0.129 C 
ATOM     35  C   UNL     1       4.809   8.060  -3.287  0.00  0.00    +0.129 C 
ENDBRANCH  24   9
ENDBRANCH   1  15
ENDBRANCH   6   1
BRANCH  10  16
ATOM      5  O   UNL     1      13.318   3.602   1.901  0.00  0.00    -0.249 OA
ATOM     16  C   UNL     1      13.633   4.293   0.943  0.00  0.00    +0.326 C 
BRANCH  16   4
ATOM      4  O   UNL     1      14.465   3.934  -0.076  0.00  0.00    -0.467 OA
ATOM     31  C   UNL     1      15.864   4.048   0.204  0.00  0.00    +0.280 C 
ENDBRANCH  16   4
ENDBRANCH  10  16
BRANCH   7  17
ATOM     17  C   UNL     1       9.680   5.545   4.692  0.00  0.00    +0.158 C 
BRANCH  17  22
ATOM     22  C   UNL     1       9.564   5.526   6.195  0.00  0.00    -0.028 A 
ATOM     29  C   UNL     1       9.925   4.383   6.909  0.00  0.00    +0.005 A 
ATOM     30  C   UNL     1       9.096   6.651   6.874  0.00  0.00    +0.005 A 
ATOM     32  C   UNL     1       9.818   4.364   8.299  0.00  0.00    +0.000 A 
ATOM     33  C   UNL     1       8.989   6.633   8.265  0.00  0.00    +0.000 A 
ATOM     36  C   UNL     1       9.350   5.490   8.977  0.00  0.00    +0.000 A 
ENDBRANCH  17  22
ENDBRANCH   7  17
TORSDOF 7
ENDMDL
MODEL 5
REMARK VINA RESULT:      -7.1     13.493     17.266
REMARK  Name = 26745446
REMARK  10 active torsions:
REMARK  status: ('A' for Active; 'I' for Inactive)
REMARK    1  A    between atoms: S_1  and  N_6
REMARK    2  A    between atoms: S_1  and  C_15
REMARK    3  A    between atoms: O_4  and  C_16
REMARK    4  A    between atoms: O_4  and  C_31
REMARK    5  A    between atoms: N_7  and  C_17
REMARK    6  A    between atoms: N_9  and  C_24
REMARK    7  A    between atoms: N_9  and  C_34
REMARK    8  A    between atoms: N_9  and  C_35
REMARK    9  A    between atoms: C_10  and  C_16
REMARK   10  A    between atoms: C_17  and  C_22
REMARK                            x       y       z     vdW  Elec       q    Type
REMARK                         _______ _______ _______ _____ _____    ______ ____
ROOT
ATOM      6  N   UNL     1      10.353   7.229   5.598  0.00  0.00    -0.157 NA
ATOM      7  N   UNL     1      11.346  10.623   6.815  0.00  0.00    -0.328 N 
ATOM      8  N   UNL     1      13.241   9.604   7.418  0.00  0.00    -0.240 NA
ATOM     10  C   UNL     1      11.254   6.486   6.551  0.00  0.00    +0.194 C 
ATOM     11  C   UNL     1       9.977   8.636   5.992  0.00  0.00    +0.165 C 
ATOM     12  C   UNL     1      12.579   7.240   6.795  0.00  0.00    +0.089 C 
ATOM     13  C   UNL     1      11.172   9.298   6.547  0.00  0.00    +0.057 A 
ATOM     14  C   UNL     1      12.345   8.695   6.930  0.00  0.00    +0.066 A 
ATOM     18  C   UNL     1      12.608  10.758   7.337  0.00  0.00    +0.200 A 
ENDROOT
BRANCH   6   1
ATOM      1  S   UNL     1       9.106   6.318   4.855  0.00  0.00    +0.062 S 
ATOM      2  O   UNL     1       7.837   6.964   5.108  0.00  0.00    -0.153 OA
ATOM      3  O   UNL     1       9.304   4.916   5.159  0.00  0.00    -0.153 OA
BRANCH   1  15
ATOM     15  C   UNL     1       9.512   6.568   3.156  0.00  0.00    +0.113 A 
ATOM     19  C   UNL     1      10.336   5.691   2.433  0.00  0.00    +0.010 A 
ATOM     20  C   UNL     1       8.967   7.699   2.546  0.00  0.00    +0.029 A 
ATOM     21  C   UNL     1      10.613   5.964   1.073  0.00  0.00    +0.005 A 
ATOM     23  C   UNL     1      10.894   4.549   3.031  0.00  0.00    +0.010 A 
ATOM     24  C   UNL     1      11.437   5.087   0.349  0.00  0.00    +0.037 A 
ATOM     25  C   UNL     1       9.239   7.968   1.208  0.00  0.00    +0.003 A 
ATOM     26  C   UNL     1      10.056   7.107   0.475  0.00  0.00    +0.010 A 
ATOM     27  C   UNL     1      11.711   3.688   2.297  0.00  0.00    +0.002 A 
ATOM     28  C   UNL     1      11.983   3.957   0.960  0.00  0.00    +0.024 A 
BRANCH  24   9
ATOM      9  N   UNL     1      11.746   5.313  -1.015  0.00  0.00    -0.336 N 
ATOM     34  C   UNL     1      10.901   4.765  -2.052  0.00  0.00    +0.129 C 
ATOM     35  C   UNL     1      12.903   6.101  -1.379  0.00  0.00    +0.129 C 
ENDBRANCH  24   9
ENDBRANCH   1  15
ENDBRANCH   6   1
BRANCH  10  16
ATOM      5  O   UNL     1       9.742   7.036   8.338  0.00  0.00    -0.249 OA
ATOM     16  C   UNL     1      10.509   6.234   7.824  0.00  0.00    +0.326 C 
BRANCH  16   4
ATOM      4  O   UNL     1      10.823   4.995   8.298  0.00  0.00    -0.467 OA
ATOM     31  C   UNL     1       9.712   4.204   8.733  0.00  0.00    +0.280 C 
ENDBRANCH  16   4
ENDBRANCH  10  16
BRANCH   7  17
ATOM     17  C   UNL     1      10.396  11.689   6.604  0.00  0.00    +0.158 C 
BRANCH  17  22
ATOM     22  C   UNL     1       9.576  12.010   7.827  0.00  0.00    -0.028 A 
ATOM     29  C   UNL     1       9.581  11.141   8.919  0.00  0.00    +0.005 A 
ATOM     30  C   UNL     1       8.812  13.176   7.869  0.00  0.00    +0.005 A 
ATOM     32  C   UNL     1       8.822  11.438  10.050  0.00  0.00    +0.000 A 
ATOM     33  C   UNL     1       8.053  13.474   9.002  0.00  0.00    +0.000 A 
ATOM     36  C   UNL     1       8.058  12.604  10.092  0.00  0.00    +0.000 A 
ENDBRANCH  17  22
ENDBRANCH   7  17
TORSDOF 7
ENDMDL
MODEL 6
REMARK VINA RESULT:      -7.1     27.647     31.507
REMARK  Name = 26745446
REMARK  10 active torsions:
REMARK  status: ('A' for Active; 'I' for Inactive)
REMARK    1  A    between atoms: S_1  and  N_6
REMARK    2  A    between atoms: S_1  and  C_15
REMARK    3  A    between atoms: O_4  and  C_16
REMARK    4  A    between atoms: O_4  and  C_31
REMARK    5  A    between atoms: N_7  and  C_17
REMARK    6  A    between atoms: N_9  and  C_24
REMARK    7  A    between atoms: N_9  and  C_34
REMARK    8  A    between atoms: N_9  and  C_35
REMARK    9  A    between atoms: C_10  and  C_16
REMARK   10  A    between atoms: C_17  and  C_22
REMARK                            x       y       z     vdW  Elec       q    Type
REMARK                         _______ _______ _______ _____ _____    ______ ____
ROOT
ATOM      6  N   UNL     1      -9.129 -10.544  17.379  0.00  0.00    -0.157 NA
ATOM      7  N   UNL     1      -5.553 -11.641  17.366  0.00  0.00    -0.328 N 
ATOM      8  N   UNL     1      -6.422 -13.700  17.368  0.00  0.00    -0.240 NA
ATOM     10  C   UNL     1      -9.643 -11.803  18.030  0.00  0.00    +0.194 C 
ATOM     11  C   UNL     1      -7.667 -10.233  17.586  0.00  0.00    +0.165 C 
ATOM     12  C   UNL     1      -8.861 -13.050  17.566  0.00  0.00    +0.089 C 
ATOM     13  C   UNL     1      -6.904 -11.489  17.472  0.00  0.00    +0.057 A 
ATOM     14  C   UNL     1      -7.412 -12.765  17.476  0.00  0.00    +0.066 A 
ATOM     18  C   UNL     1      -5.312 -12.990  17.305  0.00  0.00    +0.200 A 
ENDROOT
BRANCH   6   1
ATOM      1  S   UNL     1     -10.177  -9.188  17.398  0.00  0.00    +0.062 S 
ATOM      2  O   UNL     1      -9.409  -8.004  17.715  0.00  0.00    -0.153 OA
ATOM      3  O   UNL     1     -11.369  -9.527  18.147  0.00  0.00    -0.153 OA
BRANCH   1  15
ATOM     15  C   UNL     1     -10.611  -9.110  15.690  0.00  0.00    +0.113 A 
ATOM     19  C   UNL     1     -11.492  -8.147  15.171  0.00  0.00    +0.010 A 
ATOM     20  C   UNL     1     -10.031 -10.067  14.855  0.00  0.00    +0.029 A 
ATOM     21  C   UNL     1     -11.788  -8.154  13.788  0.00  0.00    +0.005 A 
ATOM     23  C   UNL     1     -12.086  -7.177  15.996  0.00  0.00    +0.010 A 
ATOM     24  C   UNL     1     -12.669  -7.190  13.268  0.00  0.00    +0.037 A 
ATOM     25  C   UNL     1     -10.323 -10.074  13.495  0.00  0.00    +0.003 A 
ATOM     26  C   UNL     1     -11.195  -9.124  12.963  0.00  0.00    +0.010 A 
ATOM     27  C   UNL     1     -12.958  -6.228  15.463  0.00  0.00    +0.002 A 
ATOM     28  C   UNL     1     -13.249  -6.234  14.103  0.00  0.00    +0.024 A 
BRANCH  24   9
ATOM      9  N   UNL     1     -12.999  -7.152  11.891  0.00  0.00    -0.336 N 
ATOM     34  C   UNL     1     -14.072  -7.974  11.378  0.00  0.00    +0.129 C 
ATOM     35  C   UNL     1     -12.270  -6.285  10.992  0.00  0.00    +0.129 C 
ENDBRANCH  24   9
ENDBRANCH   1  15
ENDBRANCH   6   1
BRANCH  10  16
ATOM      5  O   UNL     1      -8.960 -10.758  20.085  0.00  0.00    -0.249 OA
ATOM     16  C   UNL     1      -9.598 -11.632  19.516  0.00  0.00    +0.326 C 
BRANCH  16   4
ATOM      4  O   UNL     1     -10.367 -12.589  20.108  0.00  0.00    -0.467 OA
ATOM     31  C   UNL     1     -11.694 -12.183  20.457  0.00  0.00    +0.280 C 
ENDBRANCH  16   4
ENDBRANCH  10  16
BRANCH   7  17
ATOM     17  C   UNL     1      -4.557 -10.598  17.331  0.00  0.00    +0.158 C 
BRANCH  17  22
ATOM     22  C   UNL     1      -3.726 -10.608  16.073  0.00  0.00    -0.028 A 
ATOM     29  C   UNL     1      -4.349 -10.612  14.825  0.00  0.00    +0.005 A 
ATOM     30  C   UNL     1      -2.334 -10.613  16.156  0.00  0.00    +0.005 A 
ATOM     32  C   UNL     1      -3.581 -10.622  13.661  0.00  0.00    +0.000 A 
ATOM     33  C   UNL     1      -1.564 -10.621  14.992  0.00  0.00    +0.000 A 
ATOM     36  C   UNL     1      -2.188 -10.626  13.745  0.00  0.00    +0.000 A 
ENDBRANCH  17  22
ENDBRANCH   7  17
TORSDOF 7
ENDMDL
MODEL 7
REMARK VINA RESULT:      -7.0     14.567     18.899
REMARK  Name = 26745446
REMARK  10 active torsions:
REMARK  status: ('A' for Active; 'I' for Inactive)
REMARK    1  A    between atoms: S_1  and  N_6
REMARK    2  A    between atoms: S_1  and  C_15
REMARK    3  A    between atoms: O_4  and  C_16
REMARK    4  A    between atoms: O_4  and  C_31
REMARK    5  A    between atoms: N_7  and  C_17
REMARK    6  A    between atoms: N_9  and  C_24
REMARK    7  A    between atoms: N_9  and  C_34
REMARK    8  A    between atoms: N_9  and  C_35
REMARK    9  A    between atoms: C_10  and  C_16
REMARK   10  A    between atoms: C_17  and  C_22
REMARK                            x       y       z     vdW  Elec       q    Type
REMARK                         _______ _______ _______ _____ _____    ______ ____
ROOT
ATOM      6  N   UNL     1      10.631   7.133   5.345  0.00  0.00    -0.157 NA
ATOM      7  N   UNL     1      14.154   8.388   5.264  0.00  0.00    -0.328 N 
ATOM      8  N   UNL     1      14.458   6.972   6.966  0.00  0.00    -0.240 NA
ATOM     10  C   UNL     1      10.671   6.745   6.802  0.00  0.00    +0.194 C 
ATOM     11  C   UNL     1      11.641   8.163   4.900  0.00  0.00    +0.165 C 
ATOM     12  C   UNL     1      12.057   6.205   7.215  0.00  0.00    +0.089 C 
ATOM     13  C   UNL     1      12.929   7.862   5.550  0.00  0.00    +0.057 A 
ATOM     14  C   UNL     1      13.142   7.001   6.599  0.00  0.00    +0.066 A 
ATOM     18  C   UNL     1      15.042   7.820   6.142  0.00  0.00    +0.200 A 
ENDROOT
BRANCH   6   1
ATOM      1  S   UNL     1       9.080   7.271   4.631  0.00  0.00    +0.062 S 
ATOM      2  O   UNL     1       8.593   8.620   4.819  0.00  0.00    -0.153 OA
ATOM      3  O   UNL     1       8.281   6.128   5.020  0.00  0.00    -0.153 OA
BRANCH   1  15
ATOM     15  C   UNL     1       9.506   7.082   2.929  0.00  0.00    +0.113 A 
ATOM     19  C   UNL     1      10.201   5.965   2.438  0.00  0.00    +0.010 A 
ATOM     20  C   UNL     1       9.116   8.111   2.071  0.00  0.00    +0.029 A 
ATOM     21  C   UNL     1      10.504   5.890   1.058  0.00  0.00    +0.005 A 
ATOM     23  C   UNL     1      10.602   4.920   3.286  0.00  0.00    +0.010 A 
ATOM     24  C   UNL     1      11.199   4.773   0.566  0.00  0.00    +0.037 A 
ATOM     25  C   UNL     1       9.414   8.038   0.714  0.00  0.00    +0.003 A 
ATOM     26  C   UNL     1      10.103   6.936   0.209  0.00  0.00    +0.010 A 
ATOM     27  C   UNL     1      11.291   3.818   2.781  0.00  0.00    +0.002 A 
ATOM     28  C   UNL     1      11.590   3.744   1.424  0.00  0.00    +0.024 A 
BRANCH  24   9
ATOM      9  N   UNL     1      11.527   4.648  -0.806  0.00  0.00    -0.336 N 
ATOM     34  C   UNL     1      12.889   4.848  -1.249  0.00  0.00    +0.129 C 
ATOM     35  C   UNL     1      10.504   4.312  -1.772  0.00  0.00    +0.129 C 
ENDBRANCH  24   9
ENDBRANCH   1  15
ENDBRANCH   6   1
BRANCH  10  16
ATOM      5  O   UNL     1      10.893   8.965   7.698  0.00  0.00    -0.249 OA
ATOM     16  C   UNL     1      10.258   7.923   7.627  0.00  0.00    +0.326 C 
BRANCH  16   4
ATOM      4  O   UNL     1       9.088   7.642   8.268  0.00  0.00    -0.467 OA
ATOM     31  C   UNL     1       8.844   6.255   8.522  0.00  0.00    +0.280 C 
ENDBRANCH  16   4
ENDBRANCH  10  16
BRANCH   7  17
ATOM     17  C   UNL     1      14.471   9.358   4.245  0.00  0.00    +0.158 C 
BRANCH  17  22
ATOM     22  C   UNL     1      14.132   8.894   2.851  0.00  0.00    -0.028 A 
ATOM     29  C   UNL     1      13.371   9.708   2.011  0.00  0.00    +0.005 A 
ATOM     30  C   UNL     1      14.579   7.653   2.400  0.00  0.00    +0.005 A 
ATOM     32  C   UNL     1      13.056   9.279   0.722  0.00  0.00    +0.000 A 
ATOM     33  C   UNL     1      14.265   7.223   1.110  0.00  0.00    +0.000 A 
ATOM     36  C   UNL     1      13.504   8.037   0.271  0.00  0.00    +0.000 A 
ENDBRANCH  17  22
ENDBRANCH   7  17
TORSDOF 7
ENDMDL
MODEL 8
REMARK VINA RESULT:      -7.0     27.728     30.285
REMARK  Name = 26745446
REMARK  10 active torsions:
REMARK  status: ('A' for Active; 'I' for Inactive)
REMARK    1  A    between atoms: S_1  and  N_6
REMARK    2  A    between atoms: S_1  and  C_15
REMARK    3  A    between atoms: O_4  and  C_16
REMARK    4  A    between atoms: O_4  and  C_31
REMARK    5  A    between atoms: N_7  and  C_17
REMARK    6  A    between atoms: N_9  and  C_24
REMARK    7  A    between atoms: N_9  and  C_34
REMARK    8  A    between atoms: N_9  and  C_35
REMARK    9  A    between atoms: C_10  and  C_16
REMARK   10  A    between atoms: C_17  and  C_22
REMARK                            x       y       z     vdW  Elec       q    Type
REMARK                         _______ _______ _______ _____ _____    ______ ____
ROOT
ATOM      6  N   UNL     1      -5.118 -12.106  16.368  0.00  0.00    -0.157 NA
ATOM      7  N   UNL     1      -5.393 -15.800  15.851  0.00  0.00    -0.328 N 
ATOM      8  N   UNL     1      -7.500 -15.511  16.536  0.00  0.00    -0.240 NA
ATOM     10  C   UNL     1      -6.217 -12.042  17.398  0.00  0.00    +0.194 C 
ATOM     11  C   UNL     1      -4.459 -13.450  16.174  0.00  0.00    +0.165 C 
ATOM     12  C   UNL     1      -7.350 -13.045  17.092  0.00  0.00    +0.089 C 
ATOM     13  C   UNL     1      -5.505 -14.488  16.205  0.00  0.00    +0.057 A 
ATOM     14  C   UNL     1      -6.804 -14.338  16.626  0.00  0.00    +0.066 A 
ATOM     18  C   UNL     1      -6.620 -16.374  16.066  0.00  0.00    +0.200 A 
ENDROOT
BRANCH   6   1
ATOM      1  S   UNL     1      -4.066 -10.755  16.285  0.00  0.00    +0.062 S 
ATOM      2  O   UNL     1      -2.867 -11.046  17.039  0.00  0.00    -0.153 OA
ATOM      3  O   UNL     1      -4.830  -9.550  16.531  0.00  0.00    -0.153 OA
BRANCH   1  15
ATOM     15  C   UNL     1      -3.651 -10.794  14.571  0.00  0.00    +0.113 A 
ATOM     19  C   UNL     1      -4.549 -10.414  13.560  0.00  0.00    +0.010 A 
ATOM     20  C   UNL     1      -2.363 -11.227  14.251  0.00  0.00    +0.029 A 
ATOM     21  C   UNL     1      -4.136 -10.474  12.208  0.00  0.00    +0.005 A 
ATOM     23  C   UNL     1      -5.849  -9.977  13.862  0.00  0.00    +0.010 A 
ATOM     24  C   UNL     1      -5.035 -10.095  11.198  0.00  0.00    +0.037 A 
ATOM     25  C   UNL     1      -1.957 -11.286  12.922  0.00  0.00    +0.003 A 
ATOM     26  C   UNL     1      -2.836 -10.912  11.906  0.00  0.00    +0.010 A 
ATOM     27  C   UNL     1      -6.729  -9.604  12.846  0.00  0.00    +0.002 A 
ATOM     28  C   UNL     1      -6.323  -9.663  11.516  0.00  0.00    +0.024 A 
BRANCH  24   9
ATOM      9  N   UNL     1      -4.672 -10.135   9.829  0.00  0.00    -0.336 N 
ATOM     34  C   UNL     1      -4.808 -11.363   9.077  0.00  0.00    +0.129 C 
ATOM     35  C   UNL     1      -4.172  -8.947   9.172  0.00  0.00    +0.129 C 
ENDBRANCH  24   9
ENDBRANCH   1  15
ENDBRANCH   6   1
BRANCH  10  16
ATOM      5  O   UNL     1      -4.578 -12.870  18.952  0.00  0.00    -0.249 OA
ATOM     16  C   UNL     1      -5.622 -12.264  18.754  0.00  0.00    +0.326 C 
BRANCH  16   4
ATOM      4  O   UNL     1      -6.420 -11.694  19.700  0.00  0.00    -0.467 OA
ATOM     31  C   UNL     1      -6.600 -10.279  19.581  0.00  0.00    +0.280 C 
ENDBRANCH  16   4
ENDBRANCH  10  16
BRANCH   7  17
ATOM     17  C   UNL     1      -4.218 -16.472  15.350  0.00  0.00    +0.158 C 
BRANCH  17  22
ATOM     22  C   UNL     1      -3.668 -15.856  14.089  0.00  0.00    -0.028 A 
ATOM     29  C   UNL     1      -2.315 -15.527  14.005  0.00  0.00    +0.005 A 
ATOM     30  C   UNL     1      -4.512 -15.614  13.005  0.00  0.00    +0.005 A 
ATOM     32  C   UNL     1      -1.806 -14.957  12.839  0.00  0.00    +0.000 A 
ATOM     33  C   UNL     1      -4.003 -15.044  11.837  0.00  0.00    +0.000 A 
ATOM     36  C   UNL     1      -2.650 -14.716  11.754  0.00  0.00    +0.000 A 
ENDBRANCH  17  22
ENDBRANCH   7  17
TORSDOF 7
ENDMDL
MODEL 9
REMARK VINA RESULT:      -7.0     14.578     19.491
REMARK  Name = 26745446
REMARK  10 active torsions:
REMARK  status: ('A' for Active; 'I' for Inactive)
REMARK    1  A    between atoms: S_1  and  N_6
REMARK    2  A    between atoms: S_1  and  C_15
REMARK    3  A    between atoms: O_4  and  C_16
REMARK    4  A    between atoms: O_4  and  C_31
REMARK    5  A    between atoms: N_7  and  C_17
REMARK    6  A    between atoms: N_9  and  C_24
REMARK    7  A    between atoms: N_9  and  C_34
REMARK    8  A    between atoms: N_9  and  C_35
REMARK    9  A    between atoms: C_10  and  C_16
REMARK   10  A    between atoms: C_17  and  C_22
REMARK                            x       y       z     vdW  Elec       q    Type
REMARK                         _______ _______ _______ _____ _____    ______ ____
ROOT
ATOM      6  N   UNL     1      11.583   6.291   5.380  0.00  0.00    -0.157 NA
ATOM      7  N   UNL     1      14.488   8.469   4.482  0.00  0.00    -0.328 N 
ATOM      8  N   UNL     1      15.270   7.865   6.487  0.00  0.00    -0.240 NA
ATOM     10  C   UNL     1      11.771   6.441   6.869  0.00  0.00    +0.194 C 
ATOM     11  C   UNL     1      12.187   7.372   4.518  0.00  0.00    +0.165 C 
ATOM     12  C   UNL     1      13.263   6.525   7.254  0.00  0.00    +0.089 C 
ATOM     13  C   UNL     1      13.512   7.717   5.065  0.00  0.00    +0.057 A 
ATOM     14  C   UNL     1      14.013   7.364   6.294  0.00  0.00    +0.066 A 
ATOM     18  C   UNL     1      15.527   8.528   5.376  0.00  0.00    +0.200 A 
ENDROOT
BRANCH   6   1
ATOM      1  S   UNL     1      10.063   5.698   4.856  0.00  0.00    +0.062 S 
ATOM      2  O   UNL     1       9.104   6.781   4.872  0.00  0.00    -0.153 OA
ATOM      3  O   UNL     1       9.789   4.448   5.531  0.00  0.00    -0.153 OA
BRANCH   1  15
ATOM     15  C   UNL     1      10.440   5.334   3.171  0.00  0.00    +0.113 A 
ATOM     19  C   UNL     1      10.092   6.187   2.111  0.00  0.00    +0.010 A 
ATOM     20  C   UNL     1      11.115   4.136   2.928  0.00  0.00    +0.029 A 
ATOM     21  C   UNL     1      10.431   5.821   0.787  0.00  0.00    +0.005 A 
ATOM     23  C   UNL     1       9.412   7.395   2.336  0.00  0.00    +0.010 A 
ATOM     24  C   UNL     1      10.083   6.673  -0.273  0.00  0.00    +0.037 A 
ATOM     25  C   UNL     1      11.448   3.776   1.626  0.00  0.00    +0.003 A 
ATOM     26  C   UNL     1      11.110   4.611   0.562  0.00  0.00    +0.010 A 
ATOM     27  C   UNL     1       9.074   8.230   1.271  0.00  0.00    +0.002 A 
ATOM     28  C   UNL     1       9.407   7.870  -0.031  0.00  0.00    +0.024 A 
BRANCH  24   9
ATOM      9  N   UNL     1      10.399   6.355  -1.617  0.00  0.00    -0.336 N 
ATOM     34  C   UNL     1       9.521   5.504  -2.388  0.00  0.00    +0.129 C 
ATOM     35  C   UNL     1      11.598   6.886  -2.228  0.00  0.00    +0.129 C 
ENDBRANCH  24   9
ENDBRANCH   1  15
ENDBRANCH   6   1
BRANCH  10  16
ATOM      5  O   UNL     1      11.341   8.793   7.122  0.00  0.00    -0.249 OA
ATOM     16  C   UNL     1      11.002   7.637   7.335  0.00  0.00    +0.326 C 
BRANCH  16   4
ATOM      4  O   UNL     1       9.895   7.230   8.017  0.00  0.00    -0.467 OA
ATOM     31  C   UNL     1       9.996   5.948   8.645  0.00  0.00    +0.280 C 
ENDBRANCH  16   4
ENDBRANCH  10  16
BRANCH   7  17
ATOM     17  C   UNL     1      14.450   9.093   3.182  0.00  0.00    +0.158 C 
BRANCH  17  22
ATOM     22  C   UNL     1      14.820   8.158   2.059  0.00  0.00    -0.028 A 
ATOM     29  C   UNL     1      16.162   7.955   1.733  0.00  0.00    +0.005 A 
ATOM     30  C   UNL     1      13.823   7.493   1.346  0.00  0.00    +0.005 A 
ATOM     32  C   UNL     1      16.504   7.091   0.693  0.00  0.00    +0.000 A 
ATOM     33  C   UNL     1      14.165   6.627   0.306  0.00  0.00    +0.000 A 
ATOM     36  C   UNL     1      15.506   6.427  -0.020  0.00  0.00    +0.000 A 
ENDBRANCH  17  22
ENDBRANCH   7  17
TORSDOF 7
ENDMDL
MODEL 10
REMARK VINA RESULT:      -7.0     27.068     30.179
REMARK  Name = 26745446
REMARK  10 active torsions:
REMARK  status: ('A' for Active; 'I' for Inactive)
REMARK    1  A    between atoms: S_1  and  N_6
REMARK    2  A    between atoms: S_1  and  C_15
REMARK    3  A    between atoms: O_4  and  C_16
REMARK    4  A    between atoms: O_4  and  C_31
REMARK    5  A    between atoms: N_7  and  C_17
REMARK    6  A    between atoms: N_9  and  C_24
REMARK    7  A    between atoms: N_9  and  C_34
REMARK    8  A    between atoms: N_9  and  C_35
REMARK    9  A    between atoms: C_10  and  C_16
REMARK   10  A    between atoms: C_17  and  C_22
REMARK                            x       y       z     vdW  Elec       q    Type
REMARK                         _______ _______ _______ _____ _____    ______ ____
ROOT
ATOM      6  N   UNL     1      -3.560 -12.576  12.504  0.00  0.00    -0.157 NA
ATOM      7  N   UNL     1      -3.624 -10.668  15.720  0.00  0.00    -0.328 N 
ATOM      8  N   UNL     1      -1.422 -11.047  15.726  0.00  0.00    -0.240 NA
ATOM     10  C   UNL     1      -2.314 -13.354  12.845  0.00  0.00    +0.194 C 
ATOM     11  C   UNL     1      -4.332 -12.005  13.668  0.00  0.00    +0.165 C 
ATOM     12  C   UNL     1      -1.313 -12.507  13.660  0.00  0.00    +0.089 C 
ATOM     13  C   UNL     1      -3.368 -11.466  14.645  0.00  0.00    +0.057 A 
ATOM     14  C   UNL     1      -2.013 -11.687  14.673  0.00  0.00    +0.066 A 
ATOM     18  C   UNL     1      -2.420 -10.442  16.339  0.00  0.00    +0.200 A 
ENDROOT
BRANCH   6   1
ATOM      1  S   UNL     1      -4.516 -13.186  11.219  0.00  0.00    +0.062 S 
ATOM      2  O   UNL     1      -5.809 -13.574  11.738  0.00  0.00    -0.153 OA
ATOM      3  O   UNL     1      -3.718 -14.107  10.437  0.00  0.00    -0.153 OA
BRANCH   1  15
ATOM     15  C   UNL     1      -4.733 -11.714  10.271  0.00  0.00    +0.113 A 
ATOM     19  C   UNL     1      -5.843 -11.501   9.438  0.00  0.00    +0.010 A 
ATOM     20  C   UNL     1      -3.733 -10.747  10.385  0.00  0.00    +0.029 A 
ATOM     21  C   UNL     1      -5.941 -10.291   8.710  0.00  0.00    +0.005 A 
ATOM     23  C   UNL     1      -6.858 -12.463   9.310  0.00  0.00    +0.010 A 
ATOM     24  C   UNL     1      -7.051 -10.078   7.877  0.00  0.00    +0.037 A 
ATOM     25  C   UNL     1      -3.829  -9.557   9.669  0.00  0.00    +0.003 A 
ATOM     26  C   UNL     1      -4.925  -9.329   8.838  0.00  0.00    +0.010 A 
ATOM     27  C   UNL     1      -7.954 -12.235   8.478  0.00  0.00    +0.002 A 
ATOM     28  C   UNL     1      -8.051 -11.045   7.763  0.00  0.00    +0.024 A 
BRANCH  24   9
ATOM      9  N   UNL     1      -7.199  -8.885   7.128  0.00  0.00    -0.336 N 
ATOM     34  C   UNL     1      -6.735  -8.824   5.760  0.00  0.00    +0.129 C 
ATOM     35  C   UNL     1      -7.821  -7.723   7.724  0.00  0.00    +0.129 C 
ENDBRANCH  24   9
ENDBRANCH   1  15
ENDBRANCH   6   1
BRANCH  10  16
ATOM      5  O   UNL     1      -3.854 -14.871  13.899  0.00  0.00    -0.249 OA
ATOM     16  C   UNL     1      -2.708 -14.605  13.566  0.00  0.00    +0.326 C 
BRANCH  16   4
ATOM      4  O   UNL     1      -1.602 -15.373  13.781  0.00  0.00    -0.467 OA
ATOM     31  C   UNL     1      -1.111 -16.079  12.637  0.00  0.00    +0.280 C 
ENDBRANCH  16   4
ENDBRANCH  10  16
BRANCH   7  17
ATOM     17  C   UNL     1      -4.905 -10.158  16.143  0.00  0.00    +0.158 C 
BRANCH  17  22
ATOM     22  C   UNL     1      -5.537 -10.967  17.247  0.00  0.00    -0.028 A 
ATOM     29  C   UNL     1      -6.405 -12.014  16.935  0.00  0.00    +0.005 A 
ATOM     30  C   UNL     1      -5.254 -10.672  18.580  0.00  0.00    +0.005 A 
ATOM     32  C   UNL     1      -6.990 -12.763  17.956  0.00  0.00    +0.000 A 
ATOM     33  C   UNL     1      -5.838 -11.422  19.602  0.00  0.00    +0.000 A 
ATOM     36  C   UNL     1      -6.706 -12.467  19.289  0.00  0.00    +0.000 A 
ENDBRANCH  17  22
ENDBRANCH   7  17
TORSDOF 7
ENDMDL
