REMARK  Name = 9391198
REMARK  6 active torsions:
REMARK  status: ('A' for Active; 'I' for Inactive)
REMARK    1  A    between atoms: S_1  and  N_9
REMARK    2  A    between atoms: S_1  and  C_24
REMARK    3  A    between atoms: O_6  and  C_33
REMARK    4  A    between atoms: O_6  and  C_35
REMARK    5  A    between atoms: N_9  and  C_18
REMARK    6  A    between atoms: N_10  and  C_23
REMARK                            x       y       z     vdW  Elec       q    Type
REMARK                         _______ _______ _______ _____ _____    ______ ____
ROOT
ATOM      2  O   UNL     1      -0.974   0.819  -3.678  0.00  0.00    -0.268 OA
ATOM      3  O   UNL     1      -1.703  -0.413   2.067  0.00  0.00    -0.252 OA
ATOM      7  N   UNL     1       0.251  -0.231  -1.978  0.00  0.00    -0.310 N 
ATOM      8  N   UNL     1      -0.777  -1.909   0.563  0.00  0.00    -0.284 N 
ATOM     10  N   UNL     1      -3.115  -1.606   0.664  0.00  0.00    -0.269 N 
ATOM     11  C   UNL     1       0.154  -2.761  -1.605  0.00  0.00    +0.027 C 
ATOM     12  C   UNL     1       1.549  -1.366  -0.145  0.00  0.00    +0.055 C 
ATOM     13  C   UNL     1       1.558  -2.593  -1.053  0.00  0.00    +0.018 C 
ATOM     14  C   UNL     1      -0.167  -1.546  -2.478  0.00  0.00    +0.130 C 
ATOM     15  C   UNL     1      -0.876  -2.948  -0.474  0.00  0.00    +0.114 C 
ATOM     16  C   UNL     1       0.585  -1.618   1.027  0.00  0.00    +0.119 C 
ATOM     17  C   UNL     1       1.139  -0.098  -0.891  0.00  0.00    +0.049 A 
ATOM     18  C   UNL     1       1.555   1.140  -0.550  0.00  0.00    +0.068 A 
ATOM     19  C   UNL     1      -0.212   0.879  -2.712  0.00  0.00    +0.252 A 
ATOM     20  C   UNL     1      -1.866  -1.237   1.163  0.00  0.00    +0.306 C 
ATOM     21  C   UNL     1       1.127   2.311  -1.259  0.00  0.00    +0.031 A 
ATOM     22  C   UNL     1       0.278   2.215  -2.284  0.00  0.00    +0.072 A 
ATOM     37  H   UNL     1      -3.223  -2.539   0.283  0.00  0.00    +0.156 HD
ENDROOT
BRANCH  10  23
ATOM     23  C   UNL     1      -4.303  -0.833   0.668  0.00  0.00    +0.035 A 
ATOM     25  C   UNL     1      -5.494  -1.392   0.214  0.00  0.00    +0.027 A 
ATOM     26  C   UNL     1      -4.271   0.482   1.125  0.00  0.00    +0.027 A 
ATOM     29  C   UNL     1      -6.663  -0.630   0.217  0.00  0.00    +0.047 A 
ATOM     30  C   UNL     1      -5.440   1.243   1.128  0.00  0.00    +0.047 A 
ATOM     33  C   UNL     1      -6.636   0.687   0.674  0.00  0.00    +0.120 A 
BRANCH  33   6
ATOM      6  O   UNL     1      -7.776   1.429   0.679  0.00  0.00    -0.495 OA
ATOM     35  C   UNL     1      -7.677   2.769   1.159  0.00  0.00    +0.277 C 
ENDBRANCH  33   6
ENDBRANCH  10  23
BRANCH  18   9
ATOM      9  N   UNL     1       2.423   1.301   0.556  0.00  0.00    -0.215 N 
ATOM     36  H   UNL     1       2.445   0.509   1.209  0.00  0.00    +0.174 HD
BRANCH   9   1
ATOM      1  S   UNL     1       3.912   2.037   0.255  0.00  0.00    +0.072 S 
ATOM      4  O   UNL     1       4.091   2.219  -1.173  0.00  0.00    -0.150 OA
ATOM      5  O   UNL     1       4.101   3.152   1.163  0.00  0.00    -0.150 OA
BRANCH   1  24
ATOM     24  C   UNL     1       5.014   0.750   0.764  0.00  0.00    +0.108 A 
ATOM     27  C   UNL     1       5.429  -0.189  -0.164  0.00  0.00    +0.029 A 
ATOM     28  C   UNL     1       5.440   0.708   2.080  0.00  0.00    +0.029 A 
ATOM     31  C   UNL     1       6.298  -1.204   0.238  0.00  0.00    +0.002 A 
ATOM     32  C   UNL     1       6.308  -0.307   2.481  0.00  0.00    +0.002 A 
ATOM     34  C   UNL     1       6.737  -1.263   1.560  0.00  0.00    +0.000 A 
ENDBRANCH   1  24
ENDBRANCH   9   1
ENDBRANCH  18   9
TORSDOF 5
