MODEL 1
REMARK VINA RESULT:      -6.5      0.000      0.000
REMARK  Name = 45783374
REMARK  9 active torsions:
REMARK  status: ('A' for Active; 'I' for Inactive)
REMARK    1  A    between atoms: O_2  and  C_29
REMARK    2  A    between atoms: O_2  and  C_30
REMARK    3  A    between atoms: N_3  and  C_13
REMARK    4  A    between atoms: N_6  and  C_26
REMARK    5  A    between atoms: C_9  and  C_14
REMARK    6  A    between atoms: C_13  and  C_15
REMARK    7  A    between atoms: C_18  and  C_19
REMARK    8  A    between atoms: C_20  and  C_25
REMARK    9  A    between atoms: C_26  and  C_29
REMARK                            x       y       z     vdW  Elec       q    Type
REMARK                         _______ _______ _______ _____ _____    ______ ____
ROOT
ATOM      1  O   UNL     1      11.654   3.292   2.485  0.00  0.00    -0.336 OA
ATOM      4  N   UNL     1      12.062   5.483   2.261  0.00  0.00    -0.190 NA
ATOM      5  N   UNL     1      10.650   3.951   3.206  0.00  0.00    -0.056 NA
ATOM     14  C   UNL     1      12.442   4.266   1.961  0.00  0.00    +0.245 A 
ATOM     18  C   UNL     1      10.959   5.238   3.027  0.00  0.00    +0.205 A 
ENDROOT
BRANCH  18  19
ATOM      6  N   UNL     1      10.979   5.780   5.815  0.00  0.00    -0.326 N 
ATOM      7  N   UNL     1       9.470   7.579   5.523  0.00  0.00    -0.240 NA
ATOM     19  C   UNL     1      10.188   6.304   3.598  0.00  0.00    +0.062 A 
ATOM     23  C   UNL     1      10.186   6.583   4.956  0.00  0.00    +0.130 A 
ATOM     24  C   UNL     1       9.404   7.100   2.770  0.00  0.00    +0.016 A 
ATOM     27  C   UNL     1       8.654   8.135   3.315  0.00  0.00    +0.020 A 
ATOM     28  C   UNL     1       8.720   8.332   4.685  0.00  0.00    +0.113 A 
ATOM     31  H   UNL     1      11.760   5.301   5.382  0.00  0.00    +0.148 HD
BRANCH   6  26
ATOM     26  C   UNL     1      11.040   5.991   7.224  0.00  0.00    +0.131 C 
BRANCH  26  29
ATOM     29  C   UNL     1      10.072   5.057   7.931  0.00  0.00    +0.178 C 
BRANCH  29   2
ATOM      2  O   UNL     1      10.278   5.136   9.336  0.00  0.00    -0.381 OA
ATOM     30  C   UNL     1       9.163   4.631  10.056  0.00  0.00    +0.194 C 
ENDBRANCH  29   2
ENDBRANCH  26  29
ENDBRANCH   6  26
ENDBRANCH  18  19
BRANCH  14   9
ATOM      3  N   UNL     1      13.377   3.960  -0.324  0.00  0.00    -0.287 NA
ATOM      9  C   UNL     1      13.617   3.807   1.124  0.00  0.00    +0.146 C 
ATOM     10  C   UNL     1      14.896   4.619   1.397  0.00  0.00    +0.030 C 
ATOM     11  C   UNL     1      15.334   5.141   0.036  0.00  0.00    +0.017 C 
ATOM     12  C   UNL     1      14.687   4.179  -0.940  0.00  0.00    +0.085 C 
BRANCH   3  13
ATOM     13  C   UNL     1      12.676   2.827  -0.914  0.00  0.00    +0.120 C 
BRANCH  13  15
ATOM     15  C   UNL     1      11.526   3.266  -1.780  0.00  0.00    -0.032 A 
ATOM     16  C   UNL     1      10.913   4.499  -1.556  0.00  0.00    +0.023 A 
ATOM     17  C   UNL     1      11.076   2.440  -2.810  0.00  0.00    +0.005 A 
ATOM     20  C   UNL     1       9.850   4.905  -2.360  0.00  0.00    +0.052 A 
ATOM     21  C   UNL     1      10.012   2.848  -3.615  0.00  0.00    +0.002 A 
ATOM     22  C   UNL     1       9.398   4.080  -3.390  0.00  0.00    +0.019 A 
BRANCH  20  25
ATOM      8  N   UNL     1       8.710   7.194  -1.945  0.00  0.00    -0.191 NA
ATOM     25  C   UNL     1       9.221   6.168  -2.131  0.00  0.00    +0.099 C 
ENDBRANCH  20  25
ENDBRANCH  13  15
ENDBRANCH   3  13
ENDBRANCH  14   9
TORSDOF 8
ENDMDL
MODEL 2
REMARK VINA RESULT:      -6.4     22.904     26.585
REMARK  Name = 45783374
REMARK  9 active torsions:
REMARK  status: ('A' for Active; 'I' for Inactive)
REMARK    1  A    between atoms: O_2  and  C_29
REMARK    2  A    between atoms: O_2  and  C_30
REMARK    3  A    between atoms: N_3  and  C_13
REMARK    4  A    between atoms: N_6  and  C_26
REMARK    5  A    between atoms: C_9  and  C_14
REMARK    6  A    between atoms: C_13  and  C_15
REMARK    7  A    between atoms: C_18  and  C_19
REMARK    8  A    between atoms: C_20  and  C_25
REMARK    9  A    between atoms: C_26  and  C_29
REMARK                            x       y       z     vdW  Elec       q    Type
REMARK                         _______ _______ _______ _____ _____    ______ ____
ROOT
ATOM      1  O   UNL     1      -5.037  -9.652  15.808  0.00  0.00    -0.336 OA
ATOM      4  N   UNL     1      -5.251 -11.494  17.064  0.00  0.00    -0.190 NA
ATOM      5  N   UNL     1      -6.249  -9.515  16.497  0.00  0.00    -0.056 NA
ATOM     14  C   UNL     1      -4.514 -10.844  16.199  0.00  0.00    +0.245 A 
ATOM     18  C   UNL     1      -6.305 -10.640  17.215  0.00  0.00    +0.205 A 
ENDROOT
BRANCH  18  19
ATOM      6  N   UNL     1      -8.617  -8.997  17.355  0.00  0.00    -0.326 N 
ATOM      7  N   UNL     1      -9.579 -10.411  18.991  0.00  0.00    -0.240 NA
ATOM     19  C   UNL     1      -7.398 -10.942  18.093  0.00  0.00    +0.062 A 
ATOM     23  C   UNL     1      -8.534 -10.152  18.174  0.00  0.00    +0.130 A 
ATOM     24  C   UNL     1      -7.332 -12.071  18.903  0.00  0.00    +0.016 A 
ATOM     27  C   UNL     1      -8.387 -12.371  19.756  0.00  0.00    +0.020 A 
ATOM     28  C   UNL     1      -9.479 -11.517  19.763  0.00  0.00    +0.113 A 
ATOM     31  H   UNL     1      -8.042  -8.999  16.520  0.00  0.00    +0.148 HD
BRANCH   6  26
ATOM     26  C   UNL     1      -9.745  -8.125  17.370  0.00  0.00    +0.131 C 
BRANCH  26  29
ATOM     29  C   UNL     1     -10.180  -7.814  15.947  0.00  0.00    +0.178 C 
BRANCH  29   2
ATOM      2  O   UNL     1     -10.236  -6.405  15.767  0.00  0.00    -0.381 OA
ATOM     30  C   UNL     1     -11.577  -5.946  15.659  0.00  0.00    +0.194 C 
ENDBRANCH  29   2
ENDBRANCH  26  29
ENDBRANCH   6  26
ENDBRANCH  18  19
BRANCH  14   9
ATOM      3  N   UNL     1      -2.962 -10.605  14.270  0.00  0.00    -0.287 NA
ATOM      9  C   UNL     1      -3.184 -11.230  15.588  0.00  0.00    +0.146 C 
ATOM     10  C   UNL     1      -1.984 -10.779  16.442  0.00  0.00    +0.030 C 
ATOM     11  C   UNL     1      -1.114  -9.957  15.502  0.00  0.00    +0.017 C 
ATOM     12  C   UNL     1      -1.514 -10.447  14.125  0.00  0.00    +0.085 C 
BRANCH   3  13
ATOM     13  C   UNL     1      -3.544 -11.363  13.169  0.00  0.00    +0.120 C 
BRANCH  13  15
ATOM     15  C   UNL     1      -3.885 -10.480  11.999  0.00  0.00    -0.032 A 
ATOM     16  C   UNL     1      -5.214 -10.140  11.744  0.00  0.00    +0.023 A 
ATOM     17  C   UNL     1      -2.871 -10.001  11.170  0.00  0.00    +0.005 A 
ATOM     20  C   UNL     1      -5.528  -9.321  10.660  0.00  0.00    +0.052 A 
ATOM     21  C   UNL     1      -3.186  -9.181  10.086  0.00  0.00    +0.002 A 
ATOM     22  C   UNL     1      -4.515  -8.841   9.831  0.00  0.00    +0.019 A 
BRANCH  20  25
ATOM      8  N   UNL     1      -7.994  -8.688  10.185  0.00  0.00    -0.191 NA
ATOM     25  C   UNL     1      -6.889  -8.972  10.398  0.00  0.00    +0.099 C 
ENDBRANCH  20  25
ENDBRANCH  13  15
ENDBRANCH   3  13
ENDBRANCH  14   9
TORSDOF 8
ENDMDL
MODEL 3
REMARK VINA RESULT:      -6.4     17.991     21.142
REMARK  Name = 45783374
REMARK  9 active torsions:
REMARK  status: ('A' for Active; 'I' for Inactive)
REMARK    1  A    between atoms: O_2  and  C_29
REMARK    2  A    between atoms: O_2  and  C_30
REMARK    3  A    between atoms: N_3  and  C_13
REMARK    4  A    between atoms: N_6  and  C_26
REMARK    5  A    between atoms: C_9  and  C_14
REMARK    6  A    between atoms: C_13  and  C_15
REMARK    7  A    between atoms: C_18  and  C_19
REMARK    8  A    between atoms: C_20  and  C_25
REMARK    9  A    between atoms: C_26  and  C_29
REMARK                            x       y       z     vdW  Elec       q    Type
REMARK                         _______ _______ _______ _____ _____    ______ ____
ROOT
ATOM      1  O   UNL     1      15.664  11.880  21.178  0.00  0.00    -0.336 OA
ATOM      4  N   UNL     1      15.561  11.555  23.392  0.00  0.00    -0.190 NA
ATOM      5  N   UNL     1      14.314  12.012  21.529  0.00  0.00    -0.056 NA
ATOM     14  C   UNL     1      16.329  11.612  22.333  0.00  0.00    +0.245 A 
ATOM     18  C   UNL     1      14.335  11.807  22.849  0.00  0.00    +0.205 A 
ENDROOT
BRANCH  18  19
ATOM      6  N   UNL     1      12.284   9.857  22.599  0.00  0.00    -0.326 N 
ATOM      7  N   UNL     1      11.010  10.914  24.290  0.00  0.00    -0.240 NA
ATOM     19  C   UNL     1      13.148  11.845  23.654  0.00  0.00    +0.062 A 
ATOM     23  C   UNL     1      12.138  10.903  23.546  0.00  0.00    +0.130 A 
ATOM     24  C   UNL     1      12.990  12.864  24.587  0.00  0.00    +0.016 A 
ATOM     27  C   UNL     1      11.844  12.909  25.372  0.00  0.00    +0.020 A 
ATOM     28  C   UNL     1      10.892  11.919  25.187  0.00  0.00    +0.113 A 
ATOM     31  H   UNL     1      13.233   9.639  22.318  0.00  0.00    +0.148 HD
BRANCH   6  26
ATOM     26  C   UNL     1      11.298   8.844  22.416  0.00  0.00    +0.131 C 
BRANCH  26  29
ATOM     29  C   UNL     1      10.959   8.708  20.941  0.00  0.00    +0.178 C 
BRANCH  29   2
ATOM      2  O   UNL     1      10.805   7.333  20.615  0.00  0.00    -0.381 OA
ATOM     30  C   UNL     1      11.348   6.494  21.624  0.00  0.00    +0.194 C 
ENDBRANCH  29   2
ENDBRANCH  26  29
ENDBRANCH   6  26
ENDBRANCH  18  19
BRANCH  14   9
ATOM      3  N   UNL     1      18.195  10.367  21.258  0.00  0.00    -0.287 NA
ATOM      9  C   UNL     1      17.827  11.424  22.221  0.00  0.00    +0.146 C 
ATOM     10  C   UNL     1      18.548  12.685  21.713  0.00  0.00    +0.030 C 
ATOM     11  C   UNL     1      19.344  12.227  20.500  0.00  0.00    +0.017 C 
ATOM     12  C   UNL     1      19.506  10.737  20.721  0.00  0.00    +0.085 C 
BRANCH   3  13
ATOM     13  C   UNL     1      18.199   9.033  21.843  0.00  0.00    +0.120 C 
BRANCH  13  15
ATOM     15  C   UNL     1      17.643   8.003  20.896  0.00  0.00    -0.032 A 
ATOM     16  C   UNL     1      16.363   8.159  20.366  0.00  0.00    +0.023 A 
ATOM     17  C   UNL     1      18.413   6.893  20.546  0.00  0.00    +0.005 A 
ATOM     20  C   UNL     1      15.850   7.206  19.488  0.00  0.00    +0.052 A 
ATOM     21  C   UNL     1      17.900   5.940  19.666  0.00  0.00    +0.002 A 
ATOM     22  C   UNL     1      16.618   6.096  19.137  0.00  0.00    +0.019 A 
BRANCH  20  25
ATOM      8  N   UNL     1      13.472   7.494  18.503  0.00  0.00    -0.191 NA
ATOM     25  C   UNL     1      14.538   7.365  18.945  0.00  0.00    +0.099 C 
ENDBRANCH  20  25
ENDBRANCH  13  15
ENDBRANCH   3  13
ENDBRANCH  14   9
TORSDOF 8
ENDMDL
MODEL 4
REMARK VINA RESULT:      -6.3     15.170     18.916
REMARK  Name = 45783374
REMARK  9 active torsions:
REMARK  status: ('A' for Active; 'I' for Inactive)
REMARK    1  A    between atoms: O_2  and  C_29
REMARK    2  A    between atoms: O_2  and  C_30
REMARK    3  A    between atoms: N_3  and  C_13
REMARK    4  A    between atoms: N_6  and  C_26
REMARK    5  A    between atoms: C_9  and  C_14
REMARK    6  A    between atoms: C_13  and  C_15
REMARK    7  A    between atoms: C_18  and  C_19
REMARK    8  A    between atoms: C_20  and  C_25
REMARK    9  A    between atoms: C_26  and  C_29
REMARK                            x       y       z     vdW  Elec       q    Type
REMARK                         _______ _______ _______ _____ _____    ______ ____
ROOT
ATOM      1  O   UNL     1      12.547   8.037  16.700  0.00  0.00    -0.336 OA
ATOM      4  N   UNL     1      13.686   9.621  17.799  0.00  0.00    -0.190 NA
ATOM      5  N   UNL     1      13.147   8.837  15.719  0.00  0.00    -0.056 NA
ATOM     14  C   UNL     1      12.915   8.567  17.896  0.00  0.00    +0.245 A 
ATOM     18  C   UNL     1      13.800   9.748  16.446  0.00  0.00    +0.205 A 
ENDROOT
BRANCH  18  19
ATOM      6  N   UNL     1      13.739  12.409  17.439  0.00  0.00    -0.326 N 
ATOM      7  N   UNL     1      15.276  13.111  15.782  0.00  0.00    -0.240 NA
ATOM     19  C   UNL     1      14.575  10.798  15.850  0.00  0.00    +0.062 A 
ATOM     23  C   UNL     1      14.557  12.102  16.322  0.00  0.00    +0.130 A 
ATOM     24  C   UNL     1      15.382  10.514  14.754  0.00  0.00    +0.016 A 
ATOM     27  C   UNL     1      16.136  11.526  14.171  0.00  0.00    +0.020 A 
ATOM     28  C   UNL     1      16.048  12.796  14.717  0.00  0.00    +0.113 A 
ATOM     31  H   UNL     1      13.501  11.632  18.045  0.00  0.00    +0.148 HD
BRANCH   6  26
ATOM     26  C   UNL     1      13.656  13.720  17.992  0.00  0.00    +0.131 C 
BRANCH  26  29
ATOM     29  C   UNL     1      12.831  13.694  19.268  0.00  0.00    +0.178 C 
BRANCH  29   2
ATOM      2  O   UNL     1      12.821  12.375  19.799  0.00  0.00    -0.381 OA
ATOM     30  C   UNL     1      12.863  12.384  21.219  0.00  0.00    +0.194 C 
ENDBRANCH  29   2
ENDBRANCH  26  29
ENDBRANCH   6  26
ENDBRANCH  18  19
BRANCH  14   9
ATOM      3  N   UNL     1      13.339   7.928  20.262  0.00  0.00    -0.287 NA
ATOM      9  C   UNL     1      12.389   7.872  19.133  0.00  0.00    +0.146 C 
ATOM     10  C   UNL     1      11.100   8.517  19.675  0.00  0.00    +0.030 C 
ATOM     11  C   UNL     1      11.400   8.846  21.130  0.00  0.00    +0.017 C 
ATOM     12  C   UNL     1      12.532   7.902  21.483  0.00  0.00    +0.085 C 
BRANCH   3  13
ATOM     13  C   UNL     1      14.326   6.857  20.235  0.00  0.00    +0.120 C 
BRANCH  13  15
ATOM     15  C   UNL     1      15.703   7.353  20.585  0.00  0.00    -0.032 A 
ATOM     16  C   UNL     1      15.974   8.722  20.584  0.00  0.00    +0.023 A 
ATOM     17  C   UNL     1      16.708   6.443  20.914  0.00  0.00    +0.005 A 
ATOM     20  C   UNL     1      17.249   9.180  20.911  0.00  0.00    +0.052 A 
ATOM     21  C   UNL     1      17.984   6.903  21.242  0.00  0.00    +0.002 A 
ATOM     22  C   UNL     1      18.255   8.271  21.240  0.00  0.00    +0.019 A 
BRANCH  20  25
ATOM      8  N   UNL     1      17.754  11.721  20.910  0.00  0.00    -0.191 NA
ATOM     25  C   UNL     1      17.528  10.582  20.911  0.00  0.00    +0.099 C 
ENDBRANCH  20  25
ENDBRANCH  13  15
ENDBRANCH   3  13
ENDBRANCH  14   9
TORSDOF 8
ENDMDL
MODEL 5
REMARK VINA RESULT:      -6.3     15.590     20.302
REMARK  Name = 45783374
REMARK  9 active torsions:
REMARK  status: ('A' for Active; 'I' for Inactive)
REMARK    1  A    between atoms: O_2  and  C_29
REMARK    2  A    between atoms: O_2  and  C_30
REMARK    3  A    between atoms: N_3  and  C_13
REMARK    4  A    between atoms: N_6  and  C_26
REMARK    5  A    between atoms: C_9  and  C_14
REMARK    6  A    between atoms: C_13  and  C_15
REMARK    7  A    between atoms: C_18  and  C_19
REMARK    8  A    between atoms: C_20  and  C_25
REMARK    9  A    between atoms: C_26  and  C_29
REMARK                            x       y       z     vdW  Elec       q    Type
REMARK                         _______ _______ _______ _____ _____    ______ ____
ROOT
ATOM      1  O   UNL     1      14.829  12.190  20.910  0.00  0.00    -0.336 OA
ATOM      4  N   UNL     1      14.982  10.031  21.486  0.00  0.00    -0.190 NA
ATOM      5  N   UNL     1      13.535  11.664  20.797  0.00  0.00    -0.056 NA
ATOM     14  C   UNL     1      15.618  11.163  21.320  0.00  0.00    +0.245 A 
ATOM     18  C   UNL     1      13.708  10.388  21.153  0.00  0.00    +0.205 A 
ENDROOT
BRANCH  18  19
ATOM      6  N   UNL     1      12.907   8.940  18.844  0.00  0.00    -0.326 N 
ATOM      7  N   UNL     1      11.212   7.833  20.070  0.00  0.00    -0.240 NA
ATOM     19  C   UNL     1      12.629   9.444  21.186  0.00  0.00    +0.062 A 
ATOM     23  C   UNL     1      12.225   8.728  20.069  0.00  0.00    +0.130 A 
ATOM     24  C   UNL     1      11.948   9.225  22.379  0.00  0.00    +0.016 A 
ATOM     27  C   UNL     1      10.902   8.312  22.420  0.00  0.00    +0.020 A 
ATOM     28  C   UNL     1      10.575   7.648  21.248  0.00  0.00    +0.113 A 
ATOM     31  H   UNL     1      13.850   9.307  18.916  0.00  0.00    +0.148 HD
BRANCH   6  26
ATOM     26  C   UNL     1      12.563   8.251  17.645  0.00  0.00    +0.131 C 
BRANCH  26  29
ATOM     29  C   UNL     1      13.147   8.975  16.443  0.00  0.00    +0.178 C 
BRANCH  29   2
ATOM      2  O   UNL     1      12.275   8.827  15.330  0.00  0.00    -0.381 OA
ATOM     30  C   UNL     1      10.944   9.197  15.659  0.00  0.00    +0.194 C 
ENDBRANCH  29   2
ENDBRANCH  26  29
ENDBRANCH   6  26
ENDBRANCH  18  19
BRANCH  14   9
ATOM      3  N   UNL     1      17.971  10.437  20.962  0.00  0.00    -0.287 NA
ATOM      9  C   UNL     1      17.086  11.479  21.521  0.00  0.00    +0.146 C 
ATOM     10  C   UNL     1      17.517  12.778  20.816  0.00  0.00    +0.030 C 
ATOM     11  C   UNL     1      18.687  12.380  19.929  0.00  0.00    +0.017 C 
ATOM     12  C   UNL     1      19.210  11.113  20.575  0.00  0.00    +0.085 C 
BRANCH   3  13
ATOM     13  C   UNL     1      18.212   9.334  21.883  0.00  0.00    +0.120 C 
BRANCH  13  15
ATOM     15  C   UNL     1      18.315   8.016  21.164  0.00  0.00    -0.032 A 
ATOM     16  C   UNL     1      19.492   7.270  21.234  0.00  0.00    +0.023 A 
ATOM     17  C   UNL     1      17.229   7.538  20.430  0.00  0.00    +0.005 A 
ATOM     20  C   UNL     1      19.584   6.049  20.570  0.00  0.00    +0.052 A 
ATOM     21  C   UNL     1      17.322   6.315  19.765  0.00  0.00    +0.002 A 
ATOM     22  C   UNL     1      18.500   5.570  19.835  0.00  0.00    +0.019 A 
BRANCH  20  25
ATOM      8  N   UNL     1      21.769   4.663  20.700  0.00  0.00    -0.191 NA
ATOM     25  C   UNL     1      20.790   5.284  20.642  0.00  0.00    +0.099 C 
ENDBRANCH  20  25
ENDBRANCH  13  15
ENDBRANCH   3  13
ENDBRANCH  14   9
TORSDOF 8
ENDMDL
MODEL 6
REMARK VINA RESULT:      -6.2     16.345     20.639
REMARK  Name = 45783374
REMARK  9 active torsions:
REMARK  status: ('A' for Active; 'I' for Inactive)
REMARK    1  A    between atoms: O_2  and  C_29
REMARK    2  A    between atoms: O_2  and  C_30
REMARK    3  A    between atoms: N_3  and  C_13
REMARK    4  A    between atoms: N_6  and  C_26
REMARK    5  A    between atoms: C_9  and  C_14
REMARK    6  A    between atoms: C_13  and  C_15
REMARK    7  A    between atoms: C_18  and  C_19
REMARK    8  A    between atoms: C_20  and  C_25
REMARK    9  A    between atoms: C_26  and  C_29
REMARK                            x       y       z     vdW  Elec       q    Type
REMARK                         _______ _______ _______ _____ _____    ______ ____
ROOT
ATOM      1  O   UNL     1      14.478   6.959  20.723  0.00  0.00    -0.336 OA
ATOM      4  N   UNL     1      15.508   8.710  19.779  0.00  0.00    -0.190 NA
ATOM      5  N   UNL     1      15.512   7.321  21.597  0.00  0.00    -0.056 NA
ATOM     14  C   UNL     1      14.546   7.826  19.680  0.00  0.00    +0.245 A 
ATOM     18  C   UNL     1      16.073   8.359  20.971  0.00  0.00    +0.205 A 
ENDROOT
BRANCH  18  19
ATOM      6  N   UNL     1      18.482   7.034  21.685  0.00  0.00    -0.326 N 
ATOM      7  N   UNL     1      19.457   9.079  22.370  0.00  0.00    -0.240 NA
ATOM     19  C   UNL     1      17.198   9.068  21.508  0.00  0.00    +0.062 A 
ATOM     23  C   UNL     1      18.381   8.438  21.861  0.00  0.00    +0.130 A 
ATOM     24  C   UNL     1      17.115  10.445  21.688  0.00  0.00    +0.016 A 
ATOM     27  C   UNL     1      18.201  11.139  22.207  0.00  0.00    +0.020 A 
ATOM     28  C   UNL     1      19.338  10.417  22.530  0.00  0.00    +0.113 A 
ATOM     31  H   UNL     1      17.858   6.625  20.999  0.00  0.00    +0.148 HD
BRANCH   6  26
ATOM     26  C   UNL     1      19.657   6.301  22.020  0.00  0.00    +0.131 C 
BRANCH  26  29
ATOM     29  C   UNL     1      20.310   5.761  20.758  0.00  0.00    +0.178 C 
BRANCH  29   2
ATOM      2  O   UNL     1      21.204   4.709  21.100  0.00  0.00    -0.381 OA
ATOM     30  C   UNL     1      21.783   4.914  22.381  0.00  0.00    +0.194 C 
ENDBRANCH  29   2
ENDBRANCH  26  29
ENDBRANCH   6  26
ENDBRANCH  18  19
BRANCH  14   9
ATOM      3  N   UNL     1      12.494   8.707  18.583  0.00  0.00    -0.287 NA
ATOM      9  C   UNL     1      13.519   7.644  18.582  0.00  0.00    +0.146 C 
ATOM     10  C   UNL     1      14.138   7.698  17.174  0.00  0.00    +0.030 C 
ATOM     11  C   UNL     1      13.357   8.776  16.437  0.00  0.00    +0.017 C 
ATOM     12  C   UNL     1      12.048   8.851  17.196  0.00  0.00    +0.085 C 
BRANCH   3  13
ATOM     13  C   UNL     1      11.387   8.437  19.490  0.00  0.00    +0.120 C 
BRANCH  13  15
ATOM     15  C   UNL     1      11.414   9.341  20.693  0.00  0.00    -0.032 A 
ATOM     16  C   UNL     1      12.104  10.551  20.644  0.00  0.00    +0.023 A 
ATOM     17  C   UNL     1      10.744   8.967  21.859  0.00  0.00    +0.005 A 
ATOM     20  C   UNL     1      12.127  11.388  21.758  0.00  0.00    +0.052 A 
ATOM     21  C   UNL     1      10.767   9.805  22.974  0.00  0.00    +0.002 A 
ATOM     22  C   UNL     1      11.458  11.015  22.924  0.00  0.00    +0.019 A 
BRANCH  20  25
ATOM      8  N   UNL     1      13.408  13.637  21.667  0.00  0.00    -0.191 NA
ATOM     25  C   UNL     1      12.834  12.629  21.708  0.00  0.00    +0.099 C 
ENDBRANCH  20  25
ENDBRANCH  13  15
ENDBRANCH   3  13
ENDBRANCH  14   9
TORSDOF 8
ENDMDL
MODEL 7
REMARK VINA RESULT:      -6.2     22.872     25.479
REMARK  Name = 45783374
REMARK  9 active torsions:
REMARK  status: ('A' for Active; 'I' for Inactive)
REMARK    1  A    between atoms: O_2  and  C_29
REMARK    2  A    between atoms: O_2  and  C_30
REMARK    3  A    between atoms: N_3  and  C_13
REMARK    4  A    between atoms: N_6  and  C_26
REMARK    5  A    between atoms: C_9  and  C_14
REMARK    6  A    between atoms: C_13  and  C_15
REMARK    7  A    between atoms: C_18  and  C_19
REMARK    8  A    between atoms: C_20  and  C_25
REMARK    9  A    between atoms: C_26  and  C_29
REMARK                            x       y       z     vdW  Elec       q    Type
REMARK                         _______ _______ _______ _____ _____    ______ ____
ROOT
ATOM      1  O   UNL     1      -7.280 -10.606  11.542  0.00  0.00    -0.336 OA
ATOM      4  N   UNL     1      -5.810  -9.167  12.427  0.00  0.00    -0.190 NA
ATOM      5  N   UNL     1      -7.041 -11.048  12.849  0.00  0.00    -0.056 NA
ATOM     14  C   UNL     1      -6.517  -9.494  11.374  0.00  0.00    +0.245 A 
ATOM     18  C   UNL     1      -6.163 -10.149  13.305  0.00  0.00    +0.205 A 
ENDROOT
BRANCH  18  19
ATOM      6  N   UNL     1      -7.687  -9.401  15.583  0.00  0.00    -0.326 N 
ATOM      7  N   UNL     1      -5.867  -9.883  17.016  0.00  0.00    -0.240 NA
ATOM     19  C   UNL     1      -5.622 -10.203  14.632  0.00  0.00    +0.062 A 
ATOM     23  C   UNL     1      -6.350  -9.843  15.754  0.00  0.00    +0.130 A 
ATOM     24  C   UNL     1      -4.312 -10.634  14.817  0.00  0.00    +0.016 A 
ATOM     27  C   UNL     1      -3.779 -10.690  16.099  0.00  0.00    +0.020 A 
ATOM     28  C   UNL     1      -4.590 -10.307  17.156  0.00  0.00    +0.113 A 
ATOM     31  H   UNL     1      -8.152  -9.704  14.734  0.00  0.00    +0.148 HD
BRANCH   6  26
ATOM     26  C   UNL     1      -8.513  -9.009  16.677  0.00  0.00    +0.131 C 
BRANCH  26  29
ATOM     29  C   UNL     1      -9.869  -8.550  16.166  0.00  0.00    +0.178 C 
BRANCH  29   2
ATOM      2  O   UNL     1      -9.802  -7.173  15.819  0.00  0.00    -0.381 OA
ATOM     30  C   UNL     1     -10.995  -6.488  16.172  0.00  0.00    +0.194 C 
ENDBRANCH  29   2
ENDBRANCH  26  29
ENDBRANCH   6  26
ENDBRANCH  18  19
BRANCH  14   9
ATOM      3  N   UNL     1      -5.929  -9.589   8.959  0.00  0.00    -0.287 NA
ATOM      9  C   UNL     1      -6.599  -8.816  10.023  0.00  0.00    +0.146 C 
ATOM     10  C   UNL     1      -8.048  -8.646   9.530  0.00  0.00    +0.030 C 
ATOM     11  C   UNL     1      -8.080  -9.301   8.157  0.00  0.00    +0.017 C 
ATOM     12  C   UNL     1      -6.631  -9.273   7.714  0.00  0.00    +0.085 C 
BRANCH   3  13
ATOM     13  C   UNL     1      -4.500  -9.319   8.866  0.00  0.00    +0.120 C 
BRANCH  13  15
ATOM     15  C   UNL     1      -3.719 -10.057   9.920  0.00  0.00    -0.032 A 
ATOM     16  C   UNL     1      -3.967 -11.409  10.156  0.00  0.00    +0.023 A 
ATOM     17  C   UNL     1      -2.744  -9.388  10.660  0.00  0.00    +0.005 A 
ATOM     20  C   UNL     1      -3.242 -12.092  11.130  0.00  0.00    +0.052 A 
ATOM     21  C   UNL     1      -2.018 -10.071  11.635  0.00  0.00    +0.002 A 
ATOM     22  C   UNL     1      -2.267 -11.423  11.871  0.00  0.00    +0.019 A 
BRANCH  20  25
ATOM      8  N   UNL     1      -3.701 -14.603  11.569  0.00  0.00    -0.191 NA
ATOM     25  C   UNL     1      -3.496 -13.478  11.372  0.00  0.00    +0.099 C 
ENDBRANCH  20  25
ENDBRANCH  13  15
ENDBRANCH   3  13
ENDBRANCH  14   9
TORSDOF 8
ENDMDL
MODEL 8
REMARK VINA RESULT:      -6.1     16.728     20.971
REMARK  Name = 45783374
REMARK  9 active torsions:
REMARK  status: ('A' for Active; 'I' for Inactive)
REMARK    1  A    between atoms: O_2  and  C_29
REMARK    2  A    between atoms: O_2  and  C_30
REMARK    3  A    between atoms: N_3  and  C_13
REMARK    4  A    between atoms: N_6  and  C_26
REMARK    5  A    between atoms: C_9  and  C_14
REMARK    6  A    between atoms: C_13  and  C_15
REMARK    7  A    between atoms: C_18  and  C_19
REMARK    8  A    between atoms: C_20  and  C_25
REMARK    9  A    between atoms: C_26  and  C_29
REMARK                            x       y       z     vdW  Elec       q    Type
REMARK                         _______ _______ _______ _____ _____    ______ ____
ROOT
ATOM      1  O   UNL     1      16.996   7.235  21.303  0.00  0.00    -0.336 OA
ATOM      4  N   UNL     1      16.181   9.061  20.295  0.00  0.00    -0.190 NA
ATOM      5  N   UNL     1      15.873   6.813  20.580  0.00  0.00    -0.056 NA
ATOM     14  C   UNL     1      17.106   8.571  21.081  0.00  0.00    +0.245 A 
ATOM     18  C   UNL     1      15.448   7.946  20.014  0.00  0.00    +0.205 A 
ENDROOT
BRANCH  18  19
ATOM      6  N   UNL     1      12.833   7.423  20.993  0.00  0.00    -0.326 N 
ATOM      7  N   UNL     1      11.907   7.787  18.846  0.00  0.00    -0.240 NA
ATOM     19  C   UNL     1      14.295   7.998  19.163  0.00  0.00    +0.062 A 
ATOM     23  C   UNL     1      13.012   7.746  19.623  0.00  0.00    +0.130 A 
ATOM     24  C   UNL     1      14.453   8.312  17.817  0.00  0.00    +0.016 A 
ATOM     27  C   UNL     1      13.340   8.365  16.986  0.00  0.00    +0.020 A 
ATOM     28  C   UNL     1      12.100   8.096  17.543  0.00  0.00    +0.113 A 
ATOM     31  H   UNL     1      13.561   7.737  21.624  0.00  0.00    +0.148 HD
BRANCH   6  26
ATOM     26  C   UNL     1      11.553   7.148  21.556  0.00  0.00    +0.131 C 
BRANCH  26  29
ATOM     29  C   UNL     1      11.169   8.246  22.535  0.00  0.00    +0.178 C 
BRANCH  29   2
ATOM      2  O   UNL     1      10.517   9.297  21.835  0.00  0.00    -0.381 OA
ATOM     30  C   UNL     1      11.279  10.496  21.865  0.00  0.00    +0.194 C 
ENDBRANCH  29   2
ENDBRANCH  26  29
ENDBRANCH   6  26
ENDBRANCH  18  19
BRANCH  14   9
ATOM      3  N   UNL     1      19.535   8.546  21.617  0.00  0.00    -0.287 NA
ATOM      9  C   UNL     1      18.261   9.275  21.762  0.00  0.00    +0.146 C 
ATOM     10  C   UNL     1      18.539  10.670  21.171  0.00  0.00    +0.030 C 
ATOM     11  C   UNL     1      20.008  10.649  20.777  0.00  0.00    +0.017 C 
ATOM     12  C   UNL     1      20.595   9.555  21.646  0.00  0.00    +0.085 C 
BRANCH   3  13
ATOM     13  C   UNL     1      19.728   7.519  22.633  0.00  0.00    +0.120 C 
BRANCH  13  15
ATOM     15  C   UNL     1      20.365   6.279  22.065  0.00  0.00    -0.032 A 
ATOM     16  C   UNL     1      21.275   5.548  22.827  0.00  0.00    +0.023 A 
ATOM     17  C   UNL     1      20.042   5.861  20.774  0.00  0.00    +0.005 A 
ATOM     20  C   UNL     1      21.863   4.399  22.300  0.00  0.00    +0.052 A 
ATOM     21  C   UNL     1      20.629   4.711  20.247  0.00  0.00    +0.002 A 
ATOM     22  C   UNL     1      21.540   3.980  21.010  0.00  0.00    +0.019 A 
BRANCH  20  25
ATOM      8  N   UNL     1      23.553   3.039  23.716  0.00  0.00    -0.191 NA
ATOM     25  C   UNL     1      22.795   3.649  23.081  0.00  0.00    +0.099 C 
ENDBRANCH  20  25
ENDBRANCH  13  15
ENDBRANCH   3  13
ENDBRANCH  14   9
TORSDOF 8
ENDMDL
MODEL 9
REMARK VINA RESULT:      -6.1     17.957     20.950
REMARK  Name = 45783374
REMARK  9 active torsions:
REMARK  status: ('A' for Active; 'I' for Inactive)
REMARK    1  A    between atoms: O_2  and  C_29
REMARK    2  A    between atoms: O_2  and  C_30
REMARK    3  A    between atoms: N_3  and  C_13
REMARK    4  A    between atoms: N_6  and  C_26
REMARK    5  A    between atoms: C_9  and  C_14
REMARK    6  A    between atoms: C_13  and  C_15
REMARK    7  A    between atoms: C_18  and  C_19
REMARK    8  A    between atoms: C_20  and  C_25
REMARK    9  A    between atoms: C_26  and  C_29
REMARK                            x       y       z     vdW  Elec       q    Type
REMARK                         _______ _______ _______ _____ _____    ______ ____
ROOT
ATOM      1  O   UNL     1      15.309  11.105  20.794  0.00  0.00    -0.336 OA
ATOM      4  N   UNL     1      14.968   9.581  22.399  0.00  0.00    -0.190 NA
ATOM      5  N   UNL     1      14.006  10.624  20.604  0.00  0.00    -0.056 NA
ATOM     14  C   UNL     1      15.803  10.439  21.870  0.00  0.00    +0.245 A 
ATOM     18  C   UNL     1      13.881   9.729  21.589  0.00  0.00    +0.205 A 
ENDROOT
BRANCH  18  19
ATOM      6  N   UNL     1      11.716  10.714  23.143  0.00  0.00    -0.326 N 
ATOM      7  N   UNL     1      10.476   8.737  22.751  0.00  0.00    -0.240 NA
ATOM     19  C   UNL     1      12.682   8.967  21.790  0.00  0.00    +0.062 A 
ATOM     23  C   UNL     1      11.616   9.432  22.544  0.00  0.00    +0.130 A 
ATOM     24  C   UNL     1      12.569   7.708  21.210  0.00  0.00    +0.016 A 
ATOM     27  C   UNL     1      11.411   6.963  21.400  0.00  0.00    +0.020 A 
ATOM     28  C   UNL     1      10.402   7.517  22.172  0.00  0.00    +0.113 A 
ATOM     31  H   UNL     1      12.370  11.358  22.712  0.00  0.00    +0.148 HD
BRANCH   6  26
ATOM     26  C   UNL     1      10.672  11.274  23.935  0.00  0.00    +0.131 C 
BRANCH  26  29
ATOM     29  C   UNL     1      11.254  12.245  24.950  0.00  0.00    +0.178 C 
BRANCH  29   2
ATOM      2  O   UNL     1      12.322  11.617  25.647  0.00  0.00    -0.381 OA
ATOM     30  C   UNL     1      13.454  12.468  25.742  0.00  0.00    +0.194 C 
ENDBRANCH  29   2
ENDBRANCH  26  29
ENDBRANCH   6  26
ENDBRANCH  18  19
BRANCH  14   9
ATOM      3  N   UNL     1      18.234  10.113  21.454  0.00  0.00    -0.287 NA
ATOM      9  C   UNL     1      17.217  10.785  22.286  0.00  0.00    +0.146 C 
ATOM     10  C   UNL     1      17.528  12.287  22.147  0.00  0.00    +0.030 C 
ATOM     11  C   UNL     1      18.769  12.357  21.270  0.00  0.00    +0.017 C 
ATOM     12  C   UNL     1      19.404  10.992  21.441  0.00  0.00    +0.085 C 
BRANCH   3  13
ATOM     13  C   UNL     1      18.561   8.771  21.918  0.00  0.00    +0.120 C 
BRANCH  13  15
ATOM     15  C   UNL     1      18.105   7.715  20.947  0.00  0.00    -0.032 A 
ATOM     16  C   UNL     1      16.889   7.857  20.279  0.00  0.00    +0.023 A 
ATOM     17  C   UNL     1      18.901   6.593  20.715  0.00  0.00    +0.005 A 
ATOM     20  C   UNL     1      16.468   6.879  19.379  0.00  0.00    +0.052 A 
ATOM     21  C   UNL     1      18.480   5.615  19.814  0.00  0.00    +0.002 A 
ATOM     22  C   UNL     1      17.263   5.757  19.146  0.00  0.00    +0.019 A 
BRANCH  20  25
ATOM      8  N   UNL     1      14.211   7.143  18.137  0.00  0.00    -0.191 NA
ATOM     25  C   UNL     1      15.223   7.025  18.694  0.00  0.00    +0.099 C 
ENDBRANCH  20  25
ENDBRANCH  13  15
ENDBRANCH   3  13
ENDBRANCH  14   9
TORSDOF 8
ENDMDL
MODEL 10
REMARK VINA RESULT:      -6.0      2.495      4.910
REMARK  Name = 45783374
REMARK  9 active torsions:
REMARK  status: ('A' for Active; 'I' for Inactive)
REMARK    1  A    between atoms: O_2  and  C_29
REMARK    2  A    between atoms: O_2  and  C_30
REMARK    3  A    between atoms: N_3  and  C_13
REMARK    4  A    between atoms: N_6  and  C_26
REMARK    5  A    between atoms: C_9  and  C_14
REMARK    6  A    between atoms: C_13  and  C_15
REMARK    7  A    between atoms: C_18  and  C_19
REMARK    8  A    between atoms: C_20  and  C_25
REMARK    9  A    between atoms: C_26  and  C_29
REMARK                            x       y       z     vdW  Elec       q    Type
REMARK                         _______ _______ _______ _____ _____    ______ ____
ROOT
ATOM      1  O   UNL     1      11.057   3.729   2.963  0.00  0.00    -0.336 OA
ATOM      4  N   UNL     1      11.363   5.927   3.259  0.00  0.00    -0.190 NA
ATOM      5  N   UNL     1      10.472   4.040   4.197  0.00  0.00    -0.056 NA
ATOM     14  C   UNL     1      11.558   4.895   2.477  0.00  0.00    +0.245 A 
ATOM     18  C   UNL     1      10.695   5.354   4.301  0.00  0.00    +0.205 A 
ENDROOT
BRANCH  18  19
ATOM      6  N   UNL     1      12.526   6.345   6.233  0.00  0.00    -0.326 N 
ATOM      7  N   UNL     1      10.764   7.340   7.460  0.00  0.00    -0.240 NA
ATOM     19  C   UNL     1      10.263   6.122   5.432  0.00  0.00    +0.062 A 
ATOM     23  C   UNL     1      11.142   6.614   6.384  0.00  0.00    +0.130 A 
ATOM     24  C   UNL     1       8.908   6.394   5.596  0.00  0.00    +0.016 A 
ATOM     27  C   UNL     1       8.481   7.138   6.689  0.00  0.00    +0.020 A 
ATOM     28  C   UNL     1       9.440   7.584   7.585  0.00  0.00    +0.113 A 
ATOM     31  H   UNL     1      12.840   6.136   5.292  0.00  0.00    +0.148 HD
BRANCH   6  26
ATOM     26  C   UNL     1      13.504   6.809   7.161  0.00  0.00    +0.131 C 
BRANCH  26  29
ATOM     29  C   UNL     1      14.704   7.369   6.414  0.00  0.00    +0.178 C 
BRANCH  29   2
ATOM      2  O   UNL     1      14.430   7.380   5.019  0.00  0.00    -0.381 OA
ATOM     30  C   UNL     1      15.497   7.962   4.284  0.00  0.00    +0.194 C 
ENDBRANCH  29   2
ENDBRANCH  26  29
ENDBRANCH   6  26
ENDBRANCH  18  19
BRANCH  14   9
ATOM      3  N   UNL     1      12.957   3.546   0.925  0.00  0.00    -0.287 NA
ATOM      9  C   UNL     1      12.250   4.825   1.133  0.00  0.00    +0.146 C 
ATOM     10  C   UNL     1      11.266   4.924  -0.048  0.00  0.00    +0.030 C 
ATOM     11  C   UNL     1      11.537   3.690  -0.896  0.00  0.00    +0.017 C 
ATOM     12  C   UNL     1      12.951   3.300  -0.518  0.00  0.00    +0.085 C 
BRANCH   3  13
ATOM     13  C   UNL     1      14.306   3.539   1.477  0.00  0.00    +0.120 C 
BRANCH  13  15
ATOM     15  C   UNL     1      15.200   4.534   0.786  0.00  0.00    -0.032 A 
ATOM     16  C   UNL     1      16.010   4.128  -0.275  0.00  0.00    +0.023 A 
ATOM     17  C   UNL     1      15.217   5.864   1.207  0.00  0.00    +0.005 A 
ATOM     20  C   UNL     1      16.836   5.050  -0.914  0.00  0.00    +0.052 A 
ATOM     21  C   UNL     1      16.043   6.787   0.566  0.00  0.00    +0.002 A 
ATOM     22  C   UNL     1      16.853   6.380  -0.495  0.00  0.00    +0.019 A 
BRANCH  20  25
ATOM      8  N   UNL     1      18.339   4.297  -2.885  0.00  0.00    -0.191 NA
ATOM     25  C   UNL     1      17.665   4.635  -2.002  0.00  0.00    +0.099 C 
ENDBRANCH  20  25
ENDBRANCH  13  15
ENDBRANCH   3  13
ENDBRANCH  14   9
TORSDOF 8
ENDMDL
