REMARK  Name = 45360619
REMARK  9 active torsions:
REMARK  status: ('A' for Active; 'I' for Inactive)
REMARK    1  A    between atoms: O_6  and  C_35
REMARK    2  A    between atoms: O_6  and  C_38
REMARK    3  A    between atoms: O_7  and  C_36
REMARK    4  A    between atoms: O_7  and  C_37
REMARK    5  A    between atoms: N_13  and  C_24
REMARK    6  A    between atoms: C_15  and  C_20
REMARK    7  A    between atoms: C_23  and  C_25
REMARK    8  A    between atoms: C_32  and  C_36
REMARK    9  A    between atoms: C_37  and  C_39
REMARK                            x       y       z     vdW  Elec       q    Type
REMARK                         _______ _______ _______ _____ _____    ______ ____
ROOT
ATOM      5  O   UNL     1      -2.276   0.238   2.071  0.00  0.00    -0.252 OA
ATOM      9  N   UNL     1      -1.001  -0.984   0.561  0.00  0.00    -0.267 N 
ATOM     10  N   UNL     1       0.224  -3.644  -1.768  0.00  0.00    -0.347 N 
ATOM     11  N   UNL     1       1.106  -4.552   0.073  0.00  0.00    -0.240 NA
ATOM     13  N   UNL     1      -2.977   0.107  -0.140  0.00  0.00    -0.269 N 
ATOM     15  C   UNL     1       0.069  -1.230   1.591  0.00  0.00    +0.172 C 
ATOM     16  C   UNL     1       0.426  -2.742   1.708  0.00  0.00    +0.089 C 
ATOM     17  C   UNL     1      -0.782  -1.505  -0.820  0.00  0.00    +0.165 C 
ATOM     18  C   UNL     1       0.498  -3.365   0.369  0.00  0.00    +0.066 A 
ATOM     19  C   UNL     1      -0.054  -2.787  -0.746  0.00  0.00    +0.056 A 
ATOM     21  C   UNL     1      -2.117  -0.181   0.922  0.00  0.00    +0.307 C 
ATOM     22  C   UNL     1       0.923  -4.693  -1.225  0.00  0.00    +0.197 A 
ATOM     40  H   UNL     1      -0.033  -3.534  -2.740  0.00  0.00    +0.167 HD
ATOM     41  H   UNL     1      -2.583   0.127  -1.076  0.00  0.00    +0.156 HD
ENDROOT
BRANCH  13  24
ATOM     24  C   UNL     1      -4.374   0.334  -0.080  0.00  0.00    +0.035 A 
ATOM     26  C   UNL     1      -5.038   0.280   1.146  0.00  0.00    +0.024 A 
ATOM     27  C   UNL     1      -5.087   0.609  -1.247  0.00  0.00    +0.024 A 
ATOM     30  C   UNL     1      -6.413   0.502   1.205  0.00  0.00    +0.017 A 
ATOM     31  C   UNL     1      -6.463   0.831  -1.188  0.00  0.00    +0.017 A 
ATOM     32  C   UNL     1      -7.126   0.778   0.037  0.00  0.00    +0.059 A 
BRANCH  32  36
ATOM      8  O   UNL     1      -9.230   0.981   1.141  0.00  0.00    -0.245 OA
ATOM     36  C   UNL     1      -8.560   1.009   0.100  0.00  0.00    +0.339 C 
BRANCH  36   7
ATOM      7  O   UNL     1      -9.084   1.263  -1.139  0.00  0.00    -0.461 OA
BRANCH   7  37
ATOM     37  C   UNL     1     -10.493   1.507  -1.208  0.00  0.00    +0.229 C 
ATOM     39  C   UNL     1     -10.878   1.765  -2.649  0.00  0.00    +0.048 C 
ENDBRANCH   7  37
ENDBRANCH  36   7
ENDBRANCH  32  36
ENDBRANCH  13  24
BRANCH  15  20
ATOM      4  O   UNL     1       1.119   0.960   1.950  0.00  0.00    -0.336 OA
ATOM     12  N   UNL     1       2.358  -0.452   0.730  0.00  0.00    -0.190 NA
ATOM     14  N   UNL     1       2.294   1.651   1.628  0.00  0.00    -0.056 NA
ATOM     20  C   UNL     1       1.238  -0.269   1.384  0.00  0.00    +0.249 A 
ATOM     23  C   UNL     1       2.973   0.753   0.908  0.00  0.00    +0.202 A 
BRANCH  23  25
ATOM     25  C   UNL     1       4.267   1.027   0.355  0.00  0.00    +0.023 A 
ATOM     28  C   UNL     1       4.930   0.050  -0.388  0.00  0.00    +0.015 A 
ATOM     29  C   UNL     1       4.864   2.271   0.560  0.00  0.00    +0.015 A 
ATOM     33  C   UNL     1       6.189   0.317  -0.925  0.00  0.00    +0.046 A 
ATOM     34  C   UNL     1       6.123   2.538   0.023  0.00  0.00    +0.046 A 
ATOM     35  C   UNL     1       6.786   1.561  -0.719  0.00  0.00    +0.130 A 
BRANCH  35   6
ATOM      6  O   UNL     1       8.015   1.822  -1.243  0.00  0.00    -0.406 OA
BRANCH   6  38
ATOM      1  F   UNL     1      10.238   1.743  -0.858  0.00  0.00    -0.133 F 
ATOM      2  F   UNL     1       8.931   0.539   0.414  0.00  0.00    -0.133 F 
ATOM      3  F   UNL     1       9.276  -0.033  -1.692  0.00  0.00    -0.133 F 
ATOM     38  C   UNL     1       9.107   1.002  -0.842  0.00  0.00    +0.575 C 
ENDBRANCH   6  38
ENDBRANCH  35   6
ENDBRANCH  23  25
ENDBRANCH  15  20
TORSDOF 8
