MODEL 1
REMARK VINA RESULT:      -6.7      0.000      0.000
REMARK  Name = 11912130
REMARK  6 active torsions:
REMARK  status: ('A' for Active; 'I' for Inactive)
REMARK    1  A    between atoms: N_5  and  C_16
REMARK    2  A    between atoms: C_9  and  C_12
REMARK    3  A    between atoms: C_12  and  C_16
REMARK    4  A    between atoms: C_16  and  C_20
REMARK    5  A    between atoms: C_17  and  C_19
REMARK    6  A    between atoms: C_23  and  C_24
REMARK                            x       y       z     vdW  Elec       q    Type
REMARK                         _______ _______ _______ _____ _____    ______ ____
ROOT
ATOM      2  O   UNL     1      12.768  11.017  19.500  0.00  0.00    -0.274 OA
ATOM      5  N   UNL     1      12.359   9.750  21.410  0.00  0.00    -0.302 N 
ATOM     19  C   UNL     1      12.538   9.942  20.048  0.00  0.00    +0.235 C 
ATOM     28  H   UNL     1      12.292   8.802  21.768  0.00  0.00    +0.150 HD
ENDROOT
BRANCH  19  17
ATOM      4  O   UNL     1      13.640   6.809  20.997  0.00  0.00    -0.269 OA
ATOM      6  N   UNL     1      13.821   8.169  19.127  0.00  0.00    -0.283 N 
ATOM      7  N   UNL     1      12.546   9.557  16.951  0.00  0.00    -0.312 NA
ATOM     17  C   UNL     1      12.446   8.659  19.272  0.00  0.00    +0.176 C 
ATOM     18  C   UNL     1      11.727   8.849  17.936  0.00  0.00    +0.113 C 
ATOM     21  C   UNL     1      14.608   8.758  18.031  0.00  0.00    +0.124 C 
ATOM     22  C   UNL     1      13.808   8.853  16.737  0.00  0.00    +0.100 C 
ATOM     23  C   UNL     1      14.336   7.279  20.095  0.00  0.00    +0.254 C 
ATOM     29  H   UNL     1      12.741  10.498  17.294  0.00  0.00    +0.122 HD
BRANCH  23  24
ATOM      1  S   UNL     1      16.856   7.590  21.117  0.00  0.00    -0.092 S 
ATOM     24  C   UNL     1      15.748   6.921  19.997  0.00  0.00    +0.074 A 
ATOM     25  C   UNL     1      16.367   6.083  19.094  0.00  0.00    +0.021 A 
ATOM     26  C   UNL     1      17.769   5.989  19.327  0.00  0.00    +0.008 A 
ATOM     27  C   UNL     1      18.169   6.759  20.397  0.00  0.00    +0.046 A 
ENDBRANCH  23  24
ENDBRANCH  19  17
BRANCH   5  16
ATOM     16  C   UNL     1      12.422  10.817  22.375  0.00  0.00    +0.159 C 
BRANCH  16  20
ATOM      3  O   UNL     1      14.469  12.044  22.837  0.00  0.00    -0.274 OA
ATOM      8  N   UNL     1      14.439   9.780  23.218  0.00  0.00    -0.328 N 
ATOM     20  C   UNL     1      13.866  10.974  22.835  0.00  0.00    +0.231 C 
ATOM     30  H   UNL     1      15.402   9.745  23.538  0.00  0.00    +0.145 HD
ATOM     31  H   UNL     1      13.937   8.898  23.193  0.00  0.00    +0.145 HD
ENDBRANCH  16  20
BRANCH  16  12
ATOM     12  C   UNL     1      11.447  10.608  23.536  0.00  0.00    +0.035 C 
BRANCH  12   9
ATOM      9  C   UNL     1      10.702  11.871  23.960  0.00  0.00    -0.009 C 
ATOM     10  C   UNL     1      10.802  12.951  22.872  0.00  0.00    +0.003 C 
ATOM     11  C   UNL     1      11.240  12.395  25.299  0.00  0.00    +0.003 C 
ATOM     13  C   UNL     1      10.110  14.244  23.297  0.00  0.00    +0.000 C 
ATOM     14  C   UNL     1      10.547  13.689  25.719  0.00  0.00    +0.000 C 
ATOM     15  C   UNL     1      10.641  14.756  24.632  0.00  0.00    +0.000 C 
ENDBRANCH  12   9
ENDBRANCH  16  12
ENDBRANCH   5  16
TORSDOF 6
ENDMDL
MODEL 2
REMARK VINA RESULT:      -6.6      2.610      7.211
REMARK  Name = 11912130
REMARK  6 active torsions:
REMARK  status: ('A' for Active; 'I' for Inactive)
REMARK    1  A    between atoms: N_5  and  C_16
REMARK    2  A    between atoms: C_9  and  C_12
REMARK    3  A    between atoms: C_12  and  C_16
REMARK    4  A    between atoms: C_16  and  C_20
REMARK    5  A    between atoms: C_17  and  C_19
REMARK    6  A    between atoms: C_23  and  C_24
REMARK                            x       y       z     vdW  Elec       q    Type
REMARK                         _______ _______ _______ _____ _____    ______ ____
ROOT
ATOM      2  O   UNL     1      15.502   9.583  19.803  0.00  0.00    -0.274 OA
ATOM      5  N   UNL     1      15.376   7.277  19.508  0.00  0.00    -0.302 N 
ATOM     19  C   UNL     1      14.852   8.555  19.634  0.00  0.00    +0.235 C 
ATOM     28  H   UNL     1      14.756   6.514  19.252  0.00  0.00    +0.150 HD
ENDROOT
BRANCH  19  17
ATOM      4  O   UNL     1      12.724  11.238  20.091  0.00  0.00    -0.269 OA
ATOM      6  N   UNL     1      12.846   9.036  20.809  0.00  0.00    -0.283 N 
ATOM      7  N   UNL     1      12.844   6.228  20.174  0.00  0.00    -0.312 NA
ATOM     17  C   UNL     1      13.355   8.574  19.513  0.00  0.00    +0.176 C 
ATOM     18  C   UNL     1      12.797   7.214  19.094  0.00  0.00    +0.113 C 
ATOM     21  C   UNL     1      12.733   8.015  21.864  0.00  0.00    +0.124 C 
ATOM     22  C   UNL     1      12.120   6.720  21.344  0.00  0.00    +0.100 C 
ATOM     23  C   UNL     1      12.618  10.416  21.003  0.00  0.00    +0.254 C 
ATOM     29  H   UNL     1      13.818   6.059  20.430  0.00  0.00    +0.122 HD
BRANCH  23  24
ATOM      1  S   UNL     1      13.454  11.482  23.382  0.00  0.00    -0.092 S 
ATOM     24  C   UNL     1      12.245  10.855  22.344  0.00  0.00    +0.074 A 
ATOM     25  C   UNL     1      11.004  10.844  22.944  0.00  0.00    +0.021 A 
ATOM     26  C   UNL     1      11.047  11.358  24.272  0.00  0.00    +0.008 A 
ATOM     27  C   UNL     1      12.319  11.742  24.637  0.00  0.00    +0.046 A 
ENDBRANCH  23  24
ENDBRANCH  19  17
BRANCH   5  16
ATOM     16  C   UNL     1      16.786   6.991  19.565  0.00  0.00    +0.159 C 
BRANCH  16  20
ATOM      3  O   UNL     1      16.366   5.517  17.679  0.00  0.00    -0.274 OA
ATOM      8  N   UNL     1      18.235   5.148  18.963  0.00  0.00    -0.328 N 
ATOM     20  C   UNL     1      17.086   5.832  18.623  0.00  0.00    +0.231 C 
ATOM     30  H   UNL     1      18.543   4.348  18.420  0.00  0.00    +0.145 HD
ATOM     31  H   UNL     1      18.810   5.406  19.758  0.00  0.00    +0.145 HD
ENDBRANCH  16  20
BRANCH  16  12
ATOM     12  C   UNL     1      17.270   6.736  20.994  0.00  0.00    +0.035 C 
BRANCH  12   9
ATOM      9  C   UNL     1      18.547   7.487  21.364  0.00  0.00    -0.009 C 
ATOM     10  C   UNL     1      19.380   6.678  22.368  0.00  0.00    +0.003 C 
ATOM     11  C   UNL     1      18.216   8.878  21.924  0.00  0.00    +0.003 C 
ATOM     13  C   UNL     1      20.637   7.432  22.795  0.00  0.00    +0.000 C 
ATOM     14  C   UNL     1      19.476   9.628  22.351  0.00  0.00    +0.000 C 
ATOM     15  C   UNL     1      20.305   8.817  23.342  0.00  0.00    +0.000 C 
ENDBRANCH  12   9
ENDBRANCH  16  12
ENDBRANCH   5  16
TORSDOF 6
ENDMDL
MODEL 3
REMARK VINA RESULT:      -6.1      2.692      6.253
REMARK  Name = 11912130
REMARK  6 active torsions:
REMARK  status: ('A' for Active; 'I' for Inactive)
REMARK    1  A    between atoms: N_5  and  C_16
REMARK    2  A    between atoms: C_9  and  C_12
REMARK    3  A    between atoms: C_12  and  C_16
REMARK    4  A    between atoms: C_16  and  C_20
REMARK    5  A    between atoms: C_17  and  C_19
REMARK    6  A    between atoms: C_23  and  C_24
REMARK                            x       y       z     vdW  Elec       q    Type
REMARK                         _______ _______ _______ _____ _____    ______ ____
ROOT
ATOM      2  O   UNL     1      10.927   8.578  23.037  0.00  0.00    -0.274 OA
ATOM      5  N   UNL     1      12.535   8.946  21.393  0.00  0.00    -0.302 N 
ATOM     19  C   UNL     1      11.602   9.334  22.344  0.00  0.00    +0.235 C 
ATOM     28  H   UNL     1      13.122   9.653  20.962  0.00  0.00    +0.150 HD
ENDROOT
BRANCH  19  17
ATOM      4  O   UNL     1      12.576  11.727  20.052  0.00  0.00    -0.269 OA
ATOM      6  N   UNL     1      12.872  11.340  22.319  0.00  0.00    -0.283 N 
ATOM      7  N   UNL     1      11.728  11.054  24.946  0.00  0.00    -0.312 NA
ATOM     17  C   UNL     1      11.507  10.827  22.475  0.00  0.00    +0.176 C 
ATOM     18  C   UNL     1      10.849  11.246  23.791  0.00  0.00    +0.113 C 
ATOM     21  C   UNL     1      13.720  11.304  23.522  0.00  0.00    +0.124 C 
ATOM     22  C   UNL     1      12.977  11.788  24.762  0.00  0.00    +0.100 C 
ATOM     23  C   UNL     1      13.321  11.712  21.033  0.00  0.00    +0.254 C 
ATOM     29  H   UNL     1      11.935  10.060  25.045  0.00  0.00    +0.122 HD
BRANCH  23  24
ATOM      1  S   UNL     1      15.173  13.728  21.077  0.00  0.00    -0.092 S 
ATOM     24  C   UNL     1      14.725  12.086  20.892  0.00  0.00    +0.074 A 
ATOM     25  C   UNL     1      15.810  11.282  20.618  0.00  0.00    +0.021 A 
ATOM     26  C   UNL     1      17.025  12.025  20.559  0.00  0.00    +0.008 A 
ATOM     27  C   UNL     1      16.822  13.367  20.791  0.00  0.00    +0.046 A 
ENDBRANCH  23  24
ENDBRANCH  19  17
BRANCH   5  16
ATOM     16  C   UNL     1      12.832   7.569  21.092  0.00  0.00    +0.159 C 
BRANCH  16  20
ATOM      3  O   UNL     1      14.864   7.948  22.369  0.00  0.00    -0.274 OA
ATOM      8  N   UNL     1      14.793   6.161  20.927  0.00  0.00    -0.328 N 
ATOM     20  C   UNL     1      14.251   7.265  21.552  0.00  0.00    +0.231 C 
ATOM     30  H   UNL     1      15.738   5.857  21.138  0.00  0.00    +0.145 HD
ATOM     31  H   UNL     1      14.284   5.618  20.238  0.00  0.00    +0.145 HD
ENDBRANCH  16  20
BRANCH  16  12
ATOM     12  C   UNL     1      12.599   7.234  19.617  0.00  0.00    +0.035 C 
BRANCH  12   9
ATOM      9  C   UNL     1      12.716   8.434  18.680  0.00  0.00    -0.009 C 
ATOM     10  C   UNL     1      11.883   8.212  17.409  0.00  0.00    +0.003 C 
ATOM     11  C   UNL     1      14.185   8.708  18.329  0.00  0.00    +0.003 C 
ATOM     13  C   UNL     1      12.027   9.375  16.431  0.00  0.00    +0.000 C 
ATOM     14  C   UNL     1      14.324   9.871  17.350  0.00  0.00    +0.000 C 
ATOM     15  C   UNL     1      13.488   9.651  16.092  0.00  0.00    +0.000 C 
ENDBRANCH  12   9
ENDBRANCH  16  12
ENDBRANCH   5  16
TORSDOF 6
ENDMDL
MODEL 4
REMARK VINA RESULT:      -6.0      2.276      3.416
REMARK  Name = 11912130
REMARK  6 active torsions:
REMARK  status: ('A' for Active; 'I' for Inactive)
REMARK    1  A    between atoms: N_5  and  C_16
REMARK    2  A    between atoms: C_9  and  C_12
REMARK    3  A    between atoms: C_12  and  C_16
REMARK    4  A    between atoms: C_16  and  C_20
REMARK    5  A    between atoms: C_17  and  C_19
REMARK    6  A    between atoms: C_23  and  C_24
REMARK                            x       y       z     vdW  Elec       q    Type
REMARK                         _______ _______ _______ _____ _____    ______ ____
ROOT
ATOM      2  O   UNL     1      14.251  11.147  21.251  0.00  0.00    -0.274 OA
ATOM      5  N   UNL     1      13.257  10.498  23.254  0.00  0.00    -0.302 N 
ATOM     19  C   UNL     1      13.710  10.301  21.957  0.00  0.00    +0.235 C 
ATOM     28  H   UNL     1      12.932   9.698  23.788  0.00  0.00    +0.150 HD
ENDROOT
BRANCH  19  17
ATOM      4  O   UNL     1      15.625   8.500  19.717  0.00  0.00    -0.269 OA
ATOM      6  N   UNL     1      13.374   8.967  20.022  0.00  0.00    -0.283 N 
ATOM      7  N   UNL     1      11.009   8.766  21.653  0.00  0.00    -0.312 NA
ATOM     17  C   UNL     1      13.491   8.893  21.483  0.00  0.00    +0.176 C 
ATOM     18  C   UNL     1      12.281   8.243  22.155  0.00  0.00    +0.113 C 
ATOM     21  C   UNL     1      12.049   9.333  19.495  0.00  0.00    +0.124 C 
ATOM     22  C   UNL     1      10.923   8.590  20.205  0.00  0.00    +0.100 C 
ATOM     23  C   UNL     1      14.534   8.808  19.233  0.00  0.00    +0.254 C 
ATOM     29  H   UNL     1      10.947   9.760  21.874  0.00  0.00    +0.122 HD
BRANCH  23  24
ATOM      1  S   UNL     1      14.584  10.609  17.172  0.00  0.00    -0.092 S 
ATOM     24  C   UNL     1      14.405   9.024  17.795  0.00  0.00    +0.074 A 
ATOM     25  C   UNL     1      14.147   8.104  16.803  0.00  0.00    +0.021 A 
ATOM     26  C   UNL     1      14.097   8.709  15.514  0.00  0.00    +0.008 A 
ATOM     27  C   UNL     1      14.317  10.068  15.570  0.00  0.00    +0.046 A 
ENDBRANCH  23  24
ENDBRANCH  19  17
BRANCH   5  16
ATOM     16  C   UNL     1      13.370  11.755  23.948  0.00  0.00    +0.159 C 
BRANCH  16  20
ATOM      3  O   UNL     1      15.620  12.095  24.800  0.00  0.00    -0.274 OA
ATOM      8  N   UNL     1      14.114  10.958  26.109  0.00  0.00    -0.328 N 
ATOM     20  C   UNL     1      14.490  11.646  24.975  0.00  0.00    +0.231 C 
ATOM     30  H   UNL     1      14.771  10.808  26.867  0.00  0.00    +0.145 HD
ATOM     31  H   UNL     1      13.182  10.574  26.232  0.00  0.00    +0.145 HD
ENDBRANCH  16  20
BRANCH  16  12
ATOM     12  C   UNL     1      12.040  12.198  24.564  0.00  0.00    +0.035 C 
BRANCH  12   9
ATOM      9  C   UNL     1      11.408  13.407  23.879  0.00  0.00    -0.009 C 
ATOM     10  C   UNL     1      10.363  14.063  24.793  0.00  0.00    +0.003 C 
ATOM     11  C   UNL     1      10.781  13.003  22.537  0.00  0.00    +0.003 C 
ATOM     13  C   UNL     1       9.677  15.243  24.109  0.00  0.00    +0.000 C 
ATOM     14  C   UNL     1      10.095  14.185  21.856  0.00  0.00    +0.000 C 
ATOM     15  C   UNL     1       9.064  14.840  22.771  0.00  0.00    +0.000 C 
ENDBRANCH  12   9
ENDBRANCH  16  12
ENDBRANCH   5  16
TORSDOF 6
ENDMDL
MODEL 5
REMARK VINA RESULT:      -6.0     27.203     29.624
REMARK  Name = 11912130
REMARK  6 active torsions:
REMARK  status: ('A' for Active; 'I' for Inactive)
REMARK    1  A    between atoms: N_5  and  C_16
REMARK    2  A    between atoms: C_9  and  C_12
REMARK    3  A    between atoms: C_12  and  C_16
REMARK    4  A    between atoms: C_16  and  C_20
REMARK    5  A    between atoms: C_17  and  C_19
REMARK    6  A    between atoms: C_23  and  C_24
REMARK                            x       y       z     vdW  Elec       q    Type
REMARK                         _______ _______ _______ _____ _____    ______ ____
ROOT
ATOM      2  O   UNL     1      -5.003 -12.400  17.456  0.00  0.00    -0.274 OA
ATOM      5  N   UNL     1      -4.521 -10.966  15.686  0.00  0.00    -0.302 N 
ATOM     19  C   UNL     1      -5.166 -11.342  16.855  0.00  0.00    +0.235 C 
ATOM     28  H   UNL     1      -4.643 -10.020  15.338  0.00  0.00    +0.150 HD
ENDROOT
BRANCH  19  17
ATOM      4  O   UNL     1      -6.472 -10.999  20.035  0.00  0.00    -0.269 OA
ATOM      6  N   UNL     1      -7.286 -10.987  17.863  0.00  0.00    -0.283 N 
ATOM      7  N   UNL     1      -7.337  -9.775  15.251  0.00  0.00    -0.312 NA
ATOM     17  C   UNL     1      -6.104 -10.281  17.356  0.00  0.00    +0.176 C 
ATOM     18  C   UNL     1      -6.432  -9.250  16.275  0.00  0.00    +0.113 C 
ATOM     21  C   UNL     1      -8.289 -11.379  16.859  0.00  0.00    +0.124 C 
ATOM     22  C   UNL     1      -8.573 -10.259  15.864  0.00  0.00    +0.100 C 
ATOM     23  C   UNL     1      -7.335 -11.349  19.227  0.00  0.00    +0.254 C 
ATOM     29  H   UNL     1      -6.880 -10.547  14.766  0.00  0.00    +0.122 HD
BRANCH  23  24
ATOM      1  S   UNL     1      -9.963 -11.417  19.990  0.00  0.00    -0.092 S 
ATOM     24  C   UNL     1      -8.459 -12.170  19.666  0.00  0.00    +0.074 A 
ATOM     25  C   UNL     1      -8.507 -13.531  19.874  0.00  0.00    +0.021 A 
ATOM     26  C   UNL     1      -9.795 -13.962  20.304  0.00  0.00    +0.008 A 
ATOM     27  C   UNL     1     -10.683 -12.913  20.409  0.00  0.00    +0.046 A 
ENDBRANCH  23  24
ENDBRANCH  19  17
BRANCH   5  16
ATOM     16  C   UNL     1      -3.554 -11.797  15.014  0.00  0.00    +0.159 C 
BRANCH  16  20
ATOM      3  O   UNL     1      -1.124 -11.806  14.971  0.00  0.00    -0.274 OA
ATOM      8  N   UNL     1      -2.197  -9.973  15.845  0.00  0.00    -0.328 N 
ATOM     20  C   UNL     1      -2.166 -11.217  15.251  0.00  0.00    +0.231 C 
ATOM     30  H   UNL     1      -1.338  -9.481  16.065  0.00  0.00    +0.145 HD
ATOM     31  H   UNL     1      -3.064  -9.506  16.090  0.00  0.00    +0.145 HD
ENDBRANCH  16  20
BRANCH  16  12
ATOM     12  C   UNL     1      -3.877 -11.979  13.529  0.00  0.00    +0.035 C 
BRANCH  12   9
ATOM      9  C   UNL     1      -3.746 -10.702  12.702  0.00  0.00    -0.009 C 
ATOM     10  C   UNL     1      -5.079 -10.356  12.024  0.00  0.00    +0.003 C 
ATOM     11  C   UNL     1      -2.625 -10.843  11.662  0.00  0.00    +0.003 C 
ATOM     13  C   UNL     1      -4.959  -9.112  11.146  0.00  0.00    +0.000 C 
ATOM     14  C   UNL     1      -2.509  -9.598  10.786  0.00  0.00    +0.000 C 
ATOM     15  C   UNL     1      -3.838  -9.252  10.121  0.00  0.00    +0.000 C 
ENDBRANCH  12   9
ENDBRANCH  16  12
ENDBRANCH   5  16
TORSDOF 6
ENDMDL
MODEL 6
REMARK VINA RESULT:      -5.8     26.885     29.390
REMARK  Name = 11912130
REMARK  6 active torsions:
REMARK  status: ('A' for Active; 'I' for Inactive)
REMARK    1  A    between atoms: N_5  and  C_16
REMARK    2  A    between atoms: C_9  and  C_12
REMARK    3  A    between atoms: C_12  and  C_16
REMARK    4  A    between atoms: C_16  and  C_20
REMARK    5  A    between atoms: C_17  and  C_19
REMARK    6  A    between atoms: C_23  and  C_24
REMARK                            x       y       z     vdW  Elec       q    Type
REMARK                         _______ _______ _______ _____ _____    ______ ____
ROOT
ATOM      2  O   UNL     1      -5.105 -12.329  14.344  0.00  0.00    -0.274 OA
ATOM      5  N   UNL     1      -3.831 -10.379  14.332  0.00  0.00    -0.302 N 
ATOM     19  C   UNL     1      -5.009 -11.107  14.423  0.00  0.00    +0.235 C 
ATOM     28  H   UNL     1      -3.851  -9.383  14.530  0.00  0.00    +0.150 HD
ENDROOT
BRANCH  19  17
ATOM      4  O   UNL     1      -5.991  -9.632  17.389  0.00  0.00    -0.269 OA
ATOM      6  N   UNL     1      -6.989 -10.890  15.715  0.00  0.00    -0.283 N 
ATOM      7  N   UNL     1      -7.762 -11.157  12.954  0.00  0.00    -0.312 NA
ATOM     17  C   UNL     1      -6.205 -10.231  14.664  0.00  0.00    +0.176 C 
ATOM     18  C   UNL     1      -7.000  -9.982  13.382  0.00  0.00    +0.113 C 
ATOM     21  C   UNL     1      -7.887 -11.969  15.274  0.00  0.00    +0.124 C 
ATOM     22  C   UNL     1      -8.664 -11.593  14.018  0.00  0.00    +0.100 C 
ATOM     23  C   UNL     1      -6.752 -10.544  17.064  0.00  0.00    +0.254 C 
ATOM     29  H   UNL     1      -7.113 -11.913  12.734  0.00  0.00    +0.122 HD
BRANCH  23  24
ATOM      1  S   UNL     1      -8.999 -10.804  18.606  0.00  0.00    -0.092 S 
ATOM     24  C   UNL     1      -7.450 -11.316  18.088  0.00  0.00    +0.074 A 
ATOM     25  C   UNL     1      -7.036 -12.455  18.744  0.00  0.00    +0.021 A 
ATOM     26  C   UNL     1      -8.004 -12.914  19.682  0.00  0.00    +0.008 A 
ATOM     27  C   UNL     1      -9.121 -12.108  19.709  0.00  0.00    +0.046 A 
ENDBRANCH  23  24
ENDBRANCH  19  17
BRANCH   5  16
ATOM     16  C   UNL     1      -2.541 -10.985  14.125  0.00  0.00    +0.159 C 
BRANCH  16  20
ATOM      3  O   UNL     1      -0.884  -9.374  14.877  0.00  0.00    -0.274 OA
ATOM      8  N   UNL     1      -1.461 -11.093  16.288  0.00  0.00    -0.328 N 
ATOM     20  C   UNL     1      -1.553 -10.378  15.112  0.00  0.00    +0.231 C 
ATOM     30  H   UNL     1      -0.831 -10.798  17.027  0.00  0.00    +0.145 HD
ATOM     31  H   UNL     1      -2.005 -11.932  16.462  0.00  0.00    +0.145 HD
ENDBRANCH  16  20
BRANCH  16  12
ATOM     12  C   UNL     1      -2.074 -10.872  12.671  0.00  0.00    +0.035 C 
BRANCH  12   9
ATOM      9  C   UNL     1      -3.176 -10.478  11.691  0.00  0.00    -0.009 C 
ATOM     10  C   UNL     1      -3.730 -11.717  10.972  0.00  0.00    +0.003 C 
ATOM     11  C   UNL     1      -2.659  -9.445  10.680  0.00  0.00    +0.003 C 
ATOM     13  C   UNL     1      -4.796 -11.342   9.945  0.00  0.00    +0.000 C 
ATOM     14  C   UNL     1      -3.728  -9.075   9.655  0.00  0.00    +0.000 C 
ATOM     15  C   UNL     1      -4.282 -10.308   8.948  0.00  0.00    +0.000 C 
ENDBRANCH  12   9
ENDBRANCH  16  12
ENDBRANCH   5  16
TORSDOF 6
ENDMDL
MODEL 7
REMARK VINA RESULT:      -5.8     27.998     30.271
REMARK  Name = 11912130
REMARK  6 active torsions:
REMARK  status: ('A' for Active; 'I' for Inactive)
REMARK    1  A    between atoms: N_5  and  C_16
REMARK    2  A    between atoms: C_9  and  C_12
REMARK    3  A    between atoms: C_12  and  C_16
REMARK    4  A    between atoms: C_16  and  C_20
REMARK    5  A    between atoms: C_17  and  C_19
REMARK    6  A    between atoms: C_23  and  C_24
REMARK                            x       y       z     vdW  Elec       q    Type
REMARK                         _______ _______ _______ _____ _____    ______ ____
ROOT
ATOM      2  O   UNL     1      -7.004 -10.911  15.597  0.00  0.00    -0.274 OA
ATOM      5  N   UNL     1      -5.848 -10.875  17.619  0.00  0.00    -0.302 N 
ATOM     19  C   UNL     1      -6.904 -10.569  16.773  0.00  0.00    +0.235 C 
ATOM     28  H   UNL     1      -5.924 -10.643  18.604  0.00  0.00    +0.150 HD
ENDROOT
BRANCH  19  17
ATOM      4  O   UNL     1      -7.833 -10.690  20.097  0.00  0.00    -0.269 OA
ATOM      6  N   UNL     1      -8.904 -10.743  18.040  0.00  0.00    -0.283 N 
ATOM      7  N   UNL     1      -9.546  -9.436  15.556  0.00  0.00    -0.312 NA
ATOM     17  C   UNL     1      -7.973  -9.769  17.459  0.00  0.00    +0.176 C 
ATOM     18  C   UNL     1      -8.649  -8.780  16.509  0.00  0.00    +0.113 C 
ATOM     21  C   UNL     1      -9.921 -11.292  17.129  0.00  0.00    +0.124 C 
ATOM     22  C   UNL     1     -10.561 -10.211  16.265  0.00  0.00    +0.100 C 
ATOM     23  C   UNL     1      -8.699 -11.178  19.368  0.00  0.00    +0.254 C 
ATOM     29  H   UNL     1      -9.001 -10.062  14.962  0.00  0.00    +0.122 HD
BRANCH  23  24
ATOM      1  S   UNL     1      -8.997 -13.865  19.804  0.00  0.00    -0.092 S 
ATOM     24  C   UNL     1      -9.558 -12.248  19.866  0.00  0.00    +0.074 A 
ATOM     25  C   UNL     1     -10.822 -12.160  20.408  0.00  0.00    +0.021 A 
ATOM     26  C   UNL     1     -11.335 -13.436  20.779  0.00  0.00    +0.008 A 
ATOM     27  C   UNL     1     -10.445 -14.451  20.505  0.00  0.00    +0.046 A 
ENDBRANCH  23  24
ENDBRANCH  19  17
BRANCH   5  16
ATOM     16  C   UNL     1      -4.706 -11.652  17.209  0.00  0.00    +0.159 C 
BRANCH  16  20
ATOM      3  O   UNL     1      -3.738 -12.082  19.396  0.00  0.00    -0.274 OA
ATOM      8  N   UNL     1      -4.488 -13.867  18.160  0.00  0.00    -0.328 N 
ATOM     20  C   UNL     1      -4.265 -12.523  18.378  0.00  0.00    +0.231 C 
ATOM     30  H   UNL     1      -4.230 -14.556  18.860  0.00  0.00    +0.145 HD
ATOM     31  H   UNL     1      -4.906 -14.221  17.306  0.00  0.00    +0.145 HD
ENDBRANCH  16  20
BRANCH  16  12
ATOM     12  C   UNL     1      -3.577 -10.778  16.660  0.00  0.00    +0.035 C 
BRANCH  12   9
ATOM      9  C   UNL     1      -3.457 -10.796  15.138  0.00  0.00    -0.009 C 
ATOM     10  C   UNL     1      -3.856 -12.170  14.580  0.00  0.00    +0.003 C 
ATOM     11  C   UNL     1      -2.034 -10.422  14.701  0.00  0.00    +0.003 C 
ATOM     13  C   UNL     1      -3.693 -12.231  13.063  0.00  0.00    +0.000 C 
ATOM     14  C   UNL     1      -1.875 -10.485  13.183  0.00  0.00    +0.000 C 
ATOM     15  C   UNL     1      -2.280 -11.849  12.632  0.00  0.00    +0.000 C 
ENDBRANCH  12   9
ENDBRANCH  16  12
ENDBRANCH   5  16
TORSDOF 6
ENDMDL
MODEL 8
REMARK VINA RESULT:      -5.7     26.997     29.062
REMARK  Name = 11912130
REMARK  6 active torsions:
REMARK  status: ('A' for Active; 'I' for Inactive)
REMARK    1  A    between atoms: N_5  and  C_16
REMARK    2  A    between atoms: C_9  and  C_12
REMARK    3  A    between atoms: C_12  and  C_16
REMARK    4  A    between atoms: C_16  and  C_20
REMARK    5  A    between atoms: C_17  and  C_19
REMARK    6  A    between atoms: C_23  and  C_24
REMARK                            x       y       z     vdW  Elec       q    Type
REMARK                         _______ _______ _______ _____ _____    ______ ____
ROOT
ATOM      2  O   UNL     1      -6.356  -9.740  15.533  0.00  0.00    -0.274 OA
ATOM      5  N   UNL     1      -4.843 -11.505  15.402  0.00  0.00    -0.302 N 
ATOM     19  C   UNL     1      -5.989 -10.807  15.049  0.00  0.00    +0.235 C 
ATOM     28  H   UNL     1      -4.573 -12.317  14.854  0.00  0.00    +0.150 HD
ENDROOT
BRANCH  19  17
ATOM      4  O   UNL     1      -4.745 -12.326  12.207  0.00  0.00    -0.269 OA
ATOM      6  N   UNL     1      -6.413 -10.796  12.713  0.00  0.00    -0.283 N 
ATOM      7  N   UNL     1      -8.885 -10.192  14.060  0.00  0.00    -0.312 NA
ATOM     17  C   UNL     1      -6.762 -11.491  13.957  0.00  0.00    +0.176 C 
ATOM     18  C   UNL     1      -8.264 -11.506  14.241  0.00  0.00    +0.113 C 
ATOM     21  C   UNL     1      -7.150  -9.552  12.435  0.00  0.00    +0.124 C 
ATOM     22  C   UNL     1      -8.643  -9.698  12.707  0.00  0.00    +0.100 C 
ATOM     23  C   UNL     1      -5.335 -11.279  11.938  0.00  0.00    +0.254 C 
ATOM     29  H   UNL     1      -8.484  -9.538  14.733  0.00  0.00    +0.122 HD
BRANCH  23  24
ATOM      1  S   UNL     1      -5.672 -10.776   9.268  0.00  0.00    -0.092 S 
ATOM     24  C   UNL     1      -4.928 -10.485  10.783  0.00  0.00    +0.074 A 
ATOM     25  C   UNL     1      -3.986  -9.482  10.712  0.00  0.00    +0.021 A 
ATOM     26  C   UNL     1      -3.875  -8.945   9.397  0.00  0.00    +0.008 A 
ATOM     27  C   UNL     1      -4.735  -9.558   8.513  0.00  0.00    +0.046 A 
ENDBRANCH  23  24
ENDBRANCH  19  17
BRANCH   5  16
ATOM     16  C   UNL     1      -3.919 -11.051  16.408  0.00  0.00    +0.159 C 
BRANCH  16  20
ATOM      3  O   UNL     1      -2.455 -10.423  14.573  0.00  0.00    -0.274 OA
ATOM      8  N   UNL     1      -1.507 -10.975  16.591  0.00  0.00    -0.328 N 
ATOM     20  C   UNL     1      -2.577 -10.769  15.746  0.00  0.00    +0.231 C 
ATOM     30  H   UNL     1      -0.555 -10.831  16.268  0.00  0.00    +0.145 HD
ATOM     31  H   UNL     1      -1.620 -11.280  17.552  0.00  0.00    +0.145 HD
ENDBRANCH  16  20
BRANCH  16  12
ATOM     12  C   UNL     1      -3.809 -12.030  17.580  0.00  0.00    +0.035 C 
BRANCH  12   9
ATOM      9  C   UNL     1      -4.935 -11.905  18.604  0.00  0.00    -0.009 C 
ATOM     10  C   UNL     1      -6.124 -12.795  18.214  0.00  0.00    +0.003 C 
ATOM     11  C   UNL     1      -5.374 -10.441  18.752  0.00  0.00    +0.003 C 
ATOM     13  C   UNL     1      -7.285 -12.646  19.194  0.00  0.00    +0.000 C 
ATOM     14  C   UNL     1      -6.536 -10.298  19.732  0.00  0.00    +0.000 C 
ATOM     15  C   UNL     1      -7.712 -11.190  19.346  0.00  0.00    +0.000 C 
ENDBRANCH  12   9
ENDBRANCH  16  12
ENDBRANCH   5  16
TORSDOF 6
ENDMDL
MODEL 9
REMARK VINA RESULT:      -5.7      2.945      7.186
REMARK  Name = 11912130
REMARK  6 active torsions:
REMARK  status: ('A' for Active; 'I' for Inactive)
REMARK    1  A    between atoms: N_5  and  C_16
REMARK    2  A    between atoms: C_9  and  C_12
REMARK    3  A    between atoms: C_12  and  C_16
REMARK    4  A    between atoms: C_16  and  C_20
REMARK    5  A    between atoms: C_17  and  C_19
REMARK    6  A    between atoms: C_23  and  C_24
REMARK                            x       y       z     vdW  Elec       q    Type
REMARK                         _______ _______ _______ _____ _____    ______ ____
ROOT
ATOM      2  O   UNL     1      10.754  10.288  23.015  0.00  0.00    -0.274 OA
ATOM      5  N   UNL     1      12.934  10.239  22.198  0.00  0.00    -0.302 N 
ATOM     19  C   UNL     1      11.803  10.853  22.716  0.00  0.00    +0.235 C 
ATOM     28  H   UNL     1      13.786  10.782  22.099  0.00  0.00    +0.150 HD
ENDROOT
BRANCH  19  17
ATOM      4  O   UNL     1      14.762  12.557  23.235  0.00  0.00    -0.269 OA
ATOM      6  N   UNL     1      12.658  12.488  24.209  0.00  0.00    -0.283 N 
ATOM      7  N   UNL     1       9.818  12.900  23.984  0.00  0.00    -0.312 NA
ATOM     17  C   UNL     1      11.992  12.330  22.912  0.00  0.00    +0.176 C 
ATOM     18  C   UNL     1      10.672  13.095  22.811  0.00  0.00    +0.113 C 
ATOM     21  C   UNL     1      11.786  12.459  25.395  0.00  0.00    +0.124 C 
ATOM     22  C   UNL     1      10.525  13.294  25.200  0.00  0.00    +0.100 C 
ATOM     23  C   UNL     1      14.069  12.534  24.254  0.00  0.00    +0.254 C 
ATOM     29  H   UNL     1       9.561  11.915  24.050  0.00  0.00    +0.122 HD
BRANCH  23  24
ATOM      1  S   UNL     1      15.099  14.059  26.281  0.00  0.00    -0.092 S 
ATOM     24  C   UNL     1      14.701  12.553  25.570  0.00  0.00    +0.074 A 
ATOM     25  C   UNL     1      15.049  11.492  26.377  0.00  0.00    +0.021 A 
ATOM     26  C   UNL     1      15.649  11.921  27.595  0.00  0.00    +0.008 A 
ATOM     27  C   UNL     1      15.738  13.294  27.673  0.00  0.00    +0.046 A 
ENDBRANCH  23  24
ENDBRANCH  19  17
BRANCH   5  16
ATOM     16  C   UNL     1      13.018   8.824  21.939  0.00  0.00    +0.159 C 
BRANCH  16  20
ATOM      3  O   UNL     1      14.853   7.231  21.920  0.00  0.00    -0.274 OA
ATOM      8  N   UNL     1      15.312   9.426  22.419  0.00  0.00    -0.328 N 
ATOM     20  C   UNL     1      14.471   8.389  22.073  0.00  0.00    +0.231 C 
ATOM     30  H   UNL     1      16.306   9.267  22.549  0.00  0.00    +0.145 HD
ATOM     31  H   UNL     1      14.980  10.374  22.562  0.00  0.00    +0.145 HD
ENDBRANCH  16  20
BRANCH  16  12
ATOM     12  C   UNL     1      12.406   8.446  20.588  0.00  0.00    +0.035 C 
BRANCH  12   9
ATOM      9  C   UNL     1      13.331   8.685  19.396  0.00  0.00    -0.009 C 
ATOM     10  C   UNL     1      12.924   9.959  18.641  0.00  0.00    +0.003 C 
ATOM     11  C   UNL     1      13.330   7.470  18.457  0.00  0.00    +0.003 C 
ATOM     13  C   UNL     1      13.800  10.189  17.412  0.00  0.00    +0.000 C 
ATOM     14  C   UNL     1      14.207   7.706  17.229  0.00  0.00    +0.000 C 
ATOM     15  C   UNL     1      13.805   8.977  16.487  0.00  0.00    +0.000 C 
ENDBRANCH  12   9
ENDBRANCH  16  12
ENDBRANCH   5  16
TORSDOF 6
ENDMDL
MODEL 10
REMARK VINA RESULT:      -5.7     28.739     30.602
REMARK  Name = 11912130
REMARK  6 active torsions:
REMARK  status: ('A' for Active; 'I' for Inactive)
REMARK    1  A    between atoms: N_5  and  C_16
REMARK    2  A    between atoms: C_9  and  C_12
REMARK    3  A    between atoms: C_12  and  C_16
REMARK    4  A    between atoms: C_16  and  C_20
REMARK    5  A    between atoms: C_17  and  C_19
REMARK    6  A    between atoms: C_23  and  C_24
REMARK                            x       y       z     vdW  Elec       q    Type
REMARK                         _______ _______ _______ _____ _____    ______ ____
ROOT
ATOM      2  O   UNL     1     -15.818   3.198  22.971  0.00  0.00    -0.274 OA
ATOM      5  N   UNL     1     -17.385   3.611  24.644  0.00  0.00    -0.302 N 
ATOM     19  C   UNL     1     -16.759   3.842  23.427  0.00  0.00    +0.235 C 
ATOM     28  H   UNL     1     -18.229   4.129  24.868  0.00  0.00    +0.150 HD
ENDROOT
BRANCH  19  17
ATOM      4  O   UNL     1     -15.941   4.989  20.273  0.00  0.00    -0.269 OA
ATOM      6  N   UNL     1     -16.286   5.915  22.371  0.00  0.00    -0.283 N 
ATOM      7  N   UNL     1     -18.058   6.435  24.580  0.00  0.00    -0.312 NA
ATOM     17  C   UNL     1     -17.378   4.984  22.673  0.00  0.00    +0.176 C 
ATOM     18  C   UNL     1     -18.526   5.629  23.451  0.00  0.00    +0.113 C 
ATOM     21  C   UNL     1     -15.912   6.848  23.446  0.00  0.00    +0.124 C 
ATOM     22  C   UNL     1     -17.133   7.467  24.118  0.00  0.00    +0.100 C 
ATOM     23  C   UNL     1     -15.593   5.785  21.147  0.00  0.00    +0.254 C 
ATOM     29  H   UNL     1     -17.579   5.829  25.247  0.00  0.00    +0.122 HD
BRANCH  23  24
ATOM      1  S   UNL     1     -14.623   8.143  20.151  0.00  0.00    -0.092 S 
ATOM     24  C   UNL     1     -14.426   6.636  20.940  0.00  0.00    +0.074 A 
ATOM     25  C   UNL     1     -13.115   6.408  21.298  0.00  0.00    +0.021 A 
ATOM     26  C   UNL     1     -12.262   7.484  20.920  0.00  0.00    +0.008 A 
ATOM     27  C   UNL     1     -12.953   8.495  20.287  0.00  0.00    +0.046 A 
ENDBRANCH  23  24
ENDBRANCH  19  17
BRANCH   5  16
ATOM     16  C   UNL     1     -16.995   2.559  25.546  0.00  0.00    +0.159 C 
BRANCH  16  20
ATOM      3  O   UNL     1     -18.944   1.227  24.971  0.00  0.00    -0.274 OA
ATOM      8  N   UNL     1     -16.897   0.190  25.064  0.00  0.00    -0.328 N 
ATOM     20  C   UNL     1     -17.730   1.284  25.156  0.00  0.00    +0.231 C 
ATOM     30  H   UNL     1     -17.264  -0.724  24.819  0.00  0.00    +0.145 HD
ATOM     31  H   UNL     1     -15.899   0.246  25.238  0.00  0.00    +0.145 HD
ENDBRANCH  16  20
BRANCH  16  12
ATOM     12  C   UNL     1     -17.209   2.944  27.012  0.00  0.00    +0.035 C 
BRANCH  12   9
ATOM      9  C   UNL     1     -16.145   2.398  27.962  0.00  0.00    -0.009 C 
ATOM     10  C   UNL     1     -16.690   1.201  28.756  0.00  0.00    +0.003 C 
ATOM     11  C   UNL     1     -15.647   3.499  28.909  0.00  0.00    +0.003 C 
ATOM     13  C   UNL     1     -15.661   0.672  29.753  0.00  0.00    +0.000 C 
ATOM     14  C   UNL     1     -14.620   2.965  29.905  0.00  0.00    +0.000 C 
ATOM     15  C   UNL     1     -15.161   1.771  30.685  0.00  0.00    +0.000 C 
ENDBRANCH  12   9
ENDBRANCH  16  12
ENDBRANCH   5  16
TORSDOF 6
ENDMDL
