REMARK  Name = 51138039
REMARK  9 active torsions:
REMARK  status: ('A' for Active; 'I' for Inactive)
REMARK    1  A    between atoms: N_3  and  C_19
REMARK    2  A    between atoms: N_4  and  C_24
REMARK    3  A    between atoms: C_6  and  C_10
REMARK    4  A    between atoms: C_9  and  C_17
REMARK    5  A    between atoms: C_10  and  C_14
REMARK    6  A    between atoms: C_14  and  C_21
REMARK    7  A    between atoms: C_14  and  C_22
REMARK    8  A    between atoms: C_19  and  C_23
REMARK    9  A    between atoms: C_24  and  C_27
REMARK                            x       y       z     vdW  Elec       q    Type
REMARK                         _______ _______ _______ _____ _____    ______ ____
ROOT
ATOM      2  N   UNL     1      -1.252  -0.256  -0.164  0.00  0.00    -0.299 NA
ATOM      3  N   UNL     1       3.549   0.815   0.980  0.00  0.00    -0.342 N 
ATOM      6  C   UNL     1      -0.696  -1.488   0.413  0.00  0.00    +0.085 C 
ATOM      7  C   UNL     1       0.813  -1.481   0.677  0.00  0.00    -0.021 A 
ATOM      8  C   UNL     1       1.631  -0.315   0.734  0.00  0.00    +0.008 A 
ATOM      9  C   UNL     1      -1.148   0.917   0.692  0.00  0.00    +0.145 C 
ATOM     11  C   UNL     1       1.375   1.093   0.595  0.00  0.00    -0.020 A 
ATOM     12  C   UNL     1       0.070   1.766   0.333  0.00  0.00    +0.065 C 
ATOM     13  C   UNL     1       2.999  -0.445   0.998  0.00  0.00    +0.050 A 
ATOM     15  C   UNL     1       2.581   1.747   0.745  0.00  0.00    +0.091 A 
ATOM     16  C   UNL     1       1.457  -2.711   0.968  0.00  0.00    +0.006 A 
ATOM     18  C   UNL     1       3.623  -1.671   1.235  0.00  0.00    +0.026 A 
ATOM     20  C   UNL     1       2.822  -2.805   1.228  0.00  0.00    +0.002 A 
ATOM     35  H   UNL     1      -0.858  -0.076  -1.086  0.00  0.00    +0.123 HD
ENDROOT
BRANCH   9  17
ATOM      1  O   UNL     1      -2.439   2.572  -0.443  0.00  0.00    -0.274 OA
ATOM      4  N   UNL     1      -3.426   1.358   1.280  0.00  0.00    -0.310 N 
ATOM     17  C   UNL     1      -2.393   1.708   0.428  0.00  0.00    +0.231 C 
ATOM     36  H   UNL     1      -3.288   0.608   1.951  0.00  0.00    +0.149 HD
BRANCH   4  24
ATOM     24  C   UNL     1      -4.726   1.988   1.246  0.00  0.00    +0.139 C 
BRANCH  24  27
ATOM     27  C   UNL     1      -5.669   1.283   0.314  0.00  0.00    -0.030 A 
ATOM     30  C   UNL     1      -5.740   1.664  -1.026  0.00  0.00    +0.005 A 
ATOM     31  C   UNL     1      -6.473   0.246   0.788  0.00  0.00    +0.005 A 
ATOM     32  C   UNL     1      -6.615   1.009  -1.892  0.00  0.00    +0.000 A 
ATOM     33  C   UNL     1      -7.348  -0.409  -0.078  0.00  0.00    +0.000 A 
ATOM     34  C   UNL     1      -7.420  -0.028  -1.418  0.00  0.00    +0.000 A 
ENDBRANCH  24  27
ENDBRANCH   4  24
ENDBRANCH   9  17
BRANCH   6  10
ATOM     10  C   UNL     1      -1.119  -2.600  -0.563  0.00  0.00    +0.026 C 
BRANCH  10  14
ATOM     14  C   UNL     1      -2.591  -2.998  -0.416  0.00  0.00    -0.015 C 
ATOM     21  C   UNL     1      -2.904  -4.143  -1.382  0.00  0.00    +0.007 C 
ATOM     22  C   UNL     1      -3.545  -1.830  -0.672  0.00  0.00    +0.007 C 
ENDBRANCH  10  14
ENDBRANCH   6  10
BRANCH   3  19
ATOM     19  C   UNL     1       4.945   1.129   1.196  0.00  0.00    +0.157 C 
BRANCH  19  23
ATOM      5  N   UNL     1       7.410   0.415  -2.259  0.00  0.00    -0.263 NA
ATOM     23  C   UNL     1       5.809   0.878  -0.015  0.00  0.00    -0.025 A 
ATOM     25  C   UNL     1       6.898   0.018   0.070  0.00  0.00    +0.025 A 
ATOM     26  C   UNL     1       5.520   1.507  -1.220  0.00  0.00    +0.025 A 
ATOM     28  C   UNL     1       7.660  -0.178  -1.070  0.00  0.00    +0.111 A 
ATOM     29  C   UNL     1       6.343   1.245  -2.303  0.00  0.00    +0.111 A 
ENDBRANCH  19  23
ENDBRANCH   3  19
TORSDOF 7
