MODEL 1
REMARK VINA RESULT:      -7.0      0.000      0.000
REMARK  Name = 28960475
REMARK  8 active torsions:
REMARK  status: ('A' for Active; 'I' for Inactive)
REMARK    1  A    between atoms: O_3  and  C_9
REMARK    2  A    between atoms: O_4  and  C_23
REMARK    3  A    between atoms: O_4  and  C_31
REMARK    4  A    between atoms: N_5  and  C_8
REMARK    5  A    between atoms: N_6  and  C_10
REMARK    6  A    between atoms: N_6  and  C_18
REMARK    7  A    between atoms: N_7  and  C_19
REMARK    8  A    between atoms: C_18  and  C_20
REMARK                            x       y       z     vdW  Elec       q    Type
REMARK                         _______ _______ _______ _____ _____    ______ ____
ROOT
ATOM      1  O   UNL     1      12.046   7.373  19.335  0.00  0.00    -0.343 OA
ATOM      2  O   UNL     1      11.927   7.970  17.098  0.00  0.00    -0.347 OA
ATOM      8  C   UNL     1      13.918   8.531  18.347  0.00  0.00    +0.143 C 
ATOM      9  C   UNL     1      13.307   9.894  18.750  0.00  0.00    +0.156 C 
ATOM     10  C   UNL     1      12.020   9.776  19.603  0.00  0.00    +0.116 C 
ATOM     11  C   UNL     1      11.191   8.518  19.253  0.00  0.00    +0.166 C 
ATOM     12  C   UNL     1      12.807   7.488  18.126  0.00  0.00    +0.270 C 
ATOM     13  C   UNL     1      10.765   8.439  17.798  0.00  0.00    +0.196 C 
ENDROOT
BRANCH   8   5
ATOM      5  N   UNL     1      14.851   8.060  19.371  0.00  0.00    -0.290 NA
ATOM      7  N   UNL     1      17.410   7.456  20.489  0.00  0.00    -0.327 N 
ATOM     14  C   UNL     1      15.757   9.140  19.781  0.00  0.00    +0.104 C 
ATOM     15  C   UNL     1      15.628   6.918  18.872  0.00  0.00    +0.104 C 
ATOM     16  C   UNL     1      16.702   8.675  20.892  0.00  0.00    +0.120 C 
ATOM     17  C   UNL     1      16.567   6.379  19.954  0.00  0.00    +0.120 C 
BRANCH   7  19
ATOM     19  C   UNL     1      18.602   7.101  21.130  0.00  0.00    +0.030 A 
ATOM     21  C   UNL     1      19.004   7.779  22.280  0.00  0.00    +0.023 A 
ATOM     22  C   UNL     1      19.388   6.069  20.619  0.00  0.00    +0.023 A 
ATOM     25  C   UNL     1      20.191   7.426  22.919  0.00  0.00    +0.002 A 
ATOM     26  C   UNL     1      20.577   5.715  21.258  0.00  0.00    +0.002 A 
ATOM     29  C   UNL     1      20.978   6.394  22.408  0.00  0.00    +0.000 A 
ENDBRANCH   7  19
ENDBRANCH   8   5
BRANCH   9   3
ATOM      3  O   UNL     1      12.991  10.601  17.542  0.00  0.00    -0.388 OA
ATOM     33  H   UNL     1      12.076  10.376  17.302  0.00  0.00    +0.210 HD
ENDBRANCH   9   3
BRANCH  10   6
ATOM      6  N   UNL     1      12.351   9.722  21.031  0.00  0.00    -0.305 NA
ATOM     32  H   UNL     1      12.971  10.498  21.266  0.00  0.00    +0.123 HD
BRANCH   6  18
ATOM     18  C   UNL     1      11.144   9.782  21.837  0.00  0.00    +0.120 C 
BRANCH  18  20
ATOM     20  C   UNL     1      11.177  10.928  22.812  0.00  0.00    +0.008 A 
ATOM     23  C   UNL     1      11.284  12.245  22.363  0.00  0.00    +0.124 A 
ATOM     24  C   UNL     1      11.099  10.662  24.179  0.00  0.00    +0.008 A 
ATOM     27  C   UNL     1      11.313  13.294  23.281  0.00  0.00    +0.046 A 
ATOM     28  C   UNL     1      11.128  11.712  25.098  0.00  0.00    +0.001 A 
ATOM     30  C   UNL     1      11.236  13.028  24.648  0.00  0.00    +0.004 A 
BRANCH  23   4
ATOM      4  O   UNL     1      11.361  12.522  21.031  0.00  0.00    -0.495 OA
ATOM     31  C   UNL     1      11.705  13.858  20.667  0.00  0.00    +0.277 C 
ENDBRANCH  23   4
ENDBRANCH  18  20
ENDBRANCH   6  18
ENDBRANCH  10   6
TORSDOF 7
ENDMDL
MODEL 2
REMARK VINA RESULT:      -7.0      2.741      4.906
REMARK  Name = 28960475
REMARK  8 active torsions:
REMARK  status: ('A' for Active; 'I' for Inactive)
REMARK    1  A    between atoms: O_3  and  C_9
REMARK    2  A    between atoms: O_4  and  C_23
REMARK    3  A    between atoms: O_4  and  C_31
REMARK    4  A    between atoms: N_5  and  C_8
REMARK    5  A    between atoms: N_6  and  C_10
REMARK    6  A    between atoms: N_6  and  C_18
REMARK    7  A    between atoms: N_7  and  C_19
REMARK    8  A    between atoms: C_18  and  C_20
REMARK                            x       y       z     vdW  Elec       q    Type
REMARK                         _______ _______ _______ _____ _____    ______ ____
ROOT
ATOM      1  O   UNL     1      13.535   9.414  20.642  0.00  0.00    -0.343 OA
ATOM      2  O   UNL     1      11.994   7.989  21.629  0.00  0.00    -0.347 OA
ATOM      8  C   UNL     1      13.957   7.038  20.588  0.00  0.00    +0.143 C 
ATOM      9  C   UNL     1      13.211   6.920  19.238  0.00  0.00    +0.156 C 
ATOM     10  C   UNL     1      12.761   8.281  18.651  0.00  0.00    +0.116 C 
ATOM     11  C   UNL     1      12.421   9.317  19.747  0.00  0.00    +0.166 C 
ATOM     12  C   UNL     1      13.397   8.212  21.412  0.00  0.00    +0.270 C 
ATOM     13  C   UNL     1      11.334   8.871  20.708  0.00  0.00    +0.196 C 
ENDROOT
BRANCH   8   5
ATOM      5  N   UNL     1      15.393   7.219  20.371  0.00  0.00    -0.290 NA
ATOM      7  N   UNL     1      18.162   6.538  20.541  0.00  0.00    -0.327 N 
ATOM     14  C   UNL     1      15.938   6.114  19.572  0.00  0.00    +0.104 C 
ATOM     15  C   UNL     1      16.100   7.303  21.655  0.00  0.00    +0.104 C 
ATOM     16  C   UNL     1      17.428   6.320  19.291  0.00  0.00    +0.120 C 
ATOM     17  C   UNL     1      17.596   7.550  21.442  0.00  0.00    +0.120 C 
BRANCH   7  19
ATOM     19  C   UNL     1      19.545   6.322  20.581  0.00  0.00    +0.030 A 
ATOM     21  C   UNL     1      20.414   7.398  20.749  0.00  0.00    +0.023 A 
ATOM     22  C   UNL     1      20.051   5.029  20.453  0.00  0.00    +0.023 A 
ATOM     25  C   UNL     1      21.791   7.182  20.789  0.00  0.00    +0.002 A 
ATOM     26  C   UNL     1      21.429   4.813  20.493  0.00  0.00    +0.002 A 
ATOM     29  C   UNL     1      22.299   5.890  20.661  0.00  0.00    +0.000 A 
ENDBRANCH   7  19
ENDBRANCH   8   5
BRANCH   9   3
ATOM      3  O   UNL     1      12.046   6.111  19.456  0.00  0.00    -0.388 OA
ATOM     33  H   UNL     1      11.719   5.828  18.585  0.00  0.00    +0.210 HD
ENDBRANCH   9   3
BRANCH  10   6
ATOM      6  N   UNL     1      13.812   8.847  17.798  0.00  0.00    -0.305 NA
ATOM     32  H   UNL     1      14.159   8.127  17.163  0.00  0.00    +0.123 HD
BRANCH   6  18
ATOM     18  C   UNL     1      13.303   9.978  17.044  0.00  0.00    +0.120 C 
BRANCH  18  20
ATOM     20  C   UNL     1      14.414  10.790  16.432  0.00  0.00    +0.008 A 
ATOM     23  C   UNL     1      15.177  11.657  17.214  0.00  0.00    +0.124 A 
ATOM     24  C   UNL     1      14.674  10.669  15.067  0.00  0.00    +0.008 A 
ATOM     27  C   UNL     1      16.201  12.403  16.630  0.00  0.00    +0.046 A 
ATOM     28  C   UNL     1      15.700  11.414  14.483  0.00  0.00    +0.001 A 
ATOM     30  C   UNL     1      16.462  12.281  15.265  0.00  0.00    +0.004 A 
BRANCH  23   4
ATOM      4  O   UNL     1      14.935  11.788  18.548  0.00  0.00    -0.495 OA
ATOM     31  C   UNL     1      16.017  11.506  19.433  0.00  0.00    +0.277 C 
ENDBRANCH  23   4
ENDBRANCH  18  20
ENDBRANCH   6  18
ENDBRANCH  10   6
TORSDOF 7
ENDMDL
MODEL 3
REMARK VINA RESULT:      -6.5     27.724     30.827
REMARK  Name = 28960475
REMARK  8 active torsions:
REMARK  status: ('A' for Active; 'I' for Inactive)
REMARK    1  A    between atoms: O_3  and  C_9
REMARK    2  A    between atoms: O_4  and  C_23
REMARK    3  A    between atoms: O_4  and  C_31
REMARK    4  A    between atoms: N_5  and  C_8
REMARK    5  A    between atoms: N_6  and  C_10
REMARK    6  A    between atoms: N_6  and  C_18
REMARK    7  A    between atoms: N_7  and  C_19
REMARK    8  A    between atoms: C_18  and  C_20
REMARK                            x       y       z     vdW  Elec       q    Type
REMARK                         _______ _______ _______ _____ _____    ______ ____
ROOT
ATOM      1  O   UNL     1     -16.238   2.111  24.608  0.00  0.00    -0.343 OA
ATOM      2  O   UNL     1     -18.416   1.843  23.857  0.00  0.00    -0.347 OA
ATOM      8  C   UNL     1     -17.486   4.073  23.959  0.00  0.00    +0.143 C 
ATOM      9  C   UNL     1     -18.000   4.244  25.408  0.00  0.00    +0.156 C 
ATOM     10  C   UNL     1     -17.385   3.239  26.413  0.00  0.00    +0.116 C 
ATOM     11  C   UNL     1     -17.053   1.877  25.762  0.00  0.00    +0.166 C 
ATOM     12  C   UNL     1     -17.203   2.589  23.661  0.00  0.00    +0.270 C 
ATOM     13  C   UNL     1     -18.244   1.187  25.122  0.00  0.00    +0.196 C 
ENDROOT
BRANCH   8   5
ATOM      5  N   UNL     1     -16.277   4.867  23.742  0.00  0.00    -0.290 NA
ATOM      7  N   UNL     1     -14.452   6.485  22.255  0.00  0.00    -0.327 N 
ATOM     14  C   UNL     1     -16.623   6.250  23.393  0.00  0.00    +0.104 C 
ATOM     15  C   UNL     1     -15.457   4.275  22.678  0.00  0.00    +0.104 C 
ATOM     16  C   UNL     1     -15.366   7.106  23.218  0.00  0.00    +0.120 C 
ATOM     17  C   UNL     1     -14.161   5.063  22.480  0.00  0.00    +0.120 C 
BRANCH   7  19
ATOM     19  C   UNL     1     -13.476   7.264  21.622  0.00  0.00    +0.030 A 
ATOM     21  C   UNL     1     -13.575   8.655  21.640  0.00  0.00    +0.023 A 
ATOM     22  C   UNL     1     -12.405   6.649  20.974  0.00  0.00    +0.023 A 
ATOM     25  C   UNL     1     -12.603   9.431  21.010  0.00  0.00    +0.002 A 
ATOM     26  C   UNL     1     -11.433   7.426  20.344  0.00  0.00    +0.002 A 
ATOM     29  C   UNL     1     -11.532   8.817  20.362  0.00  0.00    +0.000 A 
ENDBRANCH   7  19
ENDBRANCH   8   5
BRANCH   9   3
ATOM      3  O   UNL     1     -19.422   4.056  25.389  0.00  0.00    -0.388 OA
ATOM     33  H   UNL     1     -19.624   3.415  24.685  0.00  0.00    +0.210 HD
ENDBRANCH   9   3
BRANCH  10   6
ATOM      6  N   UNL     1     -16.152   3.781  26.994  0.00  0.00    -0.305 NA
ATOM     32  H   UNL     1     -16.345   4.690  27.416  0.00  0.00    +0.123 HD
BRANCH   6  18
ATOM     18  C   UNL     1     -15.612   2.871  27.988  0.00  0.00    +0.120 C 
BRANCH  18  20
ATOM     20  C   UNL     1     -15.356   3.560  29.301  0.00  0.00    +0.008 A 
ATOM     23  C   UNL     1     -14.433   3.043  30.210  0.00  0.00    +0.124 A 
ATOM     24  C   UNL     1     -16.055   4.729  29.604  0.00  0.00    +0.008 A 
ATOM     27  C   UNL     1     -14.209   3.695  31.423  0.00  0.00    +0.046 A 
ATOM     28  C   UNL     1     -15.830   5.381  30.818  0.00  0.00    +0.001 A 
ATOM     30  C   UNL     1     -14.908   4.864  31.726  0.00  0.00    +0.004 A 
BRANCH  23   4
ATOM      4  O   UNL     1     -13.743   1.902  29.930  0.00  0.00    -0.495 OA
ATOM     31  C   UNL     1     -14.086   0.738  30.678  0.00  0.00    +0.277 C 
ENDBRANCH  23   4
ENDBRANCH  18  20
ENDBRANCH   6  18
ENDBRANCH  10   6
TORSDOF 7
ENDMDL
MODEL 4
REMARK VINA RESULT:      -6.4     14.776     17.666
REMARK  Name = 28960475
REMARK  8 active torsions:
REMARK  status: ('A' for Active; 'I' for Inactive)
REMARK    1  A    between atoms: O_3  and  C_9
REMARK    2  A    between atoms: O_4  and  C_23
REMARK    3  A    between atoms: O_4  and  C_31
REMARK    4  A    between atoms: N_5  and  C_8
REMARK    5  A    between atoms: N_6  and  C_10
REMARK    6  A    between atoms: N_6  and  C_18
REMARK    7  A    between atoms: N_7  and  C_19
REMARK    8  A    between atoms: C_18  and  C_20
REMARK                            x       y       z     vdW  Elec       q    Type
REMARK                         _______ _______ _______ _____ _____    ______ ____
ROOT
ATOM      1  O   UNL     1       9.751   7.649   4.534  0.00  0.00    -0.343 OA
ATOM      2  O   UNL     1       8.498   7.437   6.474  0.00  0.00    -0.347 OA
ATOM      8  C   UNL     1      10.899   7.190   6.607  0.00  0.00    +0.143 C 
ATOM      9  C   UNL     1      10.779   5.669   6.354  0.00  0.00    +0.156 C 
ATOM     10  C   UNL     1      10.165   5.309   4.978  0.00  0.00    +0.116 C 
ATOM     11  C   UNL     1       9.136   6.357   4.496  0.00  0.00    +0.166 C 
ATOM     12  C   UNL     1       9.733   7.941   5.938  0.00  0.00    +0.270 C 
ATOM     13  C   UNL     1       7.977   6.576   5.451  0.00  0.00    +0.196 C 
ENDROOT
BRANCH   8   5
ATOM      5  N   UNL     1      12.176   7.698   6.103  0.00  0.00    -0.290 NA
ATOM      7  N   UNL     1      14.752   8.919   6.287  0.00  0.00    -0.327 N 
ATOM     14  C   UNL     1      13.297   6.979   6.720  0.00  0.00    +0.104 C 
ATOM     15  C   UNL     1      12.298   9.137   6.369  0.00  0.00    +0.104 C 
ATOM     16  C   UNL     1      14.637   7.463   6.160  0.00  0.00    +0.120 C 
ATOM     17  C   UNL     1      13.604   9.692   5.796  0.00  0.00    +0.120 C 
BRANCH   7  19
ATOM     19  C   UNL     1      16.015   9.522   6.250  0.00  0.00    +0.030 A 
ATOM     21  C   UNL     1      17.136   8.770   5.904  0.00  0.00    +0.023 A 
ATOM     22  C   UNL     1      16.150  10.875   6.560  0.00  0.00    +0.023 A 
ATOM     25  C   UNL     1      18.394   9.370   5.867  0.00  0.00    +0.002 A 
ATOM     26  C   UNL     1      17.409  11.476   6.524  0.00  0.00    +0.002 A 
ATOM     29  C   UNL     1      18.531  10.723   6.177  0.00  0.00    +0.000 A 
ENDBRANCH   7  19
ENDBRANCH   8   5
BRANCH   9   3
ATOM      3  O   UNL     1       9.940   5.124   7.383  0.00  0.00    -0.388 OA
ATOM     33  H   UNL     1      10.172   5.568   8.217  0.00  0.00    +0.210 HD
ENDBRANCH   9   3
BRANCH  10   6
ATOM      6  N   UNL     1      11.215   5.197   3.960  0.00  0.00    -0.305 NA
ATOM     32  H   UNL     1      12.131   5.254   4.407  0.00  0.00    +0.123 HD
BRANCH   6  18
ATOM     18  C   UNL     1      11.089   3.947   3.232  0.00  0.00    +0.120 C 
BRANCH  18  20
ATOM     20  C   UNL     1      11.229   4.145   1.747  0.00  0.00    +0.008 A 
ATOM     23  C   UNL     1      12.338   3.649   1.062  0.00  0.00    +0.124 A 
ATOM     24  C   UNL     1      10.233   4.836   1.055  0.00  0.00    +0.008 A 
ATOM     27  C   UNL     1      12.452   3.843  -0.314  0.00  0.00    +0.046 A 
ATOM     28  C   UNL     1      10.347   5.029  -0.323  0.00  0.00    +0.001 A 
ATOM     30  C   UNL     1      11.457   4.533  -1.006  0.00  0.00    +0.004 A 
BRANCH  23   4
ATOM      4  O   UNL     1      13.320   2.973   1.723  0.00  0.00    -0.495 OA
ATOM     31  C   UNL     1      14.640   3.509   1.645  0.00  0.00    +0.277 C 
ENDBRANCH  23   4
ENDBRANCH  18  20
ENDBRANCH   6  18
ENDBRANCH  10   6
TORSDOF 7
ENDMDL
MODEL 5
REMARK VINA RESULT:      -6.4     27.386     30.269
REMARK  Name = 28960475
REMARK  8 active torsions:
REMARK  status: ('A' for Active; 'I' for Inactive)
REMARK    1  A    between atoms: O_3  and  C_9
REMARK    2  A    between atoms: O_4  and  C_23
REMARK    3  A    between atoms: O_4  and  C_31
REMARK    4  A    between atoms: N_5  and  C_8
REMARK    5  A    between atoms: N_6  and  C_10
REMARK    6  A    between atoms: N_6  and  C_18
REMARK    7  A    between atoms: N_7  and  C_19
REMARK    8  A    between atoms: C_18  and  C_20
REMARK                            x       y       z     vdW  Elec       q    Type
REMARK                         _______ _______ _______ _____ _____    ______ ____
ROOT
ATOM      1  O   UNL     1      -8.610 -11.303  20.155  0.00  0.00    -0.343 OA
ATOM      2  O   UNL     1      -9.491 -13.447  20.084  0.00  0.00    -0.347 OA
ATOM      8  C   UNL     1      -8.426 -12.561  18.103  0.00  0.00    +0.143 C 
ATOM      9  C   UNL     1      -9.773 -11.984  17.610  0.00  0.00    +0.156 C 
ATOM     10  C   UNL     1     -10.379 -10.915  18.553  0.00  0.00    +0.116 C 
ATOM     11  C   UNL     1     -10.030 -11.169  20.038  0.00  0.00    +0.166 C 
ATOM     12  C   UNL     1      -8.398 -12.625  19.642  0.00  0.00    +0.270 C 
ATOM     13  C   UNL     1     -10.479 -12.521  20.560  0.00  0.00    +0.196 C 
ENDROOT
BRANCH   8   5
ATOM      5  N   UNL     1      -7.307 -11.753  17.616  0.00  0.00    -0.290 NA
ATOM      7  N   UNL     1      -4.885 -11.242  16.190  0.00  0.00    -0.327 N 
ATOM     14  C   UNL     1      -7.304 -11.709  16.149  0.00  0.00    +0.104 C 
ATOM     15  C   UNL     1      -6.032 -12.293  18.103  0.00  0.00    +0.104 C 
ATOM     16  C   UNL     1      -6.171 -10.820  15.627  0.00  0.00    +0.120 C 
ATOM     17  C   UNL     1      -4.858 -11.423  17.648  0.00  0.00    +0.120 C 
BRANCH   7  19
ATOM     19  C   UNL     1      -3.695 -10.879  15.550  0.00  0.00    +0.030 A 
ATOM     21  C   UNL     1      -2.547 -10.632  16.302  0.00  0.00    +0.023 A 
ATOM     22  C   UNL     1      -3.657 -10.764  14.161  0.00  0.00    +0.023 A 
ATOM     25  C   UNL     1      -1.361 -10.270  15.664  0.00  0.00    +0.002 A 
ATOM     26  C   UNL     1      -2.471 -10.402  13.523  0.00  0.00    +0.002 A 
ATOM     29  C   UNL     1      -1.322 -10.155  14.275  0.00  0.00    +0.000 A 
ENDBRANCH   7  19
ENDBRANCH   8   5
BRANCH   9   3
ATOM      3  O   UNL     1     -10.699 -13.075  17.505  0.00  0.00    -0.388 OA
ATOM     33  H   UNL     1     -10.196 -13.862  17.235  0.00  0.00    +0.210 HD
ENDBRANCH   9   3
BRANCH  10   6
ATOM      6  N   UNL     1      -9.897  -9.577  18.192  0.00  0.00    -0.305 NA
ATOM     32  H   UNL     1      -8.939  -9.460  18.522  0.00  0.00    +0.123 HD
BRANCH   6  18
ATOM     18  C   UNL     1      -9.962  -9.383  16.755  0.00  0.00    +0.120 C 
BRANCH  18  20
ATOM     20  C   UNL     1     -10.873  -8.243  16.383  0.00  0.00    +0.008 A 
ATOM     23  C   UNL     1     -12.257  -8.416  16.356  0.00  0.00    +0.124 A 
ATOM     24  C   UNL     1     -10.318  -7.004  16.063  0.00  0.00    +0.008 A 
ATOM     27  C   UNL     1     -13.086  -7.350  16.009  0.00  0.00    +0.046 A 
ATOM     28  C   UNL     1     -11.148  -5.937  15.715  0.00  0.00    +0.001 A 
ATOM     30  C   UNL     1     -12.531  -6.111  15.688  0.00  0.00    +0.004 A 
BRANCH  23   4
ATOM      4  O   UNL     1     -12.815  -9.620  16.666  0.00  0.00    -0.495 OA
ATOM     31  C   UNL     1     -13.809  -9.629  17.689  0.00  0.00    +0.277 C 
ENDBRANCH  23   4
ENDBRANCH  18  20
ENDBRANCH   6  18
ENDBRANCH  10   6
TORSDOF 7
ENDMDL
MODEL 6
REMARK VINA RESULT:      -6.3     27.378     31.018
REMARK  Name = 28960475
REMARK  8 active torsions:
REMARK  status: ('A' for Active; 'I' for Inactive)
REMARK    1  A    between atoms: O_3  and  C_9
REMARK    2  A    between atoms: O_4  and  C_23
REMARK    3  A    between atoms: O_4  and  C_31
REMARK    4  A    between atoms: N_5  and  C_8
REMARK    5  A    between atoms: N_6  and  C_10
REMARK    6  A    between atoms: N_6  and  C_18
REMARK    7  A    between atoms: N_7  and  C_19
REMARK    8  A    between atoms: C_18  and  C_20
REMARK                            x       y       z     vdW  Elec       q    Type
REMARK                         _______ _______ _______ _____ _____    ______ ____
ROOT
ATOM      1  O   UNL     1      -9.417 -12.552  17.647  0.00  0.00    -0.343 OA
ATOM      2  O   UNL     1      -9.320 -12.415  19.961  0.00  0.00    -0.347 OA
ATOM      8  C   UNL     1      -9.425 -10.369  18.677  0.00  0.00    +0.143 C 
ATOM      9  C   UNL     1      -7.881 -10.311  18.602  0.00  0.00    +0.156 C 
ATOM     10  C   UNL     1      -7.245 -11.511  17.858  0.00  0.00    +0.116 C 
ATOM     11  C   UNL     1      -8.061 -12.813  18.026  0.00  0.00    +0.166 C 
ATOM     12  C   UNL     1      -9.904 -11.829  18.785  0.00  0.00    +0.270 C 
ATOM     13  C   UNL     1      -8.256 -13.243  19.468  0.00  0.00    +0.196 C 
ENDROOT
BRANCH   8   5
ATOM      5  N   UNL     1     -10.024  -9.731  17.504  0.00  0.00    -0.290 NA
ATOM      7  N   UNL     1     -11.568  -7.781  16.099  0.00  0.00    -0.327 N 
ATOM     14  C   UNL     1      -9.528  -8.358  17.353  0.00  0.00    +0.104 C 
ATOM     15  C   UNL     1     -11.488  -9.724  17.614  0.00  0.00    +0.104 C 
ATOM     16  C   UNL     1     -10.104  -7.699  16.098  0.00  0.00    +0.120 C 
ATOM     17  C   UNL     1     -12.129  -9.112  16.367  0.00  0.00    +0.120 C 
BRANCH   7  19
ATOM     19  C   UNL     1     -12.313  -6.900  15.308  0.00  0.00    +0.030 A 
ATOM     21  C   UNL     1     -11.678  -5.851  14.644  0.00  0.00    +0.023 A 
ATOM     22  C   UNL     1     -13.692  -7.070  15.185  0.00  0.00    +0.023 A 
ATOM     25  C   UNL     1     -12.421  -4.973  13.856  0.00  0.00    +0.002 A 
ATOM     26  C   UNL     1     -14.435  -6.191  14.396  0.00  0.00    +0.002 A 
ATOM     29  C   UNL     1     -13.800  -5.142  13.732  0.00  0.00    +0.000 A 
ENDBRANCH   7  19
ENDBRANCH   8   5
BRANCH   9   3
ATOM      3  O   UNL     1      -7.383 -10.294  19.948  0.00  0.00    -0.388 OA
ATOM     33  H   UNL     1      -6.939  -9.440  20.085  0.00  0.00    +0.210 HD
ENDBRANCH   9   3
BRANCH  10   6
ATOM      6  N   UNL     1      -7.130 -11.225  16.423  0.00  0.00    -0.305 NA
ATOM     32  H   UNL     1      -8.062 -11.130  16.019  0.00  0.00    +0.123 HD
BRANCH   6  18
ATOM     18  C   UNL     1      -6.362 -10.013  16.205  0.00  0.00    +0.120 C 
BRANCH  18  20
ATOM     20  C   UNL     1      -4.977 -10.309  15.696  0.00  0.00    +0.008 A 
ATOM     23  C   UNL     1      -4.751 -10.549  14.340  0.00  0.00    +0.124 A 
ATOM     24  C   UNL     1      -3.913 -10.344  16.597  0.00  0.00    +0.008 A 
ATOM     27  C   UNL     1      -3.461 -10.824  13.886  0.00  0.00    +0.046 A 
ATOM     28  C   UNL     1      -2.622 -10.618  16.143  0.00  0.00    +0.001 A 
ATOM     30  C   UNL     1      -2.397 -10.858  14.788  0.00  0.00    +0.004 A 
BRANCH  23   4
ATOM      4  O   UNL     1      -5.780 -10.521  13.447  0.00  0.00    -0.495 OA
ATOM     31  C   UNL     1      -5.619  -9.685  12.302  0.00  0.00    +0.277 C 
ENDBRANCH  23   4
ENDBRANCH  18  20
ENDBRANCH   6  18
ENDBRANCH  10   6
TORSDOF 7
ENDMDL
MODEL 7
REMARK VINA RESULT:      -6.3     27.397     29.415
REMARK  Name = 28960475
REMARK  8 active torsions:
REMARK  status: ('A' for Active; 'I' for Inactive)
REMARK    1  A    between atoms: O_3  and  C_9
REMARK    2  A    between atoms: O_4  and  C_23
REMARK    3  A    between atoms: O_4  and  C_31
REMARK    4  A    between atoms: N_5  and  C_8
REMARK    5  A    between atoms: N_6  and  C_10
REMARK    6  A    between atoms: N_6  and  C_18
REMARK    7  A    between atoms: N_7  and  C_19
REMARK    8  A    between atoms: C_18  and  C_20
REMARK                            x       y       z     vdW  Elec       q    Type
REMARK                         _______ _______ _______ _____ _____    ______ ____
ROOT
ATOM      1  O   UNL     1      -2.474 -10.302  13.501  0.00  0.00    -0.343 OA
ATOM      2  O   UNL     1      -1.493 -12.352  13.038  0.00  0.00    -0.347 OA
ATOM      8  C   UNL     1      -3.625 -11.826  12.026  0.00  0.00    +0.143 C 
ATOM      9  C   UNL     1      -4.374 -12.448  13.228  0.00  0.00    +0.156 C 
ATOM     10  C   UNL     1      -4.101 -11.732  14.574  0.00  0.00    +0.116 C 
ATOM     11  C   UNL     1      -2.678 -11.133  14.649  0.00  0.00    +0.166 C 
ATOM     12  C   UNL     1      -2.257 -11.275  12.471  0.00  0.00    +0.270 C 
ATOM     13  C   UNL     1      -1.565 -12.147  14.456  0.00  0.00    +0.196 C 
ENDROOT
BRANCH   8   5
ATOM      5  N   UNL     1      -4.420 -10.759  11.417  0.00  0.00    -0.290 NA
ATOM      7  N   UNL     1      -5.963  -9.502   9.367  0.00  0.00    -0.327 N 
ATOM     14  C   UNL     1      -5.772 -11.238  11.104  0.00  0.00    +0.104 C 
ATOM     15  C   UNL     1      -3.771 -10.266  10.196  0.00  0.00    +0.104 C 
ATOM     16  C   UNL     1      -6.632 -10.116  10.518  0.00  0.00    +0.120 C 
ATOM     17  C   UNL     1      -4.563  -9.111   9.581  0.00  0.00    +0.120 C 
BRANCH   7  19
ATOM     19  C   UNL     1      -6.712  -8.779   8.432  0.00  0.00    +0.030 A 
ATOM     21  C   UNL     1      -7.449  -7.668   8.838  0.00  0.00    +0.023 A 
ATOM     22  C   UNL     1      -6.722  -9.172   7.094  0.00  0.00    +0.023 A 
ATOM     25  C   UNL     1      -8.196  -6.948   7.906  0.00  0.00    +0.002 A 
ATOM     26  C   UNL     1      -7.469  -8.452   6.161  0.00  0.00    +0.002 A 
ATOM     29  C   UNL     1      -8.206  -7.339   6.568  0.00  0.00    +0.000 A 
ENDBRANCH   7  19
ENDBRANCH   8   5
BRANCH   9   3
ATOM      3  O   UNL     1      -3.948 -13.814  13.344  0.00  0.00    -0.388 OA
ATOM     33  H   UNL     1      -3.729 -13.975  14.277  0.00  0.00    +0.210 HD
ENDBRANCH   9   3
BRANCH  10   6
ATOM      6  N   UNL     1      -5.066 -10.648  14.785  0.00  0.00    -0.305 NA
ATOM     32  H   UNL     1      -6.003 -11.039  14.880  0.00  0.00    +0.123 HD
BRANCH   6  18
ATOM     18  C   UNL     1      -4.720  -9.879  15.967  0.00  0.00    +0.120 C 
BRANCH  18  20
ATOM     20  C   UNL     1      -5.380 -10.426  17.205  0.00  0.00    +0.008 A 
ATOM     23  C   UNL     1      -6.746 -10.248  17.423  0.00  0.00    +0.124 A 
ATOM     24  C   UNL     1      -4.608 -11.117  18.139  0.00  0.00    +0.008 A 
ATOM     27  C   UNL     1      -7.340 -10.760  18.576  0.00  0.00    +0.046 A 
ATOM     28  C   UNL     1      -5.203 -11.630  19.293  0.00  0.00    +0.001 A 
ATOM     30  C   UNL     1      -6.569 -11.451  19.511  0.00  0.00    +0.004 A 
BRANCH  23   4
ATOM      4  O   UNL     1      -7.513  -9.575  16.520  0.00  0.00    -0.495 OA
ATOM     31  C   UNL     1      -8.590  -8.796  17.040  0.00  0.00    +0.277 C 
ENDBRANCH  23   4
ENDBRANCH  18  20
ENDBRANCH   6  18
ENDBRANCH  10   6
TORSDOF 7
ENDMDL
MODEL 8
REMARK VINA RESULT:      -6.3     27.293     29.742
REMARK  Name = 28960475
REMARK  8 active torsions:
REMARK  status: ('A' for Active; 'I' for Inactive)
REMARK    1  A    between atoms: O_3  and  C_9
REMARK    2  A    between atoms: O_4  and  C_23
REMARK    3  A    between atoms: O_4  and  C_31
REMARK    4  A    between atoms: N_5  and  C_8
REMARK    5  A    between atoms: N_6  and  C_10
REMARK    6  A    between atoms: N_6  and  C_18
REMARK    7  A    between atoms: N_7  and  C_19
REMARK    8  A    between atoms: C_18  and  C_20
REMARK                            x       y       z     vdW  Elec       q    Type
REMARK                         _______ _______ _______ _____ _____    ______ ____
ROOT
ATOM      1  O   UNL     1      -3.764 -13.098  13.098  0.00  0.00    -0.343 OA
ATOM      2  O   UNL     1      -2.209 -14.100  14.497  0.00  0.00    -0.347 OA
ATOM      8  C   UNL     1      -3.484 -12.222  15.329  0.00  0.00    +0.143 C 
ATOM      9  C   UNL     1      -2.404 -11.237  14.823  0.00  0.00    +0.156 C 
ATOM     10  C   UNL     1      -2.208 -11.257  13.287  0.00  0.00    +0.116 C 
ATOM     11  C   UNL     1      -2.471 -12.652  12.674  0.00  0.00    +0.166 C 
ATOM     12  C   UNL     1      -3.509 -13.488  14.454  0.00  0.00    +0.270 C 
ATOM     13  C   UNL     1      -1.599 -13.756  13.244  0.00  0.00    +0.196 C 
ENDROOT
BRANCH   8   5
ATOM      5  N   UNL     1      -4.803 -11.587  15.330  0.00  0.00    -0.290 NA
ATOM      7  N   UNL     1      -7.169 -10.493  16.498  0.00  0.00    -0.327 N 
ATOM     14  C   UNL     1      -4.756 -10.302  16.039  0.00  0.00    +0.104 C 
ATOM     15  C   UNL     1      -5.796 -12.468  15.956  0.00  0.00    +0.104 C 
ATOM     16  C   UNL     1      -6.117  -9.602  15.999  0.00  0.00    +0.120 C 
ATOM     17  C   UNL     1      -7.191 -11.840  15.912  0.00  0.00    +0.120 C 
BRANCH   7  19
ATOM     19  C   UNL     1      -8.378  -9.954  16.952  0.00  0.00    +0.030 A 
ATOM     21  C   UNL     1      -8.616  -8.585  16.841  0.00  0.00    +0.023 A 
ATOM     22  C   UNL     1      -9.343 -10.786  17.518  0.00  0.00    +0.023 A 
ATOM     25  C   UNL     1      -9.820  -8.047  17.294  0.00  0.00    +0.002 A 
ATOM     26  C   UNL     1     -10.548 -10.249  17.972  0.00  0.00    +0.002 A 
ATOM     29  C   UNL     1     -10.786  -8.879  17.860  0.00  0.00    +0.000 A 
ENDBRANCH   7  19
ENDBRANCH   8   5
BRANCH   9   3
ATOM      3  O   UNL     1      -1.162 -11.598  15.445  0.00  0.00    -0.388 OA
ATOM     33  H   UNL     1      -1.071 -12.564  15.379  0.00  0.00    +0.210 HD
ENDBRANCH   9   3
BRANCH  10   6
ATOM      6  N   UNL     1      -3.108 -10.297  12.640  0.00  0.00    -0.305 NA
ATOM     32  H   UNL     1      -3.122  -9.429  13.176  0.00  0.00    +0.123 HD
BRANCH   6  18
ATOM     18  C   UNL     1      -2.684 -10.038  11.276  0.00  0.00    +0.120 C 
BRANCH  18  20
ATOM     20  C   UNL     1      -3.853  -9.776  10.364  0.00  0.00    +0.008 A 
ATOM     23  C   UNL     1      -4.311 -10.761   9.489  0.00  0.00    +0.124 A 
ATOM     24  C   UNL     1      -4.480  -8.530  10.401  0.00  0.00    +0.008 A 
ATOM     27  C   UNL     1      -5.395 -10.501   8.651  0.00  0.00    +0.046 A 
ATOM     28  C   UNL     1      -5.565  -8.270   9.563  0.00  0.00    +0.001 A 
ATOM     30  C   UNL     1      -6.022  -9.255   8.688  0.00  0.00    +0.004 A 
BRANCH  23   4
ATOM      4  O   UNL     1      -3.709 -11.983   9.440  0.00  0.00    -0.495 OA
ATOM     31  C   UNL     1      -4.552 -13.125   9.583  0.00  0.00    +0.277 C 
ENDBRANCH  23   4
ENDBRANCH  18  20
ENDBRANCH   6  18
ENDBRANCH  10   6
TORSDOF 7
ENDMDL
MODEL 9
REMARK VINA RESULT:      -6.2     27.962     29.764
REMARK  Name = 28960475
REMARK  8 active torsions:
REMARK  status: ('A' for Active; 'I' for Inactive)
REMARK    1  A    between atoms: O_3  and  C_9
REMARK    2  A    between atoms: O_4  and  C_23
REMARK    3  A    between atoms: O_4  and  C_31
REMARK    4  A    between atoms: N_5  and  C_8
REMARK    5  A    between atoms: N_6  and  C_10
REMARK    6  A    between atoms: N_6  and  C_18
REMARK    7  A    between atoms: N_7  and  C_19
REMARK    8  A    between atoms: C_18  and  C_20
REMARK                            x       y       z     vdW  Elec       q    Type
REMARK                         _______ _______ _______ _____ _____    ______ ____
ROOT
ATOM      1  O   UNL     1      -4.862 -10.295  17.828  0.00  0.00    -0.343 OA
ATOM      2  O   UNL     1      -3.925 -12.232  18.693  0.00  0.00    -0.347 OA
ATOM      8  C   UNL     1      -4.736 -12.248  16.416  0.00  0.00    +0.143 C 
ATOM      9  C   UNL     1      -6.135 -12.703  16.894  0.00  0.00    +0.156 C 
ATOM     10  C   UNL     1      -6.839 -11.686  17.826  0.00  0.00    +0.116 C 
ATOM     11  C   UNL     1      -5.840 -10.884  18.691  0.00  0.00    +0.166 C 
ATOM     12  C   UNL     1      -4.035 -11.423  17.510  0.00  0.00    +0.270 C 
ATOM     13  C   UNL     1      -4.950 -11.743  19.571  0.00  0.00    +0.196 C 
ENDROOT
BRANCH   8   5
ATOM      5  N   UNL     1      -4.841 -11.463  15.186  0.00  0.00    -0.290 NA
ATOM      7  N   UNL     1      -4.674 -10.985  12.374  0.00  0.00    -0.327 N 
ATOM     14  C   UNL     1      -5.817 -12.065  14.270  0.00  0.00    +0.104 C 
ATOM     15  C   UNL     1      -3.533 -11.363  14.526  0.00  0.00    +0.104 C 
ATOM     16  C   UNL     1      -5.977 -11.221  13.003  0.00  0.00    +0.120 C 
ATOM     17  C   UNL     1      -3.617 -10.495  13.269  0.00  0.00    +0.120 C 
BRANCH   7  19
ATOM     19  C   UNL     1      -4.609 -10.627  11.023  0.00  0.00    +0.030 A 
ATOM     21  C   UNL     1      -4.163  -9.358  10.658  0.00  0.00    +0.023 A 
ATOM     22  C   UNL     1      -4.993 -11.541  10.041  0.00  0.00    +0.023 A 
ATOM     25  C   UNL     1      -4.099  -9.002   9.311  0.00  0.00    +0.002 A 
ATOM     26  C   UNL     1      -4.929 -11.185   8.694  0.00  0.00    +0.002 A 
ATOM     29  C   UNL     1      -4.482  -9.915   8.329  0.00  0.00    +0.000 A 
ENDBRANCH   7  19
ENDBRANCH   8   5
BRANCH   9   3
ATOM      3  O   UNL     1      -5.968 -13.936  17.610  0.00  0.00    -0.388 OA
ATOM     33  H   UNL     1      -6.660 -14.548  17.304  0.00  0.00    +0.210 HD
ENDBRANCH   9   3
BRANCH  10   6
ATOM      6  N   UNL     1      -7.633 -10.733  17.042  0.00  0.00    -0.305 NA
ATOM     32  H   UNL     1      -8.456 -11.204  16.666  0.00  0.00    +0.123 HD
BRANCH   6  18
ATOM     18  C   UNL     1      -8.031  -9.604  17.863  0.00  0.00    +0.120 C 
BRANCH  18  20
ATOM     20  C   UNL     1      -9.464  -9.211  17.620  0.00  0.00    +0.008 A 
ATOM     23  C   UNL     1     -10.509 -10.050  18.008  0.00  0.00    +0.124 A 
ATOM     24  C   UNL     1      -9.741  -7.994  16.998  0.00  0.00    +0.008 A 
ATOM     27  C   UNL     1     -11.831  -9.670  17.774  0.00  0.00    +0.046 A 
ATOM     28  C   UNL     1     -11.063  -7.614  16.764  0.00  0.00    +0.001 A 
ATOM     30  C   UNL     1     -12.107  -8.452  17.152  0.00  0.00    +0.004 A 
BRANCH  23   4
ATOM      4  O   UNL     1     -10.256 -11.243  18.615  0.00  0.00    -0.495 OA
ATOM     31  C   UNL     1     -10.530 -11.329  20.013  0.00  0.00    +0.277 C 
ENDBRANCH  23   4
ENDBRANCH  18  20
ENDBRANCH   6  18
ENDBRANCH  10   6
TORSDOF 7
ENDMDL
MODEL 10
REMARK VINA RESULT:      -6.2     27.327     29.969
REMARK  Name = 28960475
REMARK  8 active torsions:
REMARK  status: ('A' for Active; 'I' for Inactive)
REMARK    1  A    between atoms: O_3  and  C_9
REMARK    2  A    between atoms: O_4  and  C_23
REMARK    3  A    between atoms: O_4  and  C_31
REMARK    4  A    between atoms: N_5  and  C_8
REMARK    5  A    between atoms: N_6  and  C_10
REMARK    6  A    between atoms: N_6  and  C_18
REMARK    7  A    between atoms: N_7  and  C_19
REMARK    8  A    between atoms: C_18  and  C_20
REMARK                            x       y       z     vdW  Elec       q    Type
REMARK                         _______ _______ _______ _____ _____    ______ ____
ROOT
ATOM      1  O   UNL     1      -9.385 -12.414  16.249  0.00  0.00    -0.343 OA
ATOM      2  O   UNL     1     -10.507 -10.778  17.452  0.00  0.00    -0.347 OA
ATOM      8  C   UNL     1      -8.506 -10.166  16.241  0.00  0.00    +0.143 C 
ATOM      9  C   UNL     1      -7.634 -10.486  17.477  0.00  0.00    +0.156 C 
ATOM     10  C   UNL     1      -7.695 -11.969  17.919  0.00  0.00    +0.116 C 
ATOM     11  C   UNL     1      -9.068 -12.618  17.630  0.00  0.00    +0.166 C 
ATOM     12  C   UNL     1      -9.778 -11.034  16.240  0.00  0.00    +0.270 C 
ATOM     13  C   UNL     1     -10.240 -11.913  18.289  0.00  0.00    +0.196 C 
ENDROOT
BRANCH   8   5
ATOM      5  N   UNL     1      -7.752 -10.381  15.005  0.00  0.00    -0.290 NA
ATOM      7  N   UNL     1      -6.250  -9.615  12.700  0.00  0.00    -0.327 N 
ATOM     14  C   UNL     1      -6.379  -9.881  15.145  0.00  0.00    +0.104 C 
ATOM     15  C   UNL     1      -8.414  -9.716  13.877  0.00  0.00    +0.104 C 
ATOM     16  C   UNL     1      -5.563 -10.151  13.879  0.00  0.00    +0.120 C 
ATOM     17  C   UNL     1      -7.666  -9.982  12.568  0.00  0.00    +0.120 C 
BRANCH   7  19
ATOM     19  C   UNL     1      -5.525  -9.360  11.530  0.00  0.00    +0.030 A 
ATOM     21  C   UNL     1      -4.167  -9.667  11.470  0.00  0.00    +0.023 A 
ATOM     22  C   UNL     1      -6.162  -8.797  10.424  0.00  0.00    +0.023 A 
ATOM     25  C   UNL     1      -3.445  -9.413  10.305  0.00  0.00    +0.002 A 
ATOM     26  C   UNL     1      -5.440  -8.542   9.258  0.00  0.00    +0.002 A 
ATOM     29  C   UNL     1      -4.081  -8.850   9.199  0.00  0.00    +0.000 A 
ENDBRANCH   7  19
ENDBRANCH   8   5
BRANCH   9   3
ATOM      3  O   UNL     1      -8.100  -9.668  18.560  0.00  0.00    -0.388 OA
ATOM     33  H   UNL     1      -8.555  -8.901  18.174  0.00  0.00    +0.210 HD
ENDBRANCH   9   3
BRANCH  10   6
ATOM      6  N   UNL     1      -6.664 -12.755  17.232  0.00  0.00    -0.305 NA
ATOM     32  H   UNL     1      -6.614 -12.469  16.254  0.00  0.00    +0.123 HD
BRANCH   6  18
ATOM     18  C   UNL     1      -5.374 -12.576  17.873  0.00  0.00    +0.120 C 
BRANCH  18  20
ATOM     20  C   UNL     1      -4.306 -12.186  16.886  0.00  0.00    +0.008 A 
ATOM     23  C   UNL     1      -4.080 -12.949  15.741  0.00  0.00    +0.124 A 
ATOM     24  C   UNL     1      -3.537 -11.047  17.129  0.00  0.00    +0.008 A 
ATOM     27  C   UNL     1      -3.085 -12.573  14.838  0.00  0.00    +0.046 A 
ATOM     28  C   UNL     1      -2.542 -10.671  16.225  0.00  0.00    +0.001 A 
ATOM     30  C   UNL     1      -2.317 -11.435  15.080  0.00  0.00    +0.004 A 
BRANCH  23   4
ATOM      4  O   UNL     1      -4.821 -14.064  15.489  0.00  0.00    -0.495 OA
ATOM     31  C   UNL     1      -5.138 -14.337  14.125  0.00  0.00    +0.277 C 
ENDBRANCH  23   4
ENDBRANCH  18  20
ENDBRANCH   6  18
ENDBRANCH  10   6
TORSDOF 7
ENDMDL
