REMARK  Name = 40777893
REMARK  11 active torsions:
REMARK  status: ('A' for Active; 'I' for Inactive)
REMARK    1  A    between atoms: S_1  and  N_10
REMARK    2  A    between atoms: S_1  and  C_23
REMARK    3  A    between atoms: O_3  and  C_12
REMARK    4  A    between atoms: O_4  and  C_13
REMARK    5  A    between atoms: O_5  and  C_22
REMARK    6  A    between atoms: O_5  and  C_24
REMARK    7  A    between atoms: N_10  and  C_21
REMARK    8  A    between atoms: C_11  and  C_16
REMARK    9  A    between atoms: C_14  and  C_21
REMARK   10  A    between atoms: C_15  and  C_22
REMARK   11  A    between atoms: C_16  and  C_20
REMARK                            x       y       z     vdW  Elec       q    Type
REMARK                         _______ _______ _______ _____ _____    ______ ____
ROOT
ATOM      2  O   UNL     1       1.262   0.699  -0.809  0.00  0.00    -0.366 OA
ATOM     11  C   UNL     1       0.594   1.764  -0.111  0.00  0.00    +0.158 C 
ATOM     12  C   UNL     1       1.681   2.498   0.656  0.00  0.00    +0.175 C 
ATOM     13  C   UNL     1       2.850   2.396  -0.301  0.00  0.00    +0.175 C 
ATOM     14  C   UNL     1       2.678   0.989  -0.864  0.00  0.00    +0.165 C 
ENDROOT
BRANCH  12   3
ATOM      3  O   UNL     1       1.315   3.828   0.953  0.00  0.00    -0.387 OA
ATOM     25  H   UNL     1       2.094   4.267   1.335  0.00  0.00    +0.210 HD
ENDBRANCH  12   3
BRANCH  13   4
ATOM      4  O   UNL     1       2.694   3.324  -1.374  0.00  0.00    -0.387 OA
ATOM     26  H   UNL     1       3.444   3.198  -1.980  0.00  0.00    +0.210 HD
ENDBRANCH  13   4
BRANCH  11  16
ATOM     16  C   UNL     1      -0.490   1.189   0.783  0.00  0.00    +0.130 C 
BRANCH  16  20
ATOM      6  O   UNL     1      -1.710   1.042  -1.256  0.00  0.00    -0.276 OA
ATOM      9  N   UNL     1      -2.753   0.264   0.657  0.00  0.00    -0.296 N 
ATOM     15  C   UNL     1      -4.038  -0.054   0.029  0.00  0.00    +0.102 C 
ATOM     17  C   UNL     1      -4.990  -0.224   1.216  0.00  0.00    +0.026 C 
ATOM     18  C   UNL     1      -2.786  -0.004   2.093  0.00  0.00    +0.108 C 
ATOM     19  C   UNL     1      -4.087  -0.759   2.320  0.00  0.00    +0.021 C 
ATOM     20  C   UNL     1      -1.700   0.831  -0.042  0.00  0.00    +0.218 C 
BRANCH  15  22
ATOM     22  C   UNL     1      -3.945  -1.319  -0.822  0.00  0.00    +0.181 C 
BRANCH  22   5
ATOM      5  O   UNL     1      -3.460  -0.963  -2.103  0.00  0.00    -0.381 OA
ATOM     24  C   UNL     1      -3.346  -2.096  -2.957  0.00  0.00    +0.194 C 
ENDBRANCH  22   5
ENDBRANCH  15  22
ENDBRANCH  16  20
ENDBRANCH  11  16
BRANCH  14  21
ATOM     21  C   UNL     1       3.403  -0.072  -0.048  0.00  0.00    +0.139 C 
BRANCH  21  10
ATOM     10  N   UNL     1       3.212  -1.377  -0.609  0.00  0.00    -0.192 NA
ATOM     27  H   UNL     1       3.622  -1.500  -1.544  0.00  0.00    +0.148 HD
BRANCH  10   1
ATOM      1  S   UNL     1       3.243  -2.777   0.403  0.00  0.00    +0.027 S 
ATOM      7  O   UNL     1       3.303  -3.961  -0.431  0.00  0.00    -0.158 OA
ATOM      8  O   UNL     1       2.238  -2.651   1.442  0.00  0.00    -0.158 OA
ATOM     23  C   UNL     1       4.832  -2.569   1.174  0.00  0.00    +0.214 C 
ENDBRANCH  10   1
ENDBRANCH  21  10
ENDBRANCH  14  21
TORSDOF 9
