REMARK  Name = 25389790
REMARK  9 active torsions:
REMARK  status: ('A' for Active; 'I' for Inactive)
REMARK    1  A    between atoms: O_3  and  C_22
REMARK    2  A    between atoms: O_3  and  C_34
REMARK    3  A    between atoms: N_7  and  C_13
REMARK    4  A    between atoms: N_7  and  C_23
REMARK    5  A    between atoms: N_9  and  C_28
REMARK    6  A    between atoms: C_11  and  C_19
REMARK    7  A    between atoms: C_15  and  C_22
REMARK    8  A    between atoms: C_23  and  C_28
REMARK    9  A    between atoms: C_35  and  C_36
REMARK                            x       y       z     vdW  Elec       q    Type
REMARK                         _______ _______ _______ _____ _____    ______ ____
ROOT
ATOM      6  N   UNL     1      -1.019   0.060   1.055  0.00  0.00    -0.274 NA
ATOM      8  N   UNL     1       2.232   1.951   0.626  0.00  0.00    -0.356 N 
ATOM     10  C   UNL     1       0.414   0.326   1.447  0.00  0.00    +0.106 C 
ATOM     11  C   UNL     1      -1.124  -0.545  -0.309  0.00  0.00    +0.090 C 
ATOM     12  C   UNL     1       1.325  -0.894   1.258  0.00  0.00    +0.044 C 
ATOM     13  C   UNL     1       1.261  -1.434  -0.167  0.00  0.00    +0.057 C 
ATOM     14  C   UNL     1      -0.190  -1.769  -0.491  0.00  0.00    +0.042 C 
ATOM     15  C   UNL     1      -1.776   1.341   1.250  0.00  0.00    +0.172 C 
ATOM     16  C   UNL     1       0.926   1.579   0.780  0.00  0.00    +0.038 A 
ATOM     17  C   UNL     1      -1.355   2.491   0.305  0.00  0.00    +0.068 C 
ATOM     18  C   UNL     1       0.132   2.586   0.266  0.00  0.00    -0.016 A 
ATOM     20  C   UNL     1       0.988   3.594  -0.252  0.00  0.00    +0.003 A 
ATOM     21  C   UNL     1       2.299   3.171  -0.014  0.00  0.00    +0.047 A 
ATOM     26  C   UNL     1       0.780   4.828  -0.899  0.00  0.00    +0.010 A 
ATOM     27  C   UNL     1       3.415   3.926  -0.394  0.00  0.00    +0.026 A 
ATOM     29  C   UNL     1       1.887   5.592  -1.285  0.00  0.00    +0.001 A 
ATOM     32  C   UNL     1       3.183   5.146  -1.036  0.00  0.00    +0.002 A 
ATOM     38  H   UNL     1       3.036   1.417   0.927  0.00  0.00    +0.166 HD
ENDROOT
BRANCH  11  19
ATOM      1  F   UNL     1      -5.086  -3.308   0.510  0.00  0.00    -0.202 F 
ATOM      2  F   UNL     1      -6.322  -2.285  -1.705  0.00  0.00    -0.202 F 
ATOM     19  C   UNL     1      -2.527  -1.015  -0.686  0.00  0.00    -0.027 A 
ATOM     24  C   UNL     1      -3.179  -1.966   0.099  0.00  0.00    +0.046 A 
ATOM     25  C   UNL     1      -3.157  -0.493  -1.815  0.00  0.00    +0.008 A 
ATOM     30  C   UNL     1      -4.460  -2.395  -0.245  0.00  0.00    +0.159 A 
ATOM     31  C   UNL     1      -4.439  -0.922  -2.160  0.00  0.00    +0.041 A 
ATOM     33  C   UNL     1      -5.091  -1.873  -1.374  0.00  0.00    +0.158 A 
ENDBRANCH  11  19
BRANCH  15  22
ATOM      4  O   UNL     1      -4.025   1.708   0.489  0.00  0.00    -0.249 OA
ATOM     22  C   UNL     1      -3.251   1.113   1.226  0.00  0.00    +0.325 C 
BRANCH  22   3
ATOM      3  O   UNL     1      -3.579   0.156   2.140  0.00  0.00    -0.467 OA
ATOM     34  C   UNL     1      -4.972  -0.164   2.223  0.00  0.00    +0.280 C 
ENDBRANCH  22   3
ENDBRANCH  15  22
BRANCH  13   7
ATOM      7  N   UNL     1       2.096  -2.627  -0.308  0.00  0.00    -0.312 NA
ATOM     37  H   UNL     1       1.803  -3.154  -1.131  0.00  0.00    +0.122 HD
BRANCH   7  23
ATOM     23  C   UNL     1       3.495  -2.261  -0.460  0.00  0.00    +0.100 C 
BRANCH  23  28
ATOM     28  C   UNL     1       4.350  -3.506  -0.646  0.00  0.00    +0.119 C 
BRANCH  28   9
ATOM      5  O   UNL     1       6.374  -3.205   1.414  0.00  0.00    -0.276 OA
ATOM      9  N   UNL     1       5.735  -3.164  -0.825  0.00  0.00    -0.314 N 
ATOM     35  C   UNL     1       6.635  -3.042   0.225  0.00  0.00    +0.210 C 
ATOM     36  C   UNL     1       8.024  -2.701  -0.243  0.00  0.00    +0.109 C 
ATOM     39  H   UNL     1       6.062  -3.004  -1.774  0.00  0.00    +0.149 HD
ENDBRANCH  28   9
ENDBRANCH  23  28
ENDBRANCH   7  23
ENDBRANCH  13   7
TORSDOF 7
