MODEL 1
REMARK VINA RESULT:      -8.1      0.000      0.000
REMARK  Name = 7142734
REMARK  5 active torsions:
REMARK  status: ('A' for Active; 'I' for Inactive)
REMARK    1  A    between atoms: O_4  and  C_22
REMARK    2  A    between atoms: O_4  and  C_24
REMARK    3  A    between atoms: N_8  and  C_20
REMARK    4  A    between atoms: N_9  and  C_27
REMARK    5  A    between atoms: C_19  and  C_22
REMARK                            x       y       z     vdW  Elec       q    Type
REMARK                         _______ _______ _______ _____ _____    ______ ____
ROOT
ATOM      2  O   UNL     1      12.165   9.243  16.936  0.00  0.00    -0.266 OA
ATOM      3  O   UNL     1      10.503   9.102  22.025  0.00  0.00    -0.272 OA
ATOM      6  N   UNL     1      12.697   8.360  21.854  0.00  0.00    -0.298 N 
ATOM      7  N   UNL     1      13.496   8.688  18.775  0.00  0.00    -0.310 N 
ATOM     10  C   UNL     1      13.126   6.570  20.164  0.00  0.00    +0.027 C 
ATOM     11  C   UNL     1      14.928   8.130  20.772  0.00  0.00    +0.054 C 
ATOM     12  C   UNL     1      14.619   6.668  20.455  0.00  0.00    +0.018 C 
ATOM     13  C   UNL     1      12.307   7.030  21.383  0.00  0.00    +0.113 C 
ATOM     14  C   UNL     1      12.809   7.397  18.913  0.00  0.00    +0.130 C 
ATOM     15  C   UNL     1      14.144   8.562  22.027  0.00  0.00    +0.117 C 
ATOM     16  C   UNL     1      14.568   9.030  19.605  0.00  0.00    +0.027 A 
ATOM     17  C   UNL     1      15.258  10.163  19.387  0.00  0.00    +0.024 A 
ATOM     18  C   UNL     1      13.090   9.511  17.705  0.00  0.00    +0.273 A 
ATOM     19  C   UNL     1      11.712   9.292  22.179  0.00  0.00    +0.253 C 
ATOM     20  C   UNL     1      13.868  10.776  17.511  0.00  0.00    +0.100 A 
ATOM     21  C   UNL     1      14.897  11.052  18.320  0.00  0.00    +0.030 A 
ENDROOT
BRANCH  20   8
ATOM      5  O   UNL     1      14.509  10.444  14.760  0.00  0.00    -0.252 OA
ATOM      8  N   UNL     1      13.498  11.606  16.493  0.00  0.00    -0.265 N 
ATOM      9  N   UNL     1      13.312  12.423  14.357  0.00  0.00    -0.269 N 
ATOM     23  C   UNL     1      13.840  11.399  15.151  0.00  0.00    +0.308 C 
ATOM     36  H   UNL     1      13.176  12.534  16.752  0.00  0.00    +0.157 HD
ATOM     37  H   UNL     1      12.776  13.141  14.838  0.00  0.00    +0.156 HD
BRANCH   9  27
ATOM      1  F   UNL     1      11.411  12.195   9.955  0.00  0.00    -0.205 F 
ATOM     27  C   UNL     1      13.428  12.585  12.957  0.00  0.00    +0.037 A 
ATOM     31  C   UNL     1      12.341  12.304  12.130  0.00  0.00    +0.061 A 
ATOM     32  C   UNL     1      14.630  13.027  12.404  0.00  0.00    +0.023 A 
ATOM     33  C   UNL     1      12.455  12.465  10.749  0.00  0.00    +0.125 A 
ATOM     34  C   UNL     1      14.744  13.187  11.023  0.00  0.00    +0.005 A 
ATOM     35  C   UNL     1      13.657  12.907  10.196  0.00  0.00    +0.038 A 
ENDBRANCH   9  27
ENDBRANCH  20   8
BRANCH  19  22
ATOM     22  C   UNL     1      12.186  10.607  22.745  0.00  0.00    +0.324 C 
BRANCH  22   4
ATOM      4  O   UNL     1      11.413  10.851  23.895  0.00  0.00    -0.483 OA
BRANCH   4  24
ATOM     24  C   UNL     1      11.006  12.148  24.119  0.00  0.00    +0.121 A 
ATOM     25  C   UNL     1      10.689  12.976  23.043  0.00  0.00    +0.045 A 
ATOM     26  C   UNL     1      10.912  12.633  25.424  0.00  0.00    +0.045 A 
ATOM     28  C   UNL     1      10.277  14.289  23.271  0.00  0.00    +0.004 A 
ATOM     29  C   UNL     1      10.500  13.946  25.651  0.00  0.00    +0.004 A 
ATOM     30  C   UNL     1      10.182  14.774  24.574  0.00  0.00    +0.000 A 
ENDBRANCH   4  24
ENDBRANCH  22   4
ENDBRANCH  19  22
TORSDOF 5
ENDMDL
MODEL 2
REMARK VINA RESULT:      -7.8      3.103      5.788
REMARK  Name = 7142734
REMARK  5 active torsions:
REMARK  status: ('A' for Active; 'I' for Inactive)
REMARK    1  A    between atoms: O_4  and  C_22
REMARK    2  A    between atoms: O_4  and  C_24
REMARK    3  A    between atoms: N_8  and  C_20
REMARK    4  A    between atoms: N_9  and  C_27
REMARK    5  A    between atoms: C_19  and  C_22
REMARK                            x       y       z     vdW  Elec       q    Type
REMARK                         _______ _______ _______ _____ _____    ______ ____
ROOT
ATOM      2  O   UNL     1      14.059  11.783  18.258  0.00  0.00    -0.266 OA
ATOM      3  O   UNL     1      15.444   8.681  22.399  0.00  0.00    -0.272 OA
ATOM      6  N   UNL     1      13.527   7.871  21.366  0.00  0.00    -0.298 N 
ATOM      7  N   UNL     1      13.006   9.785  18.858  0.00  0.00    -0.310 N 
ATOM     10  C   UNL     1      11.678   9.517  21.030  0.00  0.00    +0.027 C 
ATOM     11  C   UNL     1      11.906   7.610  19.495  0.00  0.00    +0.054 C 
ATOM     12  C   UNL     1      10.894   8.463  20.257  0.00  0.00    +0.018 C 
ATOM     13  C   UNL     1      12.653   8.850  22.015  0.00  0.00    +0.113 C 
ATOM     14  C   UNL     1      12.401  10.429  20.032  0.00  0.00    +0.130 C 
ATOM     15  C   UNL     1      12.843   6.904  20.496  0.00  0.00    +0.117 C 
ATOM     16  C   UNL     1      12.722   8.455  18.535  0.00  0.00    +0.027 A 
ATOM     17  C   UNL     1      13.191   7.921  17.395  0.00  0.00    +0.024 A 
ATOM     18  C   UNL     1      13.797  10.602  18.025  0.00  0.00    +0.273 A 
ATOM     19  C   UNL     1      14.889   7.859  21.665  0.00  0.00    +0.253 C 
ATOM     20  C   UNL     1      14.322   9.962  16.777  0.00  0.00    +0.100 A 
ATOM     21  C   UNL     1      14.008   8.691  16.501  0.00  0.00    +0.030 A 
ENDROOT
BRANCH  20   8
ATOM      5  O   UNL     1      13.496  11.184  14.345  0.00  0.00    -0.252 OA
ATOM      8  N   UNL     1      15.102  10.716  15.950  0.00  0.00    -0.265 N 
ATOM      9  N   UNL     1      15.686  12.005  14.143  0.00  0.00    -0.269 N 
ATOM     23  C   UNL     1      14.648  11.298  14.759  0.00  0.00    +0.308 C 
ATOM     36  H   UNL     1      16.108  10.645  16.077  0.00  0.00    +0.157 HD
ATOM     37  H   UNL     1      16.584  12.003  14.620  0.00  0.00    +0.156 HD
BRANCH   9  27
ATOM      1  F   UNL     1      16.264  12.224   9.383  0.00  0.00    -0.205 F 
ATOM     27  C   UNL     1      15.642  12.731  12.930  0.00  0.00    +0.037 A 
ATOM     31  C   UNL     1      15.982  12.107  11.730  0.00  0.00    +0.061 A 
ATOM     32  C   UNL     1      15.259  14.072  12.935  0.00  0.00    +0.023 A 
ATOM     33  C   UNL     1      15.939  12.824  10.535  0.00  0.00    +0.125 A 
ATOM     34  C   UNL     1      15.216  14.789  11.739  0.00  0.00    +0.005 A 
ATOM     35  C   UNL     1      15.555  14.165  10.539  0.00  0.00    +0.038 A 
ENDBRANCH   9  27
ENDBRANCH  20   8
BRANCH  19  22
ATOM     22  C   UNL     1      15.710   6.764  21.032  0.00  0.00    +0.324 C 
BRANCH  22   4
ATOM      4  O   UNL     1      16.822   7.388  20.438  0.00  0.00    -0.483 OA
BRANCH   4  24
ATOM     24  C   UNL     1      18.064   6.856  20.706  0.00  0.00    +0.121 A 
ATOM     25  C   UNL     1      18.866   7.421  21.698  0.00  0.00    +0.045 A 
ATOM     26  C   UNL     1      18.520   5.753  19.985  0.00  0.00    +0.045 A 
ATOM     28  C   UNL     1      20.123   6.882  21.970  0.00  0.00    +0.004 A 
ATOM     29  C   UNL     1      19.778   5.214  20.257  0.00  0.00    +0.004 A 
ATOM     30  C   UNL     1      20.579   5.778  21.250  0.00  0.00    +0.000 A 
ENDBRANCH   4  24
ENDBRANCH  22   4
ENDBRANCH  19  22
TORSDOF 5
ENDMDL
MODEL 3
REMARK VINA RESULT:      -7.8     27.457     28.768
REMARK  Name = 7142734
REMARK  5 active torsions:
REMARK  status: ('A' for Active; 'I' for Inactive)
REMARK    1  A    between atoms: O_4  and  C_22
REMARK    2  A    between atoms: O_4  and  C_24
REMARK    3  A    between atoms: N_8  and  C_20
REMARK    4  A    between atoms: N_9  and  C_27
REMARK    5  A    between atoms: C_19  and  C_22
REMARK                            x       y       z     vdW  Elec       q    Type
REMARK                         _______ _______ _______ _____ _____    ______ ____
ROOT
ATOM      2  O   UNL     1      -5.339 -12.158   9.618  0.00  0.00    -0.266 OA
ATOM      3  O   UNL     1      -6.101 -12.309  14.917  0.00  0.00    -0.272 OA
ATOM      6  N   UNL     1      -3.836 -12.369  14.408  0.00  0.00    -0.298 N 
ATOM      7  N   UNL     1      -3.645 -12.110  11.226  0.00  0.00    -0.310 N 
ATOM     10  C   UNL     1      -3.125 -14.099  12.751  0.00  0.00    +0.027 C 
ATOM     11  C   UNL     1      -1.831 -12.020  12.973  0.00  0.00    +0.054 C 
ATOM     12  C   UNL     1      -1.712 -13.530  12.779  0.00  0.00    +0.018 C 
ATOM     13  C   UNL     1      -3.856 -13.793  14.070  0.00  0.00    +0.113 C 
ATOM     14  C   UNL     1      -3.866 -13.528  11.536  0.00  0.00    +0.130 C 
ATOM     15  C   UNL     1      -2.516 -11.726  14.323  0.00  0.00    +0.117 C 
ATOM     16  C   UNL     1      -2.623 -11.384  11.846  0.00  0.00    +0.027 A 
ATOM     17  C   UNL     1      -2.361 -10.123  11.464  0.00  0.00    +0.024 A 
ATOM     18  C   UNL     1      -4.441 -11.553  10.205  0.00  0.00    +0.273 A 
ATOM     19  C   UNL     1      -5.003 -11.750  14.854  0.00  0.00    +0.253 C 
ATOM     20  C   UNL     1      -4.135 -10.137   9.825  0.00  0.00    +0.100 A 
ATOM     21  C   UNL     1      -3.135  -9.489  10.434  0.00  0.00    +0.030 A 
ENDROOT
BRANCH  20   8
ATOM      5  O   UNL     1      -6.614  -8.797  10.203  0.00  0.00    -0.252 OA
ATOM      8  N   UNL     1      -4.892  -9.557   8.850  0.00  0.00    -0.265 N 
ATOM      9  N   UNL     1      -6.638  -8.422   7.886  0.00  0.00    -0.269 N 
ATOM     23  C   UNL     1      -6.110  -8.907   9.087  0.00  0.00    +0.308 C 
ATOM     36  H   UNL     1      -4.686  -9.822   7.891  0.00  0.00    +0.157 HD
ATOM     37  H   UNL     1      -6.091  -8.595   7.046  0.00  0.00    +0.156 HD
BRANCH   9  27
ATOM      1  F   UNL     1      -9.379  -4.558   8.656  0.00  0.00    -0.205 F 
ATOM     27  C   UNL     1      -7.844  -7.711   7.691  0.00  0.00    +0.037 A 
ATOM     31  C   UNL     1      -8.020  -6.460   8.282  0.00  0.00    +0.061 A 
ATOM     32  C   UNL     1      -8.858  -8.261   6.907  0.00  0.00    +0.023 A 
ATOM     33  C   UNL     1      -9.211  -5.759   8.089  0.00  0.00    +0.125 A 
ATOM     34  C   UNL     1     -10.048  -7.560   6.713  0.00  0.00    +0.005 A 
ATOM     35  C   UNL     1     -10.224  -6.309   7.304  0.00  0.00    +0.038 A 
ENDBRANCH   9  27
ENDBRANCH  20   8
BRANCH  19  22
ATOM     22  C   UNL     1      -4.885 -10.306  15.272  0.00  0.00    +0.324 C 
BRANCH  22   4
ATOM      4  O   UNL     1      -4.195 -10.297  16.498  0.00  0.00    -0.483 OA
BRANCH   4  24
ATOM     24  C   UNL     1      -4.901 -10.660  17.624  0.00  0.00    +0.121 A 
ATOM     25  C   UNL     1      -6.200 -10.190  17.815  0.00  0.00    +0.045 A 
ATOM     26  C   UNL     1      -4.316 -11.497  18.573  0.00  0.00    +0.045 A 
ATOM     28  C   UNL     1      -6.914 -10.558  18.955  0.00  0.00    +0.004 A 
ATOM     29  C   UNL     1      -5.031 -11.864  19.714  0.00  0.00    +0.004 A 
ATOM     30  C   UNL     1      -6.330 -11.395  19.904  0.00  0.00    +0.000 A 
ENDBRANCH   4  24
ENDBRANCH  22   4
ENDBRANCH  19  22
TORSDOF 5
ENDMDL
MODEL 4
REMARK VINA RESULT:      -7.7     27.953     30.572
REMARK  Name = 7142734
REMARK  5 active torsions:
REMARK  status: ('A' for Active; 'I' for Inactive)
REMARK    1  A    between atoms: O_4  and  C_22
REMARK    2  A    between atoms: O_4  and  C_24
REMARK    3  A    between atoms: N_8  and  C_20
REMARK    4  A    between atoms: N_9  and  C_27
REMARK    5  A    between atoms: C_19  and  C_22
REMARK                            x       y       z     vdW  Elec       q    Type
REMARK                         _______ _______ _______ _____ _____    ______ ____
ROOT
ATOM      2  O   UNL     1      -8.574 -10.110  11.481  0.00  0.00    -0.266 OA
ATOM      3  O   UNL     1      -6.406 -14.077   8.610  0.00  0.00    -0.272 OA
ATOM      6  N   UNL     1      -6.172 -12.043   7.514  0.00  0.00    -0.298 N 
ATOM      7  N   UNL     1      -7.391  -9.839   9.484  0.00  0.00    -0.310 N 
ATOM     10  C   UNL     1      -8.258 -10.697   7.233  0.00  0.00    +0.027 C 
ATOM     11  C   UNL     1      -6.080  -9.560   7.350  0.00  0.00    +0.054 C 
ATOM     12  C   UNL     1      -7.433  -9.561   6.641  0.00  0.00    +0.018 C 
ATOM     13  C   UNL     1      -7.550 -12.046   7.020  0.00  0.00    +0.113 C 
ATOM     14  C   UNL     1      -8.509 -10.406   8.718  0.00  0.00    +0.130 C 
ATOM     15  C   UNL     1      -5.357 -10.896   7.084  0.00  0.00    +0.117 C 
ATOM     16  C   UNL     1      -6.246  -9.354   8.844  0.00  0.00    +0.027 A 
ATOM     17  C   UNL     1      -5.287  -8.734   9.552  0.00  0.00    +0.024 A 
ATOM     18  C   UNL     1      -7.576  -9.715  10.876  0.00  0.00    +0.273 A 
ATOM     19  C   UNL     1      -5.705 -13.125   8.260  0.00  0.00    +0.253 C 
ATOM     20  C   UNL     1      -6.473  -9.040  11.632  0.00  0.00    +0.100 A 
ATOM     21  C   UNL     1      -5.405  -8.577  10.974  0.00  0.00    +0.030 A 
ENDROOT
BRANCH  20   8
ATOM      5  O   UNL     1      -5.545 -10.881  13.591  0.00  0.00    -0.252 OA
ATOM      8  N   UNL     1      -6.608  -8.912  12.983  0.00  0.00    -0.265 N 
ATOM      9  N   UNL     1      -6.427  -9.431  15.212  0.00  0.00    -0.269 N 
ATOM     23  C   UNL     1      -6.133  -9.849  13.910  0.00  0.00    +0.308 C 
ATOM     36  H   UNL     1      -7.293  -8.239  13.315  0.00  0.00    +0.157 HD
ATOM     37  H   UNL     1      -6.919  -8.545  15.305  0.00  0.00    +0.156 HD
BRANCH   9  27
ATOM      1  F   UNL     1      -3.237 -11.431  18.189  0.00  0.00    -0.205 F 
ATOM     27  C   UNL     1      -6.120 -10.087  16.426  0.00  0.00    +0.037 A 
ATOM     31  C   UNL     1      -4.803 -10.443  16.714  0.00  0.00    +0.061 A 
ATOM     32  C   UNL     1      -7.137 -10.378  17.336  0.00  0.00    +0.023 A 
ATOM     33  C   UNL     1      -4.502 -11.090  17.913  0.00  0.00    +0.125 A 
ATOM     34  C   UNL     1      -6.835 -11.025  18.535  0.00  0.00    +0.005 A 
ATOM     35  C   UNL     1      -5.518 -11.381  18.823  0.00  0.00    +0.038 A 
ENDBRANCH   9  27
ENDBRANCH  20   8
BRANCH  19  22
ATOM     22  C   UNL     1      -4.250 -13.096   8.654  0.00  0.00    +0.324 C 
BRANCH  22   4
ATOM      4  O   UNL     1      -4.173 -13.637   9.950  0.00  0.00    -0.483 OA
BRANCH   4  24
ATOM     24  C   UNL     1      -3.464 -12.925  10.892  0.00  0.00    +0.121 A 
ATOM     25  C   UNL     1      -3.285 -11.550  10.738  0.00  0.00    +0.045 A 
ATOM     26  C   UNL     1      -2.926 -13.579  12.000  0.00  0.00    +0.045 A 
ATOM     28  C   UNL     1      -2.567 -10.830  11.692  0.00  0.00    +0.004 A 
ATOM     29  C   UNL     1      -2.208 -12.857  12.954  0.00  0.00    +0.004 A 
ATOM     30  C   UNL     1      -2.029 -11.483  12.800  0.00  0.00    +0.000 A 
ENDBRANCH   4  24
ENDBRANCH  22   4
ENDBRANCH  19  22
TORSDOF 5
ENDMDL
MODEL 5
REMARK VINA RESULT:      -7.5     28.156     30.653
REMARK  Name = 7142734
REMARK  5 active torsions:
REMARK  status: ('A' for Active; 'I' for Inactive)
REMARK    1  A    between atoms: O_4  and  C_22
REMARK    2  A    between atoms: O_4  and  C_24
REMARK    3  A    between atoms: N_8  and  C_20
REMARK    4  A    between atoms: N_9  and  C_27
REMARK    5  A    between atoms: C_19  and  C_22
REMARK                            x       y       z     vdW  Elec       q    Type
REMARK                         _______ _______ _______ _____ _____    ______ ____
ROOT
ATOM      2  O   UNL     1      -5.729  -8.588  11.475  0.00  0.00    -0.266 OA
ATOM      3  O   UNL     1      -8.543  -5.302   8.320  0.00  0.00    -0.272 OA
ATOM      6  N   UNL     1      -9.116  -7.517   7.923  0.00  0.00    -0.298 N 
ATOM      7  N   UNL     1      -7.433  -9.248  10.019  0.00  0.00    -0.310 N 
ATOM     10  C   UNL     1      -7.221  -9.082   7.473  0.00  0.00    +0.027 C 
ATOM     11  C   UNL     1      -9.298  -9.939   8.472  0.00  0.00    +0.054 C 
ATOM     12  C   UNL     1      -8.201 -10.248   7.455  0.00  0.00    +0.018 C 
ATOM     13  C   UNL     1      -7.934  -7.771   7.097  0.00  0.00    +0.113 C 
ATOM     14  C   UNL     1      -6.566  -9.005   8.858  0.00  0.00    +0.130 C 
ATOM     15  C   UNL     1     -10.041  -8.653   8.055  0.00  0.00    +0.117 C 
ATOM     16  C   UNL     1      -8.721  -9.771   9.864  0.00  0.00    +0.027 A 
ATOM     17  C   UNL     1      -9.452 -10.095  10.944  0.00  0.00    +0.024 A 
ATOM     18  C   UNL     1      -6.865  -9.029  11.290  0.00  0.00    +0.273 A 
ATOM     19  C   UNL     1      -9.333  -6.241   8.442  0.00  0.00    +0.253 C 
ATOM     20  C   UNL     1      -7.721  -9.380  12.467  0.00  0.00    +0.100 A 
ATOM     21  C   UNL     1      -8.941  -9.893  12.270  0.00  0.00    +0.030 A 
ENDROOT
BRANCH  20   8
ATOM      5  O   UNL     1      -6.570 -11.352  14.161  0.00  0.00    -0.252 OA
ATOM      8  N   UNL     1      -7.213  -9.170  13.715  0.00  0.00    -0.265 N 
ATOM      9  N   UNL     1      -6.225  -9.642  15.732  0.00  0.00    -0.269 N 
ATOM     23  C   UNL     1      -6.655 -10.177  14.513  0.00  0.00    +0.308 C 
ATOM     36  H   UNL     1      -7.473  -8.303  14.177  0.00  0.00    +0.157 HD
ATOM     37  H   UNL     1      -6.367  -8.644  15.866  0.00  0.00    +0.156 HD
BRANCH   9  27
ATOM      1  F   UNL     1      -6.443 -11.564  20.125  0.00  0.00    -0.205 F 
ATOM     27  C   UNL     1      -5.610 -10.320  16.810  0.00  0.00    +0.037 A 
ATOM     31  C   UNL     1      -6.344 -10.614  17.959  0.00  0.00    +0.061 A 
ATOM     32  C   UNL     1      -4.270 -10.696  16.724  0.00  0.00    +0.023 A 
ATOM     33  C   UNL     1      -5.737 -11.283  19.022  0.00  0.00    +0.125 A 
ATOM     34  C   UNL     1      -3.663 -11.365  17.787  0.00  0.00    +0.005 A 
ATOM     35  C   UNL     1      -4.397 -11.658  18.936  0.00  0.00    +0.038 A 
ENDBRANCH   9  27
ENDBRANCH  20   8
BRANCH  19  22
ATOM     22  C   UNL     1     -10.617  -6.031   9.203  0.00  0.00    +0.324 C 
BRANCH  22   4
ATOM      4  O   UNL     1     -11.059  -4.731   8.894  0.00  0.00    -0.483 OA
BRANCH   4  24
ATOM     24  C   UNL     1     -12.073  -4.208   9.666  0.00  0.00    +0.121 A 
ATOM     25  C   UNL     1     -11.938  -4.155  11.053  0.00  0.00    +0.045 A 
ATOM     26  C   UNL     1     -13.235  -3.732   9.060  0.00  0.00    +0.045 A 
ATOM     28  C   UNL     1     -12.965  -3.625  11.834  0.00  0.00    +0.004 A 
ATOM     29  C   UNL     1     -14.262  -3.202   9.841  0.00  0.00    +0.004 A 
ATOM     30  C   UNL     1     -14.127  -3.148  11.229  0.00  0.00    +0.000 A 
ENDBRANCH   4  24
ENDBRANCH  22   4
ENDBRANCH  19  22
TORSDOF 5
ENDMDL
MODEL 6
REMARK VINA RESULT:      -7.5     13.600     16.874
REMARK  Name = 7142734
REMARK  5 active torsions:
REMARK  status: ('A' for Active; 'I' for Inactive)
REMARK    1  A    between atoms: O_4  and  C_22
REMARK    2  A    between atoms: O_4  and  C_24
REMARK    3  A    between atoms: N_8  and  C_20
REMARK    4  A    between atoms: N_9  and  C_27
REMARK    5  A    between atoms: C_19  and  C_22
REMARK                            x       y       z     vdW  Elec       q    Type
REMARK                         _______ _______ _______ _____ _____    ______ ____
ROOT
ATOM      2  O   UNL     1      13.426   6.890   7.316  0.00  0.00    -0.266 OA
ATOM      3  O   UNL     1      11.257   3.855   3.474  0.00  0.00    -0.272 OA
ATOM      6  N   UNL     1       9.865   5.638   4.001  0.00  0.00    -0.298 N 
ATOM      7  N   UNL     1      11.441   7.367   6.181  0.00  0.00    -0.310 N 
ATOM     10  C   UNL     1       9.330   5.939   6.422  0.00  0.00    +0.027 C 
ATOM     11  C   UNL     1       9.322   7.886   4.921  0.00  0.00    +0.054 C 
ATOM     12  C   UNL     1       8.588   7.228   6.088  0.00  0.00    +0.018 C 
ATOM     13  C   UNL     1       9.345   4.994   5.208  0.00  0.00    +0.113 C 
ATOM     14  C   UNL     1      10.745   6.290   6.897  0.00  0.00    +0.130 C 
ATOM     15  C   UNL     1       9.283   6.953   3.694  0.00  0.00    +0.117 C 
ATOM     16  C   UNL     1      10.761   8.198   5.285  0.00  0.00    +0.027 A 
ATOM     17  C   UNL     1      11.387   9.249   4.729  0.00  0.00    +0.024 A 
ATOM     18  C   UNL     1      12.792   7.583   6.520  0.00  0.00    +0.273 A 
ATOM     19  C   UNL     1      10.781   4.958   3.198  0.00  0.00    +0.253 C 
ATOM     20  C   UNL     1      13.461   8.749   5.860  0.00  0.00    +0.100 A 
ATOM     21  C   UNL     1      12.764   9.527   5.023  0.00  0.00    +0.030 A 
ENDROOT
BRANCH  20   8
ATOM      5  O   UNL     1      15.700   7.491   4.640  0.00  0.00    -0.252 OA
ATOM      8  N   UNL     1      14.772   8.985   6.152  0.00  0.00    -0.265 N 
ATOM      9  N   UNL     1      17.057   8.797   6.042  0.00  0.00    -0.269 N 
ATOM     23  C   UNL     1      15.843   8.337   5.522  0.00  0.00    +0.308 C 
ATOM     36  H   UNL     1      14.970   9.463   7.026  0.00  0.00    +0.157 HD
ATOM     37  H   UNL     1      17.001   9.506   6.769  0.00  0.00    +0.156 HD
BRANCH   9  27
ATOM      1  F   UNL     1      20.211   7.342   2.729  0.00  0.00    -0.205 F 
ATOM     27  C   UNL     1      18.365   8.399   5.679  0.00  0.00    +0.037 A 
ATOM     31  C   UNL     1      18.649   8.059   4.356  0.00  0.00    +0.061 A 
ATOM     32  C   UNL     1      19.370   8.349   6.644  0.00  0.00    +0.023 A 
ATOM     33  C   UNL     1      19.939   7.668   3.999  0.00  0.00    +0.125 A 
ATOM     34  C   UNL     1      20.661   7.957   6.287  0.00  0.00    +0.005 A 
ATOM     35  C   UNL     1      20.945   7.617   4.964  0.00  0.00    +0.038 A 
ENDBRANCH   9  27
ENDBRANCH  20   8
BRANCH  19  22
ATOM     22  C   UNL     1      11.200   5.644   1.922  0.00  0.00    +0.324 C 
BRANCH  22   4
ATOM      4  O   UNL     1      11.687   4.639   1.066  0.00  0.00    -0.483 OA
BRANCH   4  24
ATOM     24  C   UNL     1      13.034   4.648   0.782  0.00  0.00    +0.121 A 
ATOM     25  C   UNL     1      13.567   5.638  -0.043  0.00  0.00    +0.045 A 
ATOM     26  C   UNL     1      13.866   3.666   1.320  0.00  0.00    +0.045 A 
ATOM     28  C   UNL     1      14.932   5.647  -0.329  0.00  0.00    +0.004 A 
ATOM     29  C   UNL     1      15.231   3.675   1.032  0.00  0.00    +0.004 A 
ATOM     30  C   UNL     1      15.764   4.666   0.208  0.00  0.00    +0.000 A 
ENDBRANCH   4  24
ENDBRANCH  22   4
ENDBRANCH  19  22
TORSDOF 5
ENDMDL
MODEL 7
REMARK VINA RESULT:      -7.4     14.430     19.639
REMARK  Name = 7142734
REMARK  5 active torsions:
REMARK  status: ('A' for Active; 'I' for Inactive)
REMARK    1  A    between atoms: O_4  and  C_22
REMARK    2  A    between atoms: O_4  and  C_24
REMARK    3  A    between atoms: N_8  and  C_20
REMARK    4  A    between atoms: N_9  and  C_27
REMARK    5  A    between atoms: C_19  and  C_22
REMARK                            x       y       z     vdW  Elec       q    Type
REMARK                         _______ _______ _______ _____ _____    ______ ____
ROOT
ATOM      2  O   UNL     1      15.497   5.622  -0.435  0.00  0.00    -0.266 OA
ATOM      3  O   UNL     1      10.930   7.310  -2.665  0.00  0.00    -0.272 OA
ATOM      6  N   UNL     1      11.105   4.998  -2.793  0.00  0.00    -0.298 N 
ATOM      7  N   UNL     1      13.811   4.236  -1.269  0.00  0.00    -0.310 N 
ATOM     10  C   UNL     1      13.230   4.105  -3.758  0.00  0.00    +0.027 C 
ATOM     11  C   UNL     1      11.966   2.756  -2.137  0.00  0.00    +0.054 C 
ATOM     12  C   UNL     1      12.770   2.689  -3.433  0.00  0.00    +0.018 C 
ATOM     13  C   UNL     1      12.019   5.038  -3.936  0.00  0.00    +0.113 C 
ATOM     14  C   UNL     1      14.171   4.588  -2.648  0.00  0.00    +0.130 C 
ATOM     15  C   UNL     1      10.726   3.650  -2.344  0.00  0.00    +0.117 C 
ATOM     16  C   UNL     1      12.808   3.300  -0.998  0.00  0.00    +0.027 A 
ATOM     17  C   UNL     1      12.574   2.905   0.265  0.00  0.00    +0.024 A 
ATOM     18  C   UNL     1      14.592   4.808  -0.244  0.00  0.00    +0.273 A 
ATOM     19  C   UNL     1      10.599   6.189  -2.274  0.00  0.00    +0.253 C 
ATOM     20  C   UNL     1      14.283   4.361   1.151  0.00  0.00    +0.100 A 
ATOM     21  C   UNL     1      13.327   3.449   1.359  0.00  0.00    +0.030 A 
ENDROOT
BRANCH  20   8
ATOM      5  O   UNL     1      13.753   6.829   2.462  0.00  0.00    -0.252 OA
ATOM      8  N   UNL     1      15.009   4.901   2.172  0.00  0.00    -0.265 N 
ATOM      9  N   UNL     1      15.636   6.398   3.795  0.00  0.00    -0.269 N 
ATOM     23  C   UNL     1      14.707   6.123   2.786  0.00  0.00    +0.308 C 
ATOM     36  H   UNL     1      15.940   4.524   2.324  0.00  0.00    +0.157 HD
ATOM     37  H   UNL     1      16.368   5.706   3.940  0.00  0.00    +0.156 HD
BRANCH   9  27
ATOM      1  F   UNL     1      13.611   9.224   7.104  0.00  0.00    -0.205 F 
ATOM     27  C   UNL     1      15.687   7.525   4.648  0.00  0.00    +0.037 A 
ATOM     31  C   UNL     1      14.602   7.825   5.472  0.00  0.00    +0.061 A 
ATOM     32  C   UNL     1      16.822   8.335   4.665  0.00  0.00    +0.023 A 
ATOM     33  C   UNL     1      14.653   8.937   6.313  0.00  0.00    +0.125 A 
ATOM     34  C   UNL     1      16.872   9.447   5.507  0.00  0.00    +0.005 A 
ATOM     35  C   UNL     1      15.788   9.747   6.331  0.00  0.00    +0.038 A 
ENDBRANCH   9  27
ENDBRANCH  20   8
BRANCH  19  22
ATOM     22  C   UNL     1       9.591   6.065  -1.159  0.00  0.00    +0.324 C 
BRANCH  22   4
ATOM      4  O   UNL     1       9.842   7.127  -0.271  0.00  0.00    -0.483 OA
BRANCH   4  24
ATOM     24  C   UNL     1       9.850   6.836   1.076  0.00  0.00    +0.121 A 
ATOM     25  C   UNL     1       9.229   7.698   1.980  0.00  0.00    +0.045 A 
ATOM     26  C   UNL     1      10.480   5.680   1.535  0.00  0.00    +0.045 A 
ATOM     28  C   UNL     1       9.238   7.403   3.343  0.00  0.00    +0.004 A 
ATOM     29  C   UNL     1      10.488   5.385   2.898  0.00  0.00    +0.004 A 
ATOM     30  C   UNL     1       9.866   6.247   3.802  0.00  0.00    +0.000 A 
ENDBRANCH   4  24
ENDBRANCH  22   4
ENDBRANCH  19  22
TORSDOF 5
ENDMDL
MODEL 8
REMARK VINA RESULT:      -7.1     23.361     26.237
REMARK  Name = 7142734
REMARK  5 active torsions:
REMARK  status: ('A' for Active; 'I' for Inactive)
REMARK    1  A    between atoms: O_4  and  C_22
REMARK    2  A    between atoms: O_4  and  C_24
REMARK    3  A    between atoms: N_8  and  C_20
REMARK    4  A    between atoms: N_9  and  C_27
REMARK    5  A    between atoms: C_19  and  C_22
REMARK                            x       y       z     vdW  Elec       q    Type
REMARK                         _______ _______ _______ _____ _____    ______ ____
ROOT
ATOM      2  O   UNL     1       9.218  -9.741  33.531  0.00  0.00    -0.266 OA
ATOM      3  O   UNL     1       8.362  -7.168  38.149  0.00  0.00    -0.272 OA
ATOM      6  N   UNL     1       8.241  -5.700  36.352  0.00  0.00    -0.298 N 
ATOM      7  N   UNL     1       8.625  -7.489  33.730  0.00  0.00    -0.310 N 
ATOM     10  C   UNL     1      10.174  -5.736  34.769  0.00  0.00    +0.027 C 
ATOM     11  C   UNL     1       7.948  -5.074  33.961  0.00  0.00    +0.054 C 
ATOM     12  C   UNL     1       9.439  -4.754  33.866  0.00  0.00    +0.018 C 
ATOM     13  C   UNL     1       9.696  -5.593  36.225  0.00  0.00    +0.113 C 
ATOM     14  C   UNL     1       9.965  -7.157  34.232  0.00  0.00    +0.130 C 
ATOM     15  C   UNL     1       7.469  -4.873  35.413  0.00  0.00    +0.117 C 
ATOM     16  C   UNL     1       7.664  -6.496  33.517  0.00  0.00    +0.027 A 
ATOM     17  C   UNL     1       6.487  -6.805  32.948  0.00  0.00    +0.024 A 
ATOM     18  C   UNL     1       8.396  -8.835  33.379  0.00  0.00    +0.273 A 
ATOM     19  C   UNL     1       7.695  -6.481  37.371  0.00  0.00    +0.253 C 
ATOM     20  C   UNL     1       7.063  -9.143  32.771  0.00  0.00    +0.100 A 
ATOM     21  C   UNL     1       6.182  -8.156  32.570  0.00  0.00    +0.030 A 
ENDROOT
BRANCH  20   8
ATOM      5  O   UNL     1       7.084 -10.219  30.139  0.00  0.00    -0.252 OA
ATOM      8  N   UNL     1       6.797 -10.436  32.429  0.00  0.00    -0.265 N 
ATOM      9  N   UNL     1       6.505 -12.282  31.097  0.00  0.00    -0.269 N 
ATOM     23  C   UNL     1       6.820 -10.919  31.114  0.00  0.00    +0.308 C 
ATOM     36  H   UNL     1       6.326 -11.008  33.125  0.00  0.00    +0.157 HD
ATOM     37  H   UNL     1       6.314 -12.716  31.997  0.00  0.00    +0.156 HD
BRANCH   9  27
ATOM      1  F   UNL     1       4.066 -15.440  28.430  0.00  0.00    -0.205 F 
ATOM     27  C   UNL     1       6.421 -13.141  29.976  0.00  0.00    +0.037 A 
ATOM     31  C   UNL     1       5.262 -13.882  29.751  0.00  0.00    +0.061 A 
ATOM     32  C   UNL     1       7.498 -13.245  29.096  0.00  0.00    +0.023 A 
ATOM     33  C   UNL     1       5.179 -14.729  28.645  0.00  0.00    +0.125 A 
ATOM     34  C   UNL     1       7.416 -14.091  27.991  0.00  0.00    +0.005 A 
ATOM     35  C   UNL     1       6.256 -14.833  27.765  0.00  0.00    +0.038 A 
ENDBRANCH   9  27
ENDBRANCH  20   8
BRANCH  19  22
ATOM     22  C   UNL     1       6.193  -6.469  37.499  0.00  0.00    +0.324 C 
BRANCH  22   4
ATOM      4  O   UNL     1       5.822  -7.730  38.002  0.00  0.00    -0.483 OA
BRANCH   4  24
ATOM     24  C   UNL     1       4.856  -8.427  37.310  0.00  0.00    +0.121 A 
ATOM     25  C   UNL     1       5.103  -8.854  36.006  0.00  0.00    +0.045 A 
ATOM     26  C   UNL     1       3.631  -8.705  37.916  0.00  0.00    +0.045 A 
ATOM     28  C   UNL     1       4.125  -9.560  35.306  0.00  0.00    +0.004 A 
ATOM     29  C   UNL     1       2.653  -9.412  37.215  0.00  0.00    +0.004 A 
ATOM     30  C   UNL     1       2.900  -9.839  35.911  0.00  0.00    +0.000 A 
ENDBRANCH   4  24
ENDBRANCH  22   4
ENDBRANCH  19  22
TORSDOF 5
ENDMDL
MODEL 9
REMARK VINA RESULT:      -7.1     13.564     16.810
REMARK  Name = 7142734
REMARK  5 active torsions:
REMARK  status: ('A' for Active; 'I' for Inactive)
REMARK    1  A    between atoms: O_4  and  C_22
REMARK    2  A    between atoms: O_4  and  C_24
REMARK    3  A    between atoms: N_8  and  C_20
REMARK    4  A    between atoms: N_9  and  C_27
REMARK    5  A    between atoms: C_19  and  C_22
REMARK                            x       y       z     vdW  Elec       q    Type
REMARK                         _______ _______ _______ _____ _____    ______ ____
ROOT
ATOM      2  O   UNL     1      14.631   6.986   6.551  0.00  0.00    -0.266 OA
ATOM      3  O   UNL     1      10.178   4.193   5.526  0.00  0.00    -0.272 OA
ATOM      6  N   UNL     1       9.858   6.450   5.078  0.00  0.00    -0.298 N 
ATOM      7  N   UNL     1      12.678   7.859   5.613  0.00  0.00    -0.310 N 
ATOM     10  C   UNL     1      10.477   8.034   6.908  0.00  0.00    +0.027 C 
ATOM     11  C   UNL     1      10.578   8.777   4.566  0.00  0.00    +0.054 C 
ATOM     12  C   UNL     1      10.184   9.206   5.978  0.00  0.00    +0.018 C 
ATOM     13  C   UNL     1       9.666   6.796   6.488  0.00  0.00    +0.113 C 
ATOM     14  C   UNL     1      11.986   7.763   6.904  0.00  0.00    +0.130 C 
ATOM     15  C   UNL     1       9.720   7.570   4.135  0.00  0.00    +0.117 C 
ATOM     16  C   UNL     1      12.049   8.415   4.494  0.00  0.00    +0.027 A 
ATOM     17  C   UNL     1      12.736   8.601   3.354  0.00  0.00    +0.024 A 
ATOM     18  C   UNL     1      14.030   7.462   5.587  0.00  0.00    +0.273 A 
ATOM     19  C   UNL     1      10.065   5.118   4.718  0.00  0.00    +0.253 C 
ATOM     20  C   UNL     1      14.754   7.663   4.291  0.00  0.00    +0.100 A 
ATOM     21  C   UNL     1      14.115   8.215   3.254  0.00  0.00    +0.030 A 
ENDROOT
BRANCH  20   8
ATOM      5  O   UNL     1      17.013   9.302   4.840  0.00  0.00    -0.252 OA
ATOM      8  N   UNL     1      16.061   7.280   4.222  0.00  0.00    -0.265 N 
ATOM      9  N   UNL     1      18.348   7.437   4.340  0.00  0.00    -0.269 N 
ATOM     23  C   UNL     1      17.142   8.127   4.502  0.00  0.00    +0.308 C 
ATOM     36  H   UNL     1      16.263   6.425   3.711  0.00  0.00    +0.157 HD
ATOM     37  H   UNL     1      18.280   6.462   4.058  0.00  0.00    +0.156 HD
BRANCH   9  27
ATOM      1  F   UNL     1      22.481   9.083   2.540  0.00  0.00    -0.205 F 
ATOM     27  C   UNL     1      19.661   7.928   4.525  0.00  0.00    +0.037 A 
ATOM     31  C   UNL     1      20.440   8.270   3.419  0.00  0.00    +0.061 A 
ATOM     32  C   UNL     1      20.177   8.070   5.812  0.00  0.00    +0.023 A 
ATOM     33  C   UNL     1      21.735   8.755   3.602  0.00  0.00    +0.125 A 
ATOM     34  C   UNL     1      21.473   8.554   5.995  0.00  0.00    +0.005 A 
ATOM     35  C   UNL     1      22.251   8.897   4.890  0.00  0.00    +0.038 A 
ENDBRANCH   9  27
ENDBRANCH  20   8
BRANCH  19  22
ATOM     22  C   UNL     1      10.161   4.824   3.243  0.00  0.00    +0.324 C 
BRANCH  22   4
ATOM      4  O   UNL     1      11.240   3.937   3.078  0.00  0.00    -0.483 OA
BRANCH   4  24
ATOM     24  C   UNL     1      12.155   4.231   2.091  0.00  0.00    +0.121 A 
ATOM     25  C   UNL     1      13.104   3.281   1.714  0.00  0.00    +0.045 A 
ATOM     26  C   UNL     1      12.133   5.480   1.471  0.00  0.00    +0.045 A 
ATOM     28  C   UNL     1      14.030   3.580   0.715  0.00  0.00    +0.004 A 
ATOM     29  C   UNL     1      13.060   5.778   0.472  0.00  0.00    +0.004 A 
ATOM     30  C   UNL     1      14.009   4.828   0.093  0.00  0.00    +0.000 A 
ENDBRANCH   4  24
ENDBRANCH  22   4
ENDBRANCH  19  22
TORSDOF 5
ENDMDL
MODEL 10
REMARK VINA RESULT:      -7.0     16.556     20.568
REMARK  Name = 7142734
REMARK  5 active torsions:
REMARK  status: ('A' for Active; 'I' for Inactive)
REMARK    1  A    between atoms: O_4  and  C_22
REMARK    2  A    between atoms: O_4  and  C_24
REMARK    3  A    between atoms: N_8  and  C_20
REMARK    4  A    between atoms: N_9  and  C_27
REMARK    5  A    between atoms: C_19  and  C_22
REMARK                            x       y       z     vdW  Elec       q    Type
REMARK                         _______ _______ _______ _____ _____    ______ ____
ROOT
ATOM      2  O   UNL     1      18.815  -8.440  27.273  0.00  0.00    -0.266 OA
ATOM      3  O   UNL     1      22.260  -4.440  26.376  0.00  0.00    -0.272 OA
ATOM      6  N   UNL     1      21.708  -5.514  24.391  0.00  0.00    -0.298 N 
ATOM      7  N   UNL     1      19.542  -7.734  25.168  0.00  0.00    -0.310 N 
ATOM     10  C   UNL     1      21.961  -7.999  24.377  0.00  0.00    +0.027 C 
ATOM     11  C   UNL     1      20.305  -6.934  22.904  0.00  0.00    +0.054 C 
ATOM     12  C   UNL     1      21.353  -8.043  22.980  0.00  0.00    +0.018 C 
ATOM     13  C   UNL     1      22.620  -6.633  24.637  0.00  0.00    +0.113 C 
ATOM     14  C   UNL     1      20.868  -8.317  25.404  0.00  0.00    +0.130 C 
ATOM     15  C   UNL     1      20.986  -5.566  23.112  0.00  0.00    +0.117 C 
ATOM     16  C   UNL     1      19.222  -7.133  23.946  0.00  0.00    +0.027 A 
ATOM     17  C   UNL     1      17.968  -6.711  23.708  0.00  0.00    +0.024 A 
ATOM     18  C   UNL     1      18.585  -7.902  26.189  0.00  0.00    +0.273 A 
ATOM     19  C   UNL     1      21.645  -4.464  25.307  0.00  0.00    +0.253 C 
ATOM     20  C   UNL     1      17.206  -7.396  25.894  0.00  0.00    +0.100 A 
ATOM     21  C   UNL     1      16.943  -6.844  24.704  0.00  0.00    +0.030 A 
ENDROOT
BRANCH  20   8
ATOM      5  O   UNL     1      16.619  -5.506  27.937  0.00  0.00    -0.252 OA
ATOM      8  N   UNL     1      16.254  -7.528  26.862  0.00  0.00    -0.265 N 
ATOM      9  N   UNL     1      14.970  -6.998  28.689  0.00  0.00    -0.269 N 
ATOM     23  C   UNL     1      16.002  -6.567  27.850  0.00  0.00    +0.308 C 
ATOM     36  H   UNL     1      15.887  -8.462  27.021  0.00  0.00    +0.157 HD
ATOM     37  H   UNL     1      14.561  -7.905  28.477  0.00  0.00    +0.156 HD
BRANCH   9  27
ATOM      1  F   UNL     1      11.351  -6.284  31.759  0.00  0.00    -0.205 F 
ATOM     27  C   UNL     1      14.416  -6.325  29.802  0.00  0.00    +0.037 A 
ATOM     31  C   UNL     1      13.130  -6.642  30.241  0.00  0.00    +0.061 A 
ATOM     32  C   UNL     1      15.156  -5.345  30.462  0.00  0.00    +0.023 A 
ATOM     33  C   UNL     1      12.585  -5.978  31.339  0.00  0.00    +0.125 A 
ATOM     34  C   UNL     1      14.610  -4.680  31.561  0.00  0.00    +0.005 A 
ATOM     35  C   UNL     1      13.325  -4.998  32.000  0.00  0.00    +0.038 A 
ENDBRANCH   9  27
ENDBRANCH  20   8
BRANCH  19  22
ATOM     22  C   UNL     1      20.756  -3.302  24.942  0.00  0.00    +0.324 C 
BRANCH  22   4
ATOM      4  O   UNL     1      19.464  -3.626  25.397  0.00  0.00    -0.483 OA
BRANCH   4  24
ATOM     24  C   UNL     1      18.401  -3.228  24.617  0.00  0.00    +0.121 A 
ATOM     25  C   UNL     1      17.116  -3.188  25.158  0.00  0.00    +0.045 A 
ATOM     26  C   UNL     1      18.610  -2.865  23.287  0.00  0.00    +0.045 A 
ATOM     28  C   UNL     1      16.040  -2.785  24.367  0.00  0.00    +0.004 A 
ATOM     29  C   UNL     1      17.533  -2.462  22.497  0.00  0.00    +0.004 A 
ATOM     30  C   UNL     1      16.248  -2.421  23.038  0.00  0.00    +0.000 A 
ENDBRANCH   4  24
ENDBRANCH  22   4
ENDBRANCH  19  22
TORSDOF 5
ENDMDL
