MODEL 1
REMARK VINA RESULT:      -6.0      0.000      0.000
REMARK  Name = 11943051
REMARK  3 active torsions:
REMARK  status: ('A' for Active; 'I' for Inactive)
REMARK    1  A    between atoms: N_4  and  C_13
REMARK    2  A    between atoms: C_7  and  C_13
REMARK    3  A    between atoms: C_8  and  C_14
REMARK                            x       y       z     vdW  Elec       q    Type
REMARK                         _______ _______ _______ _____ _____    ______ ____
ROOT
ATOM     13  C   UNL     1      15.336   6.969  19.160  0.00  0.00    +0.124 C 
ENDROOT
BRANCH  13   4
ATOM      1  O   UNL     1      21.209   7.600  21.714  0.00  0.00    -0.377 OA
ATOM      2  O   UNL     1      17.717   5.486  18.947  0.00  0.00    -0.253 OA
ATOM      4  N   UNL     1      16.536   7.187  19.935  0.00  0.00    -0.298 N 
ATOM      5  N   UNL     1      18.759   6.736  20.600  0.00  0.00    -0.281 N 
ATOM     16  C   UNL     1      17.675   6.407  19.769  0.00  0.00    +0.302 C 
ATOM     17  C   UNL     1      18.791   7.813  21.600  0.00  0.00    +0.137 C 
ATOM     18  C   UNL     1      19.936   5.864  20.616  0.00  0.00    +0.137 C 
ATOM     19  C   UNL     1      20.135   8.531  21.582  0.00  0.00    +0.179 C 
ATOM     20  C   UNL     1      21.219   6.680  20.621  0.00  0.00    +0.179 C 
ATOM     21  H   UNL     1      16.480   7.888  20.661  0.00  0.00    +0.150 HD
ENDBRANCH  13   4
BRANCH  13   7
ATOM      3  N   UNL     1      12.841   7.115  19.365  0.00  0.00    -0.297 NA
ATOM      6  C   UNL     1      12.775   9.702  19.109  0.00  0.00    -0.000 C 
ATOM      7  C   UNL     1      14.144   7.701  19.781  0.00  0.00    +0.074 C 
ATOM      8  C   UNL     1      12.344   9.011  17.794  0.00  0.00    +0.028 C 
ATOM      9  C   UNL     1      14.187   9.218  19.491  0.00  0.00    +0.024 C 
ATOM     10  C   UNL     1      11.809   9.225  20.210  0.00  0.00    +0.019 C 
ATOM     11  C   UNL     1      12.534   7.485  17.961  0.00  0.00    +0.092 C 
ATOM     12  C   UNL     1      11.785   7.687  20.234  0.00  0.00    +0.085 C 
BRANCH   8  14
ATOM     14  C   UNL     1      13.074   9.535  16.594  0.00  0.00    -0.030 C 
ATOM     15  C   UNL     1      13.997   8.843  15.919  0.00  0.00    +0.004 C 
ENDBRANCH   8  14
ENDBRANCH  13   7
TORSDOF 3
ENDMDL
MODEL 2
REMARK VINA RESULT:      -6.0      1.611      2.726
REMARK  Name = 11943051
REMARK  3 active torsions:
REMARK  status: ('A' for Active; 'I' for Inactive)
REMARK    1  A    between atoms: N_4  and  C_13
REMARK    2  A    between atoms: C_7  and  C_13
REMARK    3  A    between atoms: C_8  and  C_14
REMARK                            x       y       z     vdW  Elec       q    Type
REMARK                         _______ _______ _______ _____ _____    ______ ____
ROOT
ATOM     13  C   UNL     1      14.266   7.070  18.836  0.00  0.00    +0.124 C 
ENDROOT
BRANCH  13   4
ATOM      1  O   UNL     1      20.013   7.609  21.681  0.00  0.00    -0.377 OA
ATOM      2  O   UNL     1      16.678   5.635  18.632  0.00  0.00    -0.253 OA
ATOM      4  N   UNL     1      15.429   7.252  19.676  0.00  0.00    -0.298 N 
ATOM      5  N   UNL     1      17.628   6.788  20.407  0.00  0.00    -0.281 N 
ATOM     16  C   UNL     1      16.586   6.500  19.510  0.00  0.00    +0.302 C 
ATOM     17  C   UNL     1      17.599   7.797  21.475  0.00  0.00    +0.137 C 
ATOM     18  C   UNL     1      18.817   5.932  20.418  0.00  0.00    +0.137 C 
ATOM     19  C   UNL     1      18.932   8.533  21.563  0.00  0.00    +0.179 C 
ATOM     20  C   UNL     1      20.085   6.763  20.532  0.00  0.00    +0.179 C 
ATOM     21  H   UNL     1      15.330   7.903  20.443  0.00  0.00    +0.150 HD
ENDBRANCH  13   4
BRANCH  13   7
ATOM      3  N   UNL     1      12.303   8.564  19.285  0.00  0.00    -0.297 NA
ATOM      6  C   UNL     1      12.452   8.310  21.869  0.00  0.00    -0.000 C 
ATOM      7  C   UNL     1      12.977   7.284  19.633  0.00  0.00    +0.074 C 
ATOM      8  C   UNL     1      13.028   9.673  21.419  0.00  0.00    +0.028 C 
ATOM      9  C   UNL     1      13.220   7.181  21.155  0.00  0.00    +0.024 C 
ATOM     10  C   UNL     1      10.991   8.253  21.386  0.00  0.00    +0.019 C 
ATOM     11  C   UNL     1      13.039   9.711  19.872  0.00  0.00    +0.092 C 
ATOM     12  C   UNL     1      10.943   8.538  19.875  0.00  0.00    +0.085 C 
BRANCH   8  14
ATOM     14  C   UNL     1      14.385   9.951  21.993  0.00  0.00    -0.030 C 
ATOM     15  C   UNL     1      14.594  10.646  23.115  0.00  0.00    +0.004 C 
ENDBRANCH   8  14
ENDBRANCH  13   7
TORSDOF 3
ENDMDL
MODEL 3
REMARK VINA RESULT:      -5.9     13.758     16.542
REMARK  Name = 11943051
REMARK  3 active torsions:
REMARK  status: ('A' for Active; 'I' for Inactive)
REMARK    1  A    between atoms: N_4  and  C_13
REMARK    2  A    between atoms: C_7  and  C_13
REMARK    3  A    between atoms: C_8  and  C_14
REMARK                            x       y       z     vdW  Elec       q    Type
REMARK                         _______ _______ _______ _____ _____    ______ ____
ROOT
ATOM     13  C   UNL     1      10.399   5.073   4.648  0.00  0.00    +0.124 C 
ENDROOT
BRANCH  13   4
ATOM      1  O   UNL     1      14.633   5.940  -0.119  0.00  0.00    -0.377 OA
ATOM      2  O   UNL     1      10.870   3.760   2.205  0.00  0.00    -0.253 OA
ATOM      4  N   UNL     1      11.508   5.325   3.757  0.00  0.00    -0.298 N 
ATOM      5  N   UNL     1      12.801   4.983   1.808  0.00  0.00    -0.281 N 
ATOM     16  C   UNL     1      11.670   4.631   2.564  0.00  0.00    +0.302 C 
ATOM     17  C   UNL     1      13.798   6.003   2.162  0.00  0.00    +0.137 C 
ATOM     18  C   UNL     1      13.145   4.188   0.626  0.00  0.00    +0.137 C 
ATOM     19  C   UNL     1      14.212   6.807   0.934  0.00  0.00    +0.179 C 
ATOM     20  C   UNL     1      13.566   5.084  -0.529  0.00  0.00    +0.179 C 
ATOM     21  H   UNL     1      12.206   5.980   4.083  0.00  0.00    +0.150 HD
ENDBRANCH  13   4
BRANCH  13   7
ATOM      3  N   UNL     1      11.019   6.972   6.164  0.00  0.00    -0.297 NA
ATOM      6  C   UNL     1       8.799   6.877   7.514  0.00  0.00    -0.000 C 
ATOM      7  C   UNL     1       9.945   6.364   5.334  0.00  0.00    +0.074 C 
ATOM      8  C   UNL     1       9.953   6.231   8.315  0.00  0.00    +0.028 C 
ATOM      9  C   UNL     1       8.658   6.151   6.162  0.00  0.00    +0.024 C 
ATOM     10  C   UNL     1       9.210   8.331   7.218  0.00  0.00    +0.019 C 
ATOM     11  C   UNL     1      11.210   6.193   7.413  0.00  0.00    +0.092 C 
ATOM     12  C   UNL     1      10.590   8.341   6.536  0.00  0.00    +0.085 C 
BRANCH   8  14
ATOM     14  C   UNL     1       9.606   4.873   8.845  0.00  0.00    -0.030 C 
ATOM     15  C   UNL     1       9.021   4.658  10.028  0.00  0.00    +0.004 C 
ENDBRANCH   8  14
ENDBRANCH  13   7
TORSDOF 3
ENDMDL
MODEL 4
REMARK VINA RESULT:      -5.9     26.647     28.747
REMARK  Name = 11943051
REMARK  3 active torsions:
REMARK  status: ('A' for Active; 'I' for Inactive)
REMARK    1  A    between atoms: N_4  and  C_13
REMARK    2  A    between atoms: C_7  and  C_13
REMARK    3  A    between atoms: C_8  and  C_14
REMARK                            x       y       z     vdW  Elec       q    Type
REMARK                         _______ _______ _______ _____ _____    ______ ____
ROOT
ATOM     13  C   UNL     1      -4.892 -13.887  16.826  0.00  0.00    +0.124 C 
ENDROOT
BRANCH  13   4
ATOM      1  O   UNL     1      -1.639 -10.629  12.329  0.00  0.00    -0.377 OA
ATOM      2  O   UNL     1      -4.748 -14.062  14.022  0.00  0.00    -0.253 OA
ATOM      4  N   UNL     1      -3.980 -13.149  15.982  0.00  0.00    -0.298 N 
ATOM      5  N   UNL     1      -3.023 -12.516  13.915  0.00  0.00    -0.281 N 
ATOM     16  C   UNL     1      -3.972 -13.294  14.599  0.00  0.00    +0.302 C 
ATOM     17  C   UNL     1      -2.066 -11.580  14.524  0.00  0.00    +0.137 C 
ATOM     18  C   UNL     1      -2.827 -12.728  12.479  0.00  0.00    +0.137 C 
ATOM     19  C   UNL     1      -1.939 -10.312  13.688  0.00  0.00    +0.179 C 
ATOM     20  C   UNL     1      -2.688 -11.403  11.746  0.00  0.00    +0.179 C 
ATOM     21  H   UNL     1      -3.292 -12.580  16.454  0.00  0.00    +0.150 HD
ENDBRANCH  13   4
BRANCH  13   7
ATOM      3  N   UNL     1      -6.715 -12.696  18.071  0.00  0.00    -0.297 NA
ATOM      6  C   UNL     1      -5.254 -10.613  18.611  0.00  0.00    -0.000 C 
ATOM      7  C   UNL     1      -5.275 -13.069  18.062  0.00  0.00    +0.074 C 
ATOM      8  C   UNL     1      -6.233 -10.310  17.452  0.00  0.00    +0.028 C 
ATOM      9  C   UNL     1      -4.378 -11.821  18.223  0.00  0.00    +0.024 C 
ATOM     10  C   UNL     1      -6.105 -11.030  19.826  0.00  0.00    +0.019 C 
ATOM     11  C   UNL     1      -6.975 -11.617  17.086  0.00  0.00    +0.092 C 
ATOM     12  C   UNL     1      -7.044 -12.178  19.420  0.00  0.00    +0.085 C 
BRANCH   8  14
ATOM     14  C   UNL     1      -5.556  -9.701  16.262  0.00  0.00    -0.030 C 
ATOM     15  C   UNL     1      -5.758 -10.099  15.002  0.00  0.00    +0.004 C 
ENDBRANCH   8  14
ENDBRANCH  13   7
TORSDOF 3
ENDMDL
MODEL 5
REMARK VINA RESULT:      -5.9      4.691      6.181
REMARK  Name = 11943051
REMARK  3 active torsions:
REMARK  status: ('A' for Active; 'I' for Inactive)
REMARK    1  A    between atoms: N_4  and  C_13
REMARK    2  A    between atoms: C_7  and  C_13
REMARK    3  A    between atoms: C_8  and  C_14
REMARK                            x       y       z     vdW  Elec       q    Type
REMARK                         _______ _______ _______ _____ _____    ______ ____
ROOT
ATOM     13  C   UNL     1      12.037   8.673  17.527  0.00  0.00    +0.124 C 
ENDROOT
BRANCH  13   4
ATOM      1  O   UNL     1      15.611  12.995  14.370  0.00  0.00    -0.377 OA
ATOM      2  O   UNL     1      13.729   8.529  15.284  0.00  0.00    -0.253 OA
ATOM      4  N   UNL     1      12.884   9.739  17.041  0.00  0.00    -0.298 N 
ATOM      5  N   UNL     1      14.464  10.710  15.575  0.00  0.00    -0.281 N 
ATOM     16  C   UNL     1      13.694   9.587  15.921  0.00  0.00    +0.302 C 
ATOM     17  C   UNL     1      14.480  12.001  16.278  0.00  0.00    +0.137 C 
ATOM     18  C   UNL     1      15.470  10.587  14.517  0.00  0.00    +0.137 C 
ATOM     19  C   UNL     1      14.529  13.158  15.286  0.00  0.00    +0.179 C 
ATOM     20  C   UNL     1      15.449  11.801  13.602  0.00  0.00    +0.179 C 
ATOM     21  H   UNL     1      12.917  10.578  17.603  0.00  0.00    +0.150 HD
ENDBRANCH  13   4
BRANCH  13   7
ATOM      3  N   UNL     1      11.592   7.481  19.687  0.00  0.00    -0.297 NA
ATOM      6  C   UNL     1      13.298   8.896  21.047  0.00  0.00    -0.000 C 
ATOM      7  C   UNL     1      12.635   8.029  18.780  0.00  0.00    +0.074 C 
ATOM      8  C   UNL     1      11.851   9.362  21.332  0.00  0.00    +0.028 C 
ATOM      9  C   UNL     1      13.570   9.001  19.534  0.00  0.00    +0.024 C 
ATOM     10  C   UNL     1      13.378   7.407  21.429  0.00  0.00    +0.019 C 
ATOM     11  C   UNL     1      10.895   8.582  20.398  0.00  0.00    +0.092 C 
ATOM     12  C   UNL     1      12.266   6.633  20.700  0.00  0.00    +0.085 C 
BRANCH   8  14
ATOM     14  C   UNL     1      11.678  10.845  21.193  0.00  0.00    -0.030 C 
ATOM     15  C   UNL     1      11.302  11.651  22.191  0.00  0.00    +0.004 C 
ENDBRANCH   8  14
ENDBRANCH  13   7
TORSDOF 3
ENDMDL
MODEL 6
REMARK VINA RESULT:      -5.7     14.575     17.155
REMARK  Name = 11943051
REMARK  3 active torsions:
REMARK  status: ('A' for Active; 'I' for Inactive)
REMARK    1  A    between atoms: N_4  and  C_13
REMARK    2  A    between atoms: C_7  and  C_13
REMARK    3  A    between atoms: C_8  and  C_14
REMARK                            x       y       z     vdW  Elec       q    Type
REMARK                         _______ _______ _______ _____ _____    ______ ____
ROOT
ATOM     13  C   UNL     1      11.687   6.802   4.535  0.00  0.00    +0.124 C 
ENDROOT
BRANCH  13   4
ATOM      1  O   UNL     1      12.755   2.985  -0.535  0.00  0.00    -0.377 OA
ATOM      2  O   UNL     1      10.281   6.299   2.151  0.00  0.00    -0.253 OA
ATOM      4  N   UNL     1      12.016   5.785   3.562  0.00  0.00    -0.298 N 
ATOM      5  N   UNL     1      11.707   4.568   1.559  0.00  0.00    -0.281 N 
ATOM     16  C   UNL     1      11.268   5.600   2.405  0.00  0.00    +0.302 C 
ATOM     17  C   UNL     1      12.867   3.694   1.787  0.00  0.00    +0.137 C 
ATOM     18  C   UNL     1      10.884   4.190   0.408  0.00  0.00    +0.137 C 
ATOM     19  C   UNL     1      13.631   3.457   0.488  0.00  0.00    +0.179 C 
ATOM     20  C   UNL     1      11.745   3.954  -0.824  0.00  0.00    +0.179 C 
ATOM     21  H   UNL     1      12.774   5.162   3.802  0.00  0.00    +0.150 HD
ENDBRANCH  13   4
BRANCH  13   7
ATOM      3  N   UNL     1      10.041   5.294   5.677  0.00  0.00    -0.297 NA
ATOM      6  C   UNL     1       9.679   6.893   7.696  0.00  0.00    -0.000 C 
ATOM      7  C   UNL     1      11.231   6.169   5.852  0.00  0.00    +0.074 C 
ATOM      8  C   UNL     1       8.490   6.979   6.710  0.00  0.00    +0.028 C 
ATOM      9  C   UNL     1      10.980   7.234   6.943  0.00  0.00    +0.024 C 
ATOM     10  C   UNL     1       9.782   5.427   8.156  0.00  0.00    +0.019 C 
ATOM     11  C   UNL     1       8.822   6.115   5.470  0.00  0.00    +0.092 C 
ATOM     12  C   UNL     1       9.863   4.511   6.923  0.00  0.00    +0.085 C 
BRANCH   8  14
ATOM     14  C   UNL     1       8.147   8.388   6.332  0.00  0.00    -0.030 C 
ATOM     15  C   UNL     1       8.114   8.838   5.074  0.00  0.00    +0.004 C 
ENDBRANCH   8  14
ENDBRANCH  13   7
TORSDOF 3
ENDMDL
MODEL 7
REMARK VINA RESULT:      -5.6     26.714     29.013
REMARK  Name = 11943051
REMARK  3 active torsions:
REMARK  status: ('A' for Active; 'I' for Inactive)
REMARK    1  A    between atoms: N_4  and  C_13
REMARK    2  A    between atoms: C_7  and  C_13
REMARK    3  A    between atoms: C_8  and  C_14
REMARK                            x       y       z     vdW  Elec       q    Type
REMARK                         _______ _______ _______ _____ _____    ______ ____
ROOT
ATOM     13  C   UNL     1      -7.141  -9.652  16.277  0.00  0.00    +0.124 C 
ENDROOT
BRANCH  13   4
ATOM      1  O   UNL     1      -1.909 -10.828  12.718  0.00  0.00    -0.377 OA
ATOM      2  O   UNL     1      -6.649  -9.719  13.507  0.00  0.00    -0.253 OA
ATOM      4  N   UNL     1      -5.912 -10.084  15.649  0.00  0.00    -0.298 N 
ATOM      5  N   UNL     1      -4.500 -10.540  13.809  0.00  0.00    -0.281 N 
ATOM     16  C   UNL     1      -5.748 -10.087  14.269  0.00  0.00    +0.302 C 
ATOM     17  C   UNL     1      -3.379 -10.993  14.646  0.00  0.00    +0.137 C 
ATOM     18  C   UNL     1      -4.299 -10.739  12.372  0.00  0.00    +0.137 C 
ATOM     19  C   UNL     1      -2.052 -10.484  14.096  0.00  0.00    +0.179 C 
ATOM     20  C   UNL     1      -2.938 -10.220  11.936  0.00  0.00    +0.179 C 
ATOM     21  H   UNL     1      -5.202 -10.458  16.264  0.00  0.00    +0.150 HD
ENDBRANCH  13   4
BRANCH  13   7
ATOM      3  N   UNL     1      -7.809 -10.386  18.579  0.00  0.00    -0.297 NA
ATOM      6  C   UNL     1      -6.761 -12.754  18.342  0.00  0.00    -0.000 C 
ATOM      7  C   UNL     1      -7.732 -10.766  17.144  0.00  0.00    +0.074 C 
ATOM      8  C   UNL     1      -5.856 -11.839  19.201  0.00  0.00    +0.028 C 
ATOM      9  C   UNL     1      -6.971 -12.099  16.963  0.00  0.00    +0.024 C 
ATOM     10  C   UNL     1      -8.133 -12.818  19.038  0.00  0.00    +0.019 C 
ATOM     11  C   UNL     1      -6.458 -10.414  19.193  0.00  0.00    +0.092 C 
ATOM     12  C   UNL     1      -8.651 -11.389  19.273  0.00  0.00    +0.085 C 
BRANCH   8  14
ATOM     14  C   UNL     1      -4.427 -11.843  18.750  0.00  0.00    -0.030 C 
ATOM     15  C   UNL     1      -3.399 -12.204  19.525  0.00  0.00    +0.004 C 
ENDBRANCH   8  14
ENDBRANCH  13   7
TORSDOF 3
ENDMDL
MODEL 8
REMARK VINA RESULT:      -5.6      4.723      6.688
REMARK  Name = 11943051
REMARK  3 active torsions:
REMARK  status: ('A' for Active; 'I' for Inactive)
REMARK    1  A    between atoms: N_4  and  C_13
REMARK    2  A    between atoms: C_7  and  C_13
REMARK    3  A    between atoms: C_8  and  C_14
REMARK                            x       y       z     vdW  Elec       q    Type
REMARK                         _______ _______ _______ _____ _____    ______ ____
ROOT
ATOM     13  C   UNL     1      10.791  10.170  23.210  0.00  0.00    +0.124 C 
ENDROOT
BRANCH  13   4
ATOM      1  O   UNL     1      15.341   6.782  20.171  0.00  0.00    -0.377 OA
ATOM      2  O   UNL     1      10.802   8.566  20.898  0.00  0.00    -0.253 OA
ATOM      4  N   UNL     1      11.896   9.358  22.753  0.00  0.00    -0.298 N 
ATOM      5  N   UNL     1      12.974   7.849  21.286  0.00  0.00    -0.281 N 
ATOM     16  C   UNL     1      11.821   8.591  21.596  0.00  0.00    +0.302 C 
ATOM     17  C   UNL     1      14.223   7.824  22.060  0.00  0.00    +0.137 C 
ATOM     18  C   UNL     1      12.927   6.885  20.185  0.00  0.00    +0.137 C 
ATOM     19  C   UNL     1      15.435   7.830  21.135  0.00  0.00    +0.179 C 
ATOM     20  C   UNL     1      14.191   6.957  19.342  0.00  0.00    +0.179 C 
ATOM     21  H   UNL     1      12.703   9.314  23.361  0.00  0.00    +0.150 HD
ENDBRANCH  13   4
BRANCH  13   7
ATOM      3  N   UNL     1      10.319  12.328  24.397  0.00  0.00    -0.297 NA
ATOM      6  C   UNL     1      12.767  13.188  24.220  0.00  0.00    -0.000 C 
ATOM      7  C   UNL     1      11.254  11.178  24.264  0.00  0.00    +0.074 C 
ATOM      8  C   UNL     1      11.864  13.889  23.178  0.00  0.00    +0.028 C 
ATOM      9  C   UNL     1      12.696  11.664  24.000  0.00  0.00    +0.024 C 
ATOM     10  C   UNL     1      12.170  13.482  25.609  0.00  0.00    +0.019 C 
ATOM     11  C   UNL     1      10.459  13.243  23.237  0.00  0.00    +0.092 C 
ATOM     12  C   UNL     1      10.686  13.076  25.622  0.00  0.00    +0.085 C 
BRANCH   8  14
ATOM     14  C   UNL     1      12.436  13.854  21.793  0.00  0.00    -0.030 C 
ATOM     15  C   UNL     1      11.707  13.979  20.680  0.00  0.00    +0.004 C 
ENDBRANCH   8  14
ENDBRANCH  13   7
TORSDOF 3
ENDMDL
MODEL 9
REMARK VINA RESULT:      -5.5     13.649     16.599
REMARK  Name = 11943051
REMARK  3 active torsions:
REMARK  status: ('A' for Active; 'I' for Inactive)
REMARK    1  A    between atoms: N_4  and  C_13
REMARK    2  A    between atoms: C_7  and  C_13
REMARK    3  A    between atoms: C_8  and  C_14
REMARK                            x       y       z     vdW  Elec       q    Type
REMARK                         _______ _______ _______ _____ _____    ______ ____
ROOT
ATOM     13  C   UNL     1      12.088   6.987   5.228  0.00  0.00    +0.124 C 
ENDROOT
BRANCH  13   4
ATOM      1  O   UNL     1      13.285   3.415   0.011  0.00  0.00    -0.377 OA
ATOM      2  O   UNL     1      13.201   7.544   2.705  0.00  0.00    -0.253 OA
ATOM      4  N   UNL     1      12.146   6.070   4.112  0.00  0.00    -0.298 N 
ATOM      5  N   UNL     1      12.691   5.428   1.903  0.00  0.00    -0.281 N 
ATOM     16  C   UNL     1      12.715   6.424   2.894  0.00  0.00    +0.302 C 
ATOM     17  C   UNL     1      12.134   4.075   2.046  0.00  0.00    +0.137 C 
ATOM     18  C   UNL     1      13.112   5.766   0.541  0.00  0.00    +0.137 C 
ATOM     19  C   UNL     1      13.028   3.045   1.365  0.00  0.00    +0.179 C 
ATOM     20  C   UNL     1      13.976   4.663  -0.051  0.00  0.00    +0.179 C 
ATOM     21  H   UNL     1      11.681   5.182   4.236  0.00  0.00    +0.150 HD
ENDBRANCH  13   4
BRANCH  13   7
ATOM      3  N   UNL     1      10.566   8.484   6.543  0.00  0.00    -0.297 NA
ATOM      6  C   UNL     1       8.498   6.927   6.295  0.00  0.00    -0.000 C 
ATOM      7  C   UNL     1      10.707   7.641   5.326  0.00  0.00    +0.074 C 
ATOM      8  C   UNL     1       9.119   6.790   7.704  0.00  0.00    +0.028 C 
ATOM      9  C   UNL     1       9.571   6.598   5.240  0.00  0.00    +0.024 C 
ATOM     10  C   UNL     1       8.108   8.406   6.112  0.00  0.00    +0.019 C 
ATOM     11  C   UNL     1      10.418   7.631   7.748  0.00  0.00    +0.092 C 
ATOM     12  C   UNL     1       9.332   9.293   6.397  0.00  0.00    +0.085 C 
BRANCH   8  14
ATOM     14  C   UNL     1       9.365   5.365   8.097  0.00  0.00    -0.030 C 
ATOM     15  C   UNL     1       9.558   4.958   9.356  0.00  0.00    +0.004 C 
ENDBRANCH   8  14
ENDBRANCH  13   7
TORSDOF 3
ENDMDL
MODEL 10
REMARK VINA RESULT:      -5.5     15.130     18.398
REMARK  Name = 11943051
REMARK  3 active torsions:
REMARK  status: ('A' for Active; 'I' for Inactive)
REMARK    1  A    between atoms: N_4  and  C_13
REMARK    2  A    between atoms: C_7  and  C_13
REMARK    3  A    between atoms: C_8  and  C_14
REMARK                            x       y       z     vdW  Elec       q    Type
REMARK                         _______ _______ _______ _____ _____    ______ ____
ROOT
ATOM     13  C   UNL     1      10.890   4.260   2.667  0.00  0.00    +0.124 C 
ENDROOT
BRANCH  13   4
ATOM      1  O   UNL     1       9.071   7.282   8.049  0.00  0.00    -0.377 OA
ATOM      2  O   UNL     1       9.543   6.676   3.178  0.00  0.00    -0.253 OA
ATOM      4  N   UNL     1      10.694   4.855   3.969  0.00  0.00    -0.298 N 
ATOM      5  N   UNL     1       9.910   6.512   5.463  0.00  0.00    -0.281 N 
ATOM     16  C   UNL     1      10.014   6.056   4.138  0.00  0.00    +0.302 C 
ATOM     17  C   UNL     1      10.440   5.837   6.656  0.00  0.00    +0.137 C 
ATOM     18  C   UNL     1       9.363   7.846   5.718  0.00  0.00    +0.137 C 
ATOM     19  C   UNL     1       9.453   5.927   7.815  0.00  0.00    +0.179 C 
ATOM     20  C   UNL     1       8.412   7.828   6.905  0.00  0.00    +0.179 C 
ATOM     21  H   UNL     1      11.144   4.393   4.747  0.00  0.00    +0.150 HD
ENDBRANCH  13   4
BRANCH  13   7
ATOM      3  N   UNL     1      12.580   5.597   1.386  0.00  0.00    -0.297 NA
ATOM      6  C   UNL     1      13.665   3.518   0.263  0.00  0.00    -0.000 C 
ATOM      7  C   UNL     1      12.349   4.389   2.222  0.00  0.00    +0.074 C 
ATOM      8  C   UNL     1      12.741   4.257  -0.733  0.00  0.00    +0.028 C 
ATOM      9  C   UNL     1      12.845   3.115   1.503  0.00  0.00    +0.024 C 
ATOM     10  C   UNL     1      14.735   4.525   0.723  0.00  0.00    +0.019 C 
ATOM     11  C   UNL     1      12.021   5.398   0.026  0.00  0.00    +0.092 C 
ATOM     12  C   UNL     1      14.044   5.791   1.259  0.00  0.00    +0.085 C 
BRANCH   8  14
ATOM     14  C   UNL     1      11.769   3.343  -1.416  0.00  0.00    -0.030 C 
ATOM     15  C   UNL     1      12.127   2.345  -2.231  0.00  0.00    +0.004 C 
ENDBRANCH   8  14
ENDBRANCH  13   7
TORSDOF 3
ENDMDL
