MODEL 1
REMARK VINA RESULT:      -7.0      0.000      0.000
REMARK  Name = 71693044
REMARK  13 active torsions:
REMARK  status: ('A' for Active; 'I' for Inactive)
REMARK    1  A    between atoms: N_2  and  C_13
REMARK    2  A    between atoms: N_5  and  C_22
REMARK    3  A    between atoms: N_5  and  C_28
REMARK    4  A    between atoms: N_5  and  C_29
REMARK    5  A    between atoms: C_6  and  C_10
REMARK    6  A    between atoms: C_7  and  C_13
REMARK    7  A    between atoms: C_9  and  C_14
REMARK    8  A    between atoms: C_10  and  C_15
REMARK    9  A    between atoms: C_10  and  C_16
REMARK   10  A    between atoms: C_11  and  C_17
REMARK   11  A    between atoms: C_14  and  C_18
REMARK   12  A    between atoms: C_19  and  C_22
REMARK   13  A    between atoms: C_25  and  C_27
REMARK                            x       y       z     vdW  Elec       q    Type
REMARK                         _______ _______ _______ _____ _____    ______ ____
ROOT
ATOM      6  C   UNL     1      14.075   9.149  19.998  0.00  0.00    +0.000 C 
ATOM      7  C   UNL     1      14.231   7.709  19.451  0.00  0.00    +0.032 C 
ATOM      8  C   UNL     1      13.690   9.118  21.484  0.00  0.00    +0.012 C 
ATOM      9  C   UNL     1      12.373   8.358  21.730  0.00  0.00    +0.022 C 
ATOM     11  C   UNL     1      12.344   7.033  20.996  0.00  0.00    -0.073 C 
ATOM     12  C   UNL     1      13.190   6.755  19.989  0.00  0.00    -0.022 C 
ATOM     17  C   UNL     1      11.347   6.015  21.477  0.00  0.00    +0.039 C 
ENDROOT
BRANCH   6  10
ATOM     10  C   UNL     1      15.355   9.971  19.810  0.00  0.00    -0.013 C 
ATOM     15  C   UNL     1      15.100  11.437  20.148  0.00  0.00    +0.007 C 
ATOM     16  C   UNL     1      16.481   9.405  20.669  0.00  0.00    +0.007 C 
ENDBRANCH   6  10
BRANCH   7  13
ATOM     13  C   UNL     1      14.194   7.692  17.918  0.00  0.00    +0.112 C 
BRANCH  13   2
ATOM      1  O   UNL     1      13.576   8.476  15.202  0.00  0.00    -0.274 OA
ATOM      2  N   UNL     1      14.108   9.021  17.398  0.00  0.00    -0.314 N 
ATOM     19  C   UNL     1      13.803   9.317  16.069  0.00  0.00    +0.227 C 
ATOM     30  H   UNL     1      14.217   9.792  18.051  0.00  0.00    +0.149 HD
BRANCH  19  22
ATOM     22  C   UNL     1      13.809  10.807  15.792  0.00  0.00    +0.180 C 
BRANCH  22   5
ATOM      5  N   UNL     1      14.307  11.031  14.442  0.00  0.00    -0.300 NA
ATOM     28  C   UNL     1      15.769  11.134  14.441  0.00  0.00    +0.105 C 
ATOM     29  C   UNL     1      13.713  12.238  13.864  0.00  0.00    +0.105 C 
ENDBRANCH  22   5
ENDBRANCH  19  22
ENDBRANCH  13   2
ENDBRANCH   7  13
BRANCH   9  14
ATOM     14  C   UNL     1      11.161   9.219  21.359  0.00  0.00    +0.082 C 
BRANCH  14  18
ATOM      3  N   UNL     1      10.945  10.538  23.473  0.00  0.00    -0.342 N 
ATOM      4  N   UNL     1      11.329  11.717  21.628  0.00  0.00    -0.232 NA
ATOM     18  C   UNL     1      11.151  10.512  22.121  0.00  0.00    +0.109 A 
ATOM     20  C   UNL     1      10.992  11.847  23.878  0.00  0.00    +0.066 A 
ATOM     21  C   UNL     1      11.233  12.563  22.708  0.00  0.00    +0.089 A 
ATOM     23  C   UNL     1      10.850  12.449  25.129  0.00  0.00    +0.031 A 
ATOM     24  C   UNL     1      11.341  13.963  22.773  0.00  0.00    +0.030 A 
ATOM     25  C   UNL     1      10.961  13.842  25.174  0.00  0.00    -0.048 A 
ATOM     26  C   UNL     1      11.201  14.588  24.018  0.00  0.00    +0.005 A 
ATOM     27  C   UNL     1      10.818  14.544  26.485  0.00  0.00    +0.044 C 
ATOM     31  H   UNL     1      10.786   9.737  24.069  0.00  0.00    +0.167 HD
ENDBRANCH  14  18
ENDBRANCH   9  14
TORSDOF 7
ENDMDL
MODEL 2
REMARK VINA RESULT:      -6.6     26.844     29.038
REMARK  Name = 71693044
REMARK  13 active torsions:
REMARK  status: ('A' for Active; 'I' for Inactive)
REMARK    1  A    between atoms: N_2  and  C_13
REMARK    2  A    between atoms: N_5  and  C_22
REMARK    3  A    between atoms: N_5  and  C_28
REMARK    4  A    between atoms: N_5  and  C_29
REMARK    5  A    between atoms: C_6  and  C_10
REMARK    6  A    between atoms: C_7  and  C_13
REMARK    7  A    between atoms: C_9  and  C_14
REMARK    8  A    between atoms: C_10  and  C_15
REMARK    9  A    between atoms: C_10  and  C_16
REMARK   10  A    between atoms: C_11  and  C_17
REMARK   11  A    between atoms: C_14  and  C_18
REMARK   12  A    between atoms: C_19  and  C_22
REMARK   13  A    between atoms: C_25  and  C_27
REMARK                            x       y       z     vdW  Elec       q    Type
REMARK                         _______ _______ _______ _____ _____    ______ ____
ROOT
ATOM      6  C   UNL     1      -5.729 -10.668  17.773  0.00  0.00    +0.000 C 
ATOM      7  C   UNL     1      -5.082 -11.003  16.406  0.00  0.00    +0.032 C 
ATOM      8  C   UNL     1      -7.233 -10.978  17.744  0.00  0.00    +0.012 C 
ATOM      9  C   UNL     1      -7.971 -10.186  16.648  0.00  0.00    +0.022 C 
ATOM     11  C   UNL     1      -7.242 -10.248  15.322  0.00  0.00    -0.073 C 
ATOM     12  C   UNL     1      -5.955 -10.628  15.231  0.00  0.00    -0.022 C 
ATOM     17  C   UNL     1      -8.039  -9.906  14.094  0.00  0.00    +0.039 C 
ENDROOT
BRANCH   6  10
ATOM     10  C   UNL     1      -5.063 -11.434  18.920  0.00  0.00    -0.013 C 
ATOM     15  C   UNL     1      -5.926 -11.366  20.177  0.00  0.00    +0.007 C 
ATOM     16  C   UNL     1      -4.809 -12.883  18.516  0.00  0.00    +0.007 C 
ENDBRANCH   6  10
BRANCH   7  13
ATOM     13  C   UNL     1      -3.713 -10.326  16.261  0.00  0.00    +0.112 C 
BRANCH  13   2
ATOM      1  O   UNL     1      -1.174 -11.148  15.145  0.00  0.00    -0.274 OA
ATOM      2  N   UNL     1      -3.314 -10.279  14.889  0.00  0.00    -0.314 N 
ATOM     19  C   UNL     1      -2.065 -10.696  14.428  0.00  0.00    +0.227 C 
ATOM     30  H   UNL     1      -4.005  -9.980  14.205  0.00  0.00    +0.149 HD
BRANCH  19  22
ATOM     22  C   UNL     1      -1.906 -10.505  12.933  0.00  0.00    +0.180 C 
BRANCH  22   5
ATOM      5  N   UNL     1      -3.144 -10.898  12.276  0.00  0.00    -0.300 NA
ATOM     28  C   UNL     1      -3.070 -12.290  11.823  0.00  0.00    +0.105 C 
ATOM     29  C   UNL     1      -3.435 -10.013  11.147  0.00  0.00    +0.105 C 
ENDBRANCH  22   5
ENDBRANCH  19  22
ENDBRANCH  13   2
ENDBRANCH   7  13
BRANCH   9  14
ATOM     14  C   UNL     1      -8.204  -8.733  17.079  0.00  0.00    +0.082 C 
BRANCH  14  18
ATOM      3  N   UNL     1      -9.653  -7.192  15.743  0.00  0.00    -0.342 N 
ATOM      4  N   UNL     1     -10.720  -8.699  16.981  0.00  0.00    -0.232 NA
ATOM     18  C   UNL     1      -9.545  -8.233  16.623  0.00  0.00    +0.109 A 
ATOM     20  C   UNL     1     -10.987  -6.971  15.520  0.00  0.00    +0.066 A 
ATOM     21  C   UNL     1     -11.633  -7.923  16.304  0.00  0.00    +0.089 A 
ATOM     23  C   UNL     1     -11.665  -6.046  14.723  0.00  0.00    +0.031 A 
ATOM     24  C   UNL     1     -13.037  -7.971  16.304  0.00  0.00    +0.030 A 
ATOM     25  C   UNL     1     -13.062  -6.109  14.737  0.00  0.00    -0.048 A 
ATOM     26  C   UNL     1     -13.738  -7.052  15.513  0.00  0.00    +0.005 A 
ATOM     27  C   UNL     1     -13.844  -5.146  13.904  0.00  0.00    +0.044 C 
ATOM     31  H   UNL     1      -8.887  -6.677  15.330  0.00  0.00    +0.167 HD
ENDBRANCH  14  18
ENDBRANCH   9  14
TORSDOF 7
ENDMDL
MODEL 3
REMARK VINA RESULT:      -6.6     26.555     29.939
REMARK  Name = 71693044
REMARK  13 active torsions:
REMARK  status: ('A' for Active; 'I' for Inactive)
REMARK    1  A    between atoms: N_2  and  C_13
REMARK    2  A    between atoms: N_5  and  C_22
REMARK    3  A    between atoms: N_5  and  C_28
REMARK    4  A    between atoms: N_5  and  C_29
REMARK    5  A    between atoms: C_6  and  C_10
REMARK    6  A    between atoms: C_7  and  C_13
REMARK    7  A    between atoms: C_9  and  C_14
REMARK    8  A    between atoms: C_10  and  C_15
REMARK    9  A    between atoms: C_10  and  C_16
REMARK   10  A    between atoms: C_11  and  C_17
REMARK   11  A    between atoms: C_14  and  C_18
REMARK   12  A    between atoms: C_19  and  C_22
REMARK   13  A    between atoms: C_25  and  C_27
REMARK                            x       y       z     vdW  Elec       q    Type
REMARK                         _______ _______ _______ _____ _____    ______ ____
ROOT
ATOM      6  C   UNL     1      -3.173 -12.318  13.693  0.00  0.00    +0.000 C 
ATOM      7  C   UNL     1      -1.997 -11.461  14.224  0.00  0.00    +0.032 C 
ATOM      8  C   UNL     1      -2.996 -12.600  12.194  0.00  0.00    +0.012 C 
ATOM      9  C   UNL     1      -2.921 -11.304  11.362  0.00  0.00    +0.022 C 
ATOM     11  C   UNL     1      -1.973 -10.295  11.978  0.00  0.00    -0.073 C 
ATOM     12  C   UNL     1      -1.561 -10.388  13.254  0.00  0.00    -0.022 C 
ATOM     17  C   UNL     1      -1.474  -9.199  11.078  0.00  0.00    +0.039 C 
ENDROOT
BRANCH   6  10
ATOM     10  C   UNL     1      -3.305 -13.640  14.456  0.00  0.00    -0.013 C 
ATOM     15  C   UNL     1      -4.694 -13.760  15.077  0.00  0.00    +0.007 C 
ATOM     16  C   UNL     1      -3.021 -14.819  13.532  0.00  0.00    +0.007 C 
ENDBRANCH   6  10
BRANCH   7  13
ATOM     13  C   UNL     1      -2.346 -10.819  15.573  0.00  0.00    +0.112 C 
BRANCH  13   2
ATOM      1  O   UNL     1      -4.386 -10.889  17.622  0.00  0.00    -0.274 OA
ATOM      2  N   UNL     1      -3.640 -10.214  15.527  0.00  0.00    -0.314 N 
ATOM     19  C   UNL     1      -4.572 -10.294  16.562  0.00  0.00    +0.227 C 
ATOM     30  H   UNL     1      -3.868  -9.645  14.717  0.00  0.00    +0.149 HD
BRANCH  19  22
ATOM     22  C   UNL     1      -5.870  -9.586  16.229  0.00  0.00    +0.180 C 
BRANCH  22   5
ATOM      5  N   UNL     1      -6.960 -10.251  16.930  0.00  0.00    -0.300 NA
ATOM     28  C   UNL     1      -7.561 -11.287  16.086  0.00  0.00    +0.105 C 
ATOM     29  C   UNL     1      -7.976  -9.282  17.344  0.00  0.00    +0.105 C 
ENDBRANCH  22   5
ENDBRANCH  19  22
ENDBRANCH  13   2
ENDBRANCH   7  13
BRANCH   9  14
ATOM     14  C   UNL     1      -4.313 -10.698  11.158  0.00  0.00    +0.082 C 
BRANCH  14  18
ATOM      3  N   UNL     1      -4.196 -11.620   8.836  0.00  0.00    -0.342 N 
ATOM      4  N   UNL     1      -5.545  -9.876   9.121  0.00  0.00    -0.232 NA
ATOM     18  C   UNL     1      -4.707 -10.701   9.710  0.00  0.00    +0.109 A 
ATOM     20  C   UNL     1      -4.738 -11.371   7.602  0.00  0.00    +0.066 A 
ATOM     21  C   UNL     1      -5.577 -10.279   7.806  0.00  0.00    +0.089 A 
ATOM     23  C   UNL     1      -4.573 -11.989   6.361  0.00  0.00    +0.031 A 
ATOM     24  C   UNL     1      -6.301  -9.760   6.719  0.00  0.00    +0.030 A 
ATOM     25  C   UNL     1      -5.301 -11.459   5.292  0.00  0.00    -0.048 A 
ATOM     26  C   UNL     1      -6.150 -10.364   5.465  0.00  0.00    +0.005 A 
ATOM     27  C   UNL     1      -5.167 -12.078   3.939  0.00  0.00    +0.044 C 
ATOM     31  H   UNL     1      -3.535 -12.353   9.058  0.00  0.00    +0.167 HD
ENDBRANCH  14  18
ENDBRANCH   9  14
TORSDOF 7
ENDMDL
MODEL 4
REMARK VINA RESULT:      -6.5     26.612     29.830
REMARK  Name = 71693044
REMARK  13 active torsions:
REMARK  status: ('A' for Active; 'I' for Inactive)
REMARK    1  A    between atoms: N_2  and  C_13
REMARK    2  A    between atoms: N_5  and  C_22
REMARK    3  A    between atoms: N_5  and  C_28
REMARK    4  A    between atoms: N_5  and  C_29
REMARK    5  A    between atoms: C_6  and  C_10
REMARK    6  A    between atoms: C_7  and  C_13
REMARK    7  A    between atoms: C_9  and  C_14
REMARK    8  A    between atoms: C_10  and  C_15
REMARK    9  A    between atoms: C_10  and  C_16
REMARK   10  A    between atoms: C_11  and  C_17
REMARK   11  A    between atoms: C_14  and  C_18
REMARK   12  A    between atoms: C_19  and  C_22
REMARK   13  A    between atoms: C_25  and  C_27
REMARK                            x       y       z     vdW  Elec       q    Type
REMARK                         _______ _______ _______ _____ _____    ______ ____
ROOT
ATOM      6  C   UNL     1      -3.077 -12.385  13.685  0.00  0.00    +0.000 C 
ATOM      7  C   UNL     1      -1.921 -11.479  14.175  0.00  0.00    +0.032 C 
ATOM      8  C   UNL     1      -2.941 -12.661  12.181  0.00  0.00    +0.012 C 
ATOM      9  C   UNL     1      -2.949 -11.365  11.347  0.00  0.00    +0.022 C 
ATOM     11  C   UNL     1      -2.024 -10.316  11.929  0.00  0.00    -0.073 C 
ATOM     12  C   UNL     1      -1.564 -10.390  13.191  0.00  0.00    -0.022 C 
ATOM     17  C   UNL     1      -1.604  -9.201  11.013  0.00  0.00    +0.039 C 
ENDROOT
BRANCH   6  10
ATOM     10  C   UNL     1      -3.127 -13.710  14.453  0.00  0.00    -0.013 C 
ATOM     15  C   UNL     1      -4.491 -13.893  15.111  0.00  0.00    +0.007 C 
ATOM     16  C   UNL     1      -2.813 -14.877  13.522  0.00  0.00    +0.007 C 
ENDBRANCH   6  10
BRANCH   7  13
ATOM     13  C   UNL     1      -2.249 -10.850  15.535  0.00  0.00    +0.112 C 
BRANCH  13   2
ATOM      1  O   UNL     1      -4.283 -10.974  17.589  0.00  0.00    -0.274 OA
ATOM      2  N   UNL     1      -3.541 -10.238  15.512  0.00  0.00    -0.314 N 
ATOM     19  C   UNL     1      -4.470 -10.346  16.548  0.00  0.00    +0.227 C 
ATOM     30  H   UNL     1      -3.769  -9.643  14.721  0.00  0.00    +0.149 HD
BRANCH  19  22
ATOM     22  C   UNL     1      -5.765  -9.622  16.241  0.00  0.00    +0.180 C 
BRANCH  22   5
ATOM      5  N   UNL     1      -6.854 -10.297  16.934  0.00  0.00    -0.300 NA
ATOM     28  C   UNL     1      -7.467 -11.310  16.070  0.00  0.00    +0.105 C 
ATOM     29  C   UNL     1      -7.863  -9.332  17.377  0.00  0.00    +0.105 C 
ENDBRANCH  22   5
ENDBRANCH  19  22
ENDBRANCH  13   2
ENDBRANCH   7  13
BRANCH   9  14
ATOM     14  C   UNL     1      -4.373 -10.818  11.192  0.00  0.00    +0.082 C 
BRANCH  14  18
ATOM      3  N   UNL     1      -5.705  -9.836   9.316  0.00  0.00    -0.342 N 
ATOM      4  N   UNL     1      -4.327 -11.491   8.766  0.00  0.00    -0.232 NA
ATOM     18  C   UNL     1      -4.779 -10.744   9.748  0.00  0.00    +0.109 A 
ATOM     20  C   UNL     1      -5.863 -10.010   7.965  0.00  0.00    +0.066 A 
ATOM     21  C   UNL     1      -4.992 -11.048   7.646  0.00  0.00    +0.089 A 
ATOM     23  C   UNL     1      -6.667  -9.367   7.023  0.00  0.00    +0.031 A 
ATOM     24  C   UNL     1      -4.907 -11.484   6.312  0.00  0.00    +0.030 A 
ATOM     25  C   UNL     1      -6.569  -9.814   5.702  0.00  0.00    -0.048 A 
ATOM     26  C   UNL     1      -5.706 -10.853   5.350  0.00  0.00    +0.005 A 
ATOM     27  C   UNL     1      -7.405  -9.165   4.648  0.00  0.00    +0.044 C 
ATOM     31  H   UNL     1      -6.189  -9.157   9.888  0.00  0.00    +0.167 HD
ENDBRANCH  14  18
ENDBRANCH   9  14
TORSDOF 7
ENDMDL
MODEL 5
REMARK VINA RESULT:      -6.5      3.752      8.444
REMARK  Name = 71693044
REMARK  13 active torsions:
REMARK  status: ('A' for Active; 'I' for Inactive)
REMARK    1  A    between atoms: N_2  and  C_13
REMARK    2  A    between atoms: N_5  and  C_22
REMARK    3  A    between atoms: N_5  and  C_28
REMARK    4  A    between atoms: N_5  and  C_29
REMARK    5  A    between atoms: C_6  and  C_10
REMARK    6  A    between atoms: C_7  and  C_13
REMARK    7  A    between atoms: C_9  and  C_14
REMARK    8  A    between atoms: C_10  and  C_15
REMARK    9  A    between atoms: C_10  and  C_16
REMARK   10  A    between atoms: C_11  and  C_17
REMARK   11  A    between atoms: C_14  and  C_18
REMARK   12  A    between atoms: C_19  and  C_22
REMARK   13  A    between atoms: C_25  and  C_27
REMARK                            x       y       z     vdW  Elec       q    Type
REMARK                         _______ _______ _______ _____ _____    ______ ____
ROOT
ATOM      6  C   UNL     1      12.876  12.442  21.563  0.00  0.00    +0.000 C 
ATOM      7  C   UNL     1      11.400  12.209  21.969  0.00  0.00    +0.032 C 
ATOM      8  C   UNL     1      13.341  11.352  20.586  0.00  0.00    +0.012 C 
ATOM      9  C   UNL     1      13.219   9.939  21.188  0.00  0.00    +0.022 C 
ATOM     11  C   UNL     1      11.873   9.725  21.850  0.00  0.00    -0.073 C 
ATOM     12  C   UNL     1      11.067  10.750  22.180  0.00  0.00    -0.022 C 
ATOM     17  C   UNL     1      11.453   8.300  22.084  0.00  0.00    +0.039 C 
ENDROOT
BRANCH   6  10
ATOM     10  C   UNL     1      13.081  13.824  20.934  0.00  0.00    -0.013 C 
ATOM     15  C   UNL     1      14.533  14.000  20.499  0.00  0.00    +0.007 C 
ATOM     16  C   UNL     1      12.135  14.017  19.753  0.00  0.00    +0.007 C 
ENDBRANCH   6  10
BRANCH   7  13
ATOM     13  C   UNL     1      11.041  13.001  23.233  0.00  0.00    +0.112 C 
BRANCH  13   2
ATOM      1  O   UNL     1      11.824  11.827  25.758  0.00  0.00    -0.274 OA
ATOM      2  N   UNL     1      12.213  13.293  23.997  0.00  0.00    -0.314 N 
ATOM     19  C   UNL     1      12.521  12.680  25.212  0.00  0.00    +0.227 C 
ATOM     30  H   UNL     1      12.888  13.942  23.600  0.00  0.00    +0.149 HD
BRANCH  19  22
ATOM     22  C   UNL     1      13.809  13.204  25.816  0.00  0.00    +0.180 C 
BRANCH  22   5
ATOM      5  N   UNL     1      14.168  12.368  26.952  0.00  0.00    -0.300 NA
ATOM     28  C   UNL     1      14.363  13.185  28.153  0.00  0.00    +0.105 C 
ATOM     29  C   UNL     1      15.376  11.594  26.664  0.00  0.00    +0.105 C 
ENDBRANCH  22   5
ENDBRANCH  19  22
ENDBRANCH  13   2
ENDBRANCH   7  13
BRANCH   9  14
ATOM     14  C   UNL     1      14.364   9.654  22.167  0.00  0.00    +0.082 C 
BRANCH  14  18
ATOM      3  N   UNL     1      16.618   8.571  22.126  0.00  0.00    -0.342 N 
ATOM      4  N   UNL     1      15.224   7.974  20.500  0.00  0.00    -0.232 NA
ATOM     18  C   UNL     1      15.378   8.723  21.569  0.00  0.00    +0.109 A 
ATOM     20  C   UNL     1      17.309   7.664  21.364  0.00  0.00    +0.066 A 
ATOM     21  C   UNL     1      16.418   7.306  20.357  0.00  0.00    +0.089 A 
ATOM     23  C   UNL     1      18.599   7.141  21.468  0.00  0.00    +0.031 A 
ATOM     24  C   UNL     1      16.821   6.372  19.386  0.00  0.00    +0.030 A 
ATOM     25  C   UNL     1      18.982   6.213  20.494  0.00  0.00    -0.048 A 
ATOM     26  C   UNL     1      18.112   5.835  19.471  0.00  0.00    +0.005 A 
ATOM     27  C   UNL     1      20.351   5.618  20.551  0.00  0.00    +0.044 C 
ATOM     31  H   UNL     1      16.965   9.041  22.950  0.00  0.00    +0.167 HD
ENDBRANCH  14  18
ENDBRANCH   9  14
TORSDOF 7
ENDMDL
MODEL 6
REMARK VINA RESULT:      -6.5     13.570     17.650
REMARK  Name = 71693044
REMARK  13 active torsions:
REMARK  status: ('A' for Active; 'I' for Inactive)
REMARK    1  A    between atoms: N_2  and  C_13
REMARK    2  A    between atoms: N_5  and  C_22
REMARK    3  A    between atoms: N_5  and  C_28
REMARK    4  A    between atoms: N_5  and  C_29
REMARK    5  A    between atoms: C_6  and  C_10
REMARK    6  A    between atoms: C_7  and  C_13
REMARK    7  A    between atoms: C_9  and  C_14
REMARK    8  A    between atoms: C_10  and  C_15
REMARK    9  A    between atoms: C_10  and  C_16
REMARK   10  A    between atoms: C_11  and  C_17
REMARK   11  A    between atoms: C_14  and  C_18
REMARK   12  A    between atoms: C_19  and  C_22
REMARK   13  A    between atoms: C_25  and  C_27
REMARK                            x       y       z     vdW  Elec       q    Type
REMARK                         _______ _______ _______ _____ _____    ______ ____
ROOT
ATOM      6  C   UNL     1       9.114   8.161   5.050  0.00  0.00    +0.000 C 
ATOM      7  C   UNL     1       8.760   8.927   6.348  0.00  0.00    +0.032 C 
ATOM      8  C   UNL     1       8.543   6.736   5.096  0.00  0.00    +0.012 C 
ATOM      9  C   UNL     1       9.077   5.933   6.297  0.00  0.00    +0.022 C 
ATOM     11  C   UNL     1       9.008   6.731   7.583  0.00  0.00    -0.073 C 
ATOM     12  C   UNL     1       8.853   8.067   7.587  0.00  0.00    -0.022 C 
ATOM     17  C   UNL     1       9.077   5.953   8.868  0.00  0.00    +0.039 C 
ENDROOT
BRANCH   6  10
ATOM     10  C   UNL     1       8.598   8.886   3.803  0.00  0.00    -0.013 C 
ATOM     15  C   UNL     1       8.782   8.013   2.565  0.00  0.00    +0.007 C 
ATOM     16  C   UNL     1       7.134   9.273   3.980  0.00  0.00    +0.007 C 
ENDBRANCH   6  10
BRANCH   7  13
ATOM     13  C   UNL     1       9.648  10.166   6.520  0.00  0.00    +0.112 C 
BRANCH  13   2
ATOM      1  O   UNL     1      12.118  10.052   5.018  0.00  0.00    -0.274 OA
ATOM      2  N   UNL     1      10.941   9.799   7.006  0.00  0.00    -0.314 N 
ATOM     19  C   UNL     1      12.090   9.769   6.214  0.00  0.00    +0.227 C 
ATOM     30  H   UNL     1      11.037   9.607   8.000  0.00  0.00    +0.149 HD
BRANCH  19  22
ATOM     22  C   UNL     1      13.313   9.316   6.984  0.00  0.00    +0.180 C 
BRANCH  22   5
ATOM      5  N   UNL     1      13.931   8.206   6.271  0.00  0.00    -0.300 NA
ATOM     28  C   UNL     1      13.677   6.940   6.964  0.00  0.00    +0.105 C 
ATOM     29  C   UNL     1      15.371   8.423   6.124  0.00  0.00    +0.105 C 
ENDBRANCH  22   5
ENDBRANCH  19  22
ENDBRANCH  13   2
ENDBRANCH   7  13
BRANCH   9  14
ATOM     14  C   UNL     1      10.502   5.432   6.037  0.00  0.00    +0.082 C 
BRANCH  14  18
ATOM      3  N   UNL     1      11.787   5.964   3.958  0.00  0.00    -0.342 N 
ATOM      4  N   UNL     1      10.114   4.520   3.722  0.00  0.00    -0.232 NA
ATOM     18  C   UNL     1      10.772   5.281   4.568  0.00  0.00    +0.109 A 
ATOM     20  C   UNL     1      11.783   5.622   2.631  0.00  0.00    +0.066 A 
ATOM     21  C   UNL     1      10.731   4.720   2.508  0.00  0.00    +0.089 A 
ATOM     23  C   UNL     1      12.587   6.013   1.558  0.00  0.00    +0.031 A 
ATOM     24  C   UNL     1      10.449   4.164   1.248  0.00  0.00    +0.030 A 
ATOM     25  C   UNL     1      12.291   5.450   0.313  0.00  0.00    -0.048 A 
ATOM     26  C   UNL     1      11.242   4.542   0.158  0.00  0.00    +0.005 A 
ATOM     27  C   UNL     1      13.116   5.828  -0.874  0.00  0.00    +0.044 C 
ATOM     31  H   UNL     1      12.428   6.607   4.405  0.00  0.00    +0.167 HD
ENDBRANCH  14  18
ENDBRANCH   9  14
TORSDOF 7
ENDMDL
MODEL 7
REMARK VINA RESULT:      -6.2     27.232     29.480
REMARK  Name = 71693044
REMARK  13 active torsions:
REMARK  status: ('A' for Active; 'I' for Inactive)
REMARK    1  A    between atoms: N_2  and  C_13
REMARK    2  A    between atoms: N_5  and  C_22
REMARK    3  A    between atoms: N_5  and  C_28
REMARK    4  A    between atoms: N_5  and  C_29
REMARK    5  A    between atoms: C_6  and  C_10
REMARK    6  A    between atoms: C_7  and  C_13
REMARK    7  A    between atoms: C_9  and  C_14
REMARK    8  A    between atoms: C_10  and  C_15
REMARK    9  A    between atoms: C_10  and  C_16
REMARK   10  A    between atoms: C_11  and  C_17
REMARK   11  A    between atoms: C_14  and  C_18
REMARK   12  A    between atoms: C_19  and  C_22
REMARK   13  A    between atoms: C_25  and  C_27
REMARK                            x       y       z     vdW  Elec       q    Type
REMARK                         _______ _______ _______ _____ _____    ______ ____
ROOT
ATOM      6  C   UNL     1      -6.519  -9.537   9.605  0.00  0.00    +0.000 C 
ATOM      7  C   UNL     1      -5.490  -9.124   8.524  0.00  0.00    +0.032 C 
ATOM      8  C   UNL     1      -6.132  -8.945  10.968  0.00  0.00    +0.012 C 
ATOM      9  C   UNL     1      -4.734  -9.401  11.426  0.00  0.00    +0.022 C 
ATOM     11  C   UNL     1      -3.709  -9.274  10.317  0.00  0.00    -0.073 C 
ATOM     12  C   UNL     1      -4.065  -9.137   9.027  0.00  0.00    -0.022 C 
ATOM     17  C   UNL     1      -2.263  -9.262  10.729  0.00  0.00    +0.039 C 
ENDROOT
BRANCH   6  10
ATOM     10  C   UNL     1      -7.940  -9.100   9.234  0.00  0.00    -0.013 C 
ATOM     15  C   UNL     1      -8.887  -9.316  10.411  0.00  0.00    +0.007 C 
ATOM     16  C   UNL     1      -7.949  -7.640   8.792  0.00  0.00    +0.007 C 
ENDBRANCH   6  10
BRANCH   7  13
ATOM     13  C   UNL     1      -5.601 -10.018   7.283  0.00  0.00    +0.112 C 
BRANCH  13   2
ATOM      1  O   UNL     1      -4.821 -11.914   5.241  0.00  0.00    -0.274 OA
ATOM      2  N   UNL     1      -4.859 -11.227   7.461  0.00  0.00    -0.314 N 
ATOM     19  C   UNL     1      -4.521 -12.092   6.420  0.00  0.00    +0.227 C 
ATOM     30  H   UNL     1      -4.509 -11.434   8.393  0.00  0.00    +0.149 HD
BRANCH  19  22
ATOM     22  C   UNL     1      -3.760 -13.310   6.903  0.00  0.00    +0.180 C 
BRANCH  22   5
ATOM      5  N   UNL     1      -3.319 -14.076   5.746  0.00  0.00    -0.300 NA
ATOM     28  C   UNL     1      -3.568 -15.506   5.947  0.00  0.00    +0.105 C 
ATOM     29  C   UNL     1      -1.898 -13.842   5.481  0.00  0.00    +0.105 C 
ENDBRANCH  22   5
ENDBRANCH  19  22
ENDBRANCH  13   2
ENDBRANCH   7  13
BRANCH   9  14
ATOM     14  C   UNL     1      -4.772 -10.831  11.976  0.00  0.00    +0.082 C 
BRANCH  14  18
ATOM      3  N   UNL     1      -5.848 -10.649  14.227  0.00  0.00    -0.342 N 
ATOM      4  N   UNL     1      -3.659 -11.033  14.226  0.00  0.00    -0.232 NA
ATOM     18  C   UNL     1      -4.722 -10.844  13.477  0.00  0.00    +0.109 A 
ATOM     20  C   UNL     1      -5.487 -10.716  15.548  0.00  0.00    +0.066 A 
ATOM     21  C   UNL     1      -4.116 -10.957  15.521  0.00  0.00    +0.089 A 
ATOM     23  C   UNL     1      -6.220 -10.591  16.730  0.00  0.00    +0.031 A 
ATOM     24  C   UNL     1      -3.419 -11.084  16.735  0.00  0.00    +0.030 A 
ATOM     25  C   UNL     1      -5.510 -10.720  17.927  0.00  0.00    -0.048 A 
ATOM     26  C   UNL     1      -4.135 -10.961  17.933  0.00  0.00    +0.005 A 
ATOM     27  C   UNL     1      -6.239 -10.597  19.225  0.00  0.00    +0.044 C 
ATOM     31  H   UNL     1      -6.781 -10.484  13.874  0.00  0.00    +0.167 HD
ENDBRANCH  14  18
ENDBRANCH   9  14
TORSDOF 7
ENDMDL
MODEL 8
REMARK VINA RESULT:      -6.1     11.685     17.324
REMARK  Name = 71693044
REMARK  13 active torsions:
REMARK  status: ('A' for Active; 'I' for Inactive)
REMARK    1  A    between atoms: N_2  and  C_13
REMARK    2  A    between atoms: N_5  and  C_22
REMARK    3  A    between atoms: N_5  and  C_28
REMARK    4  A    between atoms: N_5  and  C_29
REMARK    5  A    between atoms: C_6  and  C_10
REMARK    6  A    between atoms: C_7  and  C_13
REMARK    7  A    between atoms: C_9  and  C_14
REMARK    8  A    between atoms: C_10  and  C_15
REMARK    9  A    between atoms: C_10  and  C_16
REMARK   10  A    between atoms: C_11  and  C_17
REMARK   11  A    between atoms: C_14  and  C_18
REMARK   12  A    between atoms: C_19  and  C_22
REMARK   13  A    between atoms: C_25  and  C_27
REMARK                            x       y       z     vdW  Elec       q    Type
REMARK                         _______ _______ _______ _____ _____    ______ ____
ROOT
ATOM      6  C   UNL     1       9.371   8.538   5.729  0.00  0.00    +0.000 C 
ATOM      7  C   UNL     1       8.993   8.925   7.180  0.00  0.00    +0.032 C 
ATOM      8  C   UNL     1       8.844   7.135   5.395  0.00  0.00    +0.012 C 
ATOM      9  C   UNL     1       9.402   6.060   6.347  0.00  0.00    +0.022 C 
ATOM     11  C   UNL     1       9.308   6.490   7.797  0.00  0.00    -0.073 C 
ATOM     12  C   UNL     1       9.112   7.772   8.150  0.00  0.00    -0.022 C 
ATOM     17  C   UNL     1       9.401   5.404   8.833  0.00  0.00    +0.039 C 
ENDROOT
BRANCH   6  10
ATOM     10  C   UNL     1       8.833   9.550   4.712  0.00  0.00    -0.013 C 
ATOM     15  C   UNL     1       9.929   9.949   3.729  0.00  0.00    +0.007 C 
ATOM     16  C   UNL     1       7.627   8.974   3.976  0.00  0.00    +0.007 C 
ENDBRANCH   6  10
BRANCH   7  13
ATOM     13  C   UNL     1       9.842  10.101   7.679  0.00  0.00    +0.112 C 
BRANCH  13   2
ATOM      1  O   UNL     1      10.868  11.298  10.104  0.00  0.00    -0.274 OA
ATOM      2  N   UNL     1       9.117  10.880   8.634  0.00  0.00    -0.314 N 
ATOM     19  C   UNL     1       9.688  11.426   9.784  0.00  0.00    +0.227 C 
ATOM     30  H   UNL     1       8.146  11.097   8.428  0.00  0.00    +0.149 HD
BRANCH  19  22
ATOM     22  C   UNL     1       8.680  12.179  10.629  0.00  0.00    +0.180 C 
BRANCH  22   5
ATOM      5  N   UNL     1       8.024  13.177   9.796  0.00  0.00    -0.300 NA
ATOM     28  C   UNL     1       8.826  14.401   9.727  0.00  0.00    +0.105 C 
ATOM     29  C   UNL     1       6.685  13.478  10.306  0.00  0.00    +0.105 C 
ENDBRANCH  22   5
ENDBRANCH  19  22
ENDBRANCH  13   2
ENDBRANCH   7  13
BRANCH   9  14
ATOM     14  C   UNL     1      10.842   5.687   5.977  0.00  0.00    +0.082 C 
BRANCH  14  18
ATOM      3  N   UNL     1      11.944   6.076   3.765  0.00  0.00    -0.342 N 
ATOM      4  N   UNL     1      10.254   4.632   3.767  0.00  0.00    -0.232 NA
ATOM     18  C   UNL     1      10.984   5.441   4.502  0.00  0.00    +0.109 A 
ATOM     20  C   UNL     1      11.825   5.650   2.467  0.00  0.00    +0.066 A 
ATOM     21  C   UNL     1      10.763   4.749   2.495  0.00  0.00    +0.089 A 
ATOM     23  C   UNL     1      12.533   5.965   1.306  0.00  0.00    +0.031 A 
ATOM     24  C   UNL     1      10.372   4.116   1.302  0.00  0.00    +0.030 A 
ATOM     25  C   UNL     1      12.130   5.325   0.130  0.00  0.00    -0.048 A 
ATOM     26  C   UNL     1      11.069   4.418   0.125  0.00  0.00    +0.005 A 
ATOM     27  C   UNL     1      12.850   5.620  -1.145  0.00  0.00    +0.044 C 
ATOM     31  H   UNL     1      12.622   6.741   4.112  0.00  0.00    +0.167 HD
ENDBRANCH  14  18
ENDBRANCH   9  14
TORSDOF 7
ENDMDL
MODEL 9
REMARK VINA RESULT:      -6.1     26.897     29.595
REMARK  Name = 71693044
REMARK  13 active torsions:
REMARK  status: ('A' for Active; 'I' for Inactive)
REMARK    1  A    between atoms: N_2  and  C_13
REMARK    2  A    between atoms: N_5  and  C_22
REMARK    3  A    between atoms: N_5  and  C_28
REMARK    4  A    between atoms: N_5  and  C_29
REMARK    5  A    between atoms: C_6  and  C_10
REMARK    6  A    between atoms: C_7  and  C_13
REMARK    7  A    between atoms: C_9  and  C_14
REMARK    8  A    between atoms: C_10  and  C_15
REMARK    9  A    between atoms: C_10  and  C_16
REMARK   10  A    between atoms: C_11  and  C_17
REMARK   11  A    between atoms: C_14  and  C_18
REMARK   12  A    between atoms: C_19  and  C_22
REMARK   13  A    between atoms: C_25  and  C_27
REMARK                            x       y       z     vdW  Elec       q    Type
REMARK                         _______ _______ _______ _____ _____    ______ ____
ROOT
ATOM      6  C   UNL     1      -5.844 -10.170  10.254  0.00  0.00    +0.000 C 
ATOM      7  C   UNL     1      -5.070  -9.372   9.176  0.00  0.00    +0.032 C 
ATOM      8  C   UNL     1      -5.389  -9.753  11.660  0.00  0.00    +0.012 C 
ATOM      9  C   UNL     1      -3.880  -9.980  11.875  0.00  0.00    +0.022 C 
ATOM     11  C   UNL     1      -3.061  -9.453  10.714  0.00  0.00    -0.073 C 
ATOM     12  C   UNL     1      -3.612  -9.175   9.519  0.00  0.00    -0.022 C 
ATOM     17  C   UNL     1      -1.600  -9.211  10.971  0.00  0.00    +0.039 C 
ENDROOT
BRANCH   6  10
ATOM     10  C   UNL     1      -7.359  -9.981  10.123  0.00  0.00    -0.013 C 
ATOM     15  C   UNL     1      -8.019 -11.277   9.659  0.00  0.00    +0.007 C 
ATOM     16  C   UNL     1      -7.954  -9.515  11.447  0.00  0.00    +0.007 C 
ENDBRANCH   6  10
BRANCH   7  13
ATOM     13  C   UNL     1      -5.184 -10.043   7.802  0.00  0.00    +0.112 C 
BRANCH  13   2
ATOM      1  O   UNL     1      -7.072 -10.762   5.730  0.00  0.00    -0.274 OA
ATOM      2  N   UNL     1      -5.812  -9.169   6.861  0.00  0.00    -0.314 N 
ATOM     19  C   UNL     1      -6.717  -9.595   5.888  0.00  0.00    +0.227 C 
ATOM     30  H   UNL     1      -5.633  -8.172   6.948  0.00  0.00    +0.149 HD
BRANCH  19  22
ATOM     22  C   UNL     1      -7.201  -8.459   5.010  0.00  0.00    +0.180 C 
BRANCH  22   5
ATOM      5  N   UNL     1      -8.581  -8.151   5.360  0.00  0.00    -0.300 NA
ATOM     28  C   UNL     1      -9.341  -7.759   4.171  0.00  0.00    +0.105 C 
ATOM     29  C   UNL     1      -8.635  -7.092   6.369  0.00  0.00    +0.105 C 
ENDBRANCH  22   5
ENDBRANCH  19  22
ENDBRANCH  13   2
ENDBRANCH   7  13
BRANCH   9  14
ATOM     14  C   UNL     1      -3.576 -11.459  12.136  0.00  0.00    +0.082 C 
BRANCH  14  18
ATOM      3  N   UNL     1      -3.612 -11.012  14.597  0.00  0.00    -0.342 N 
ATOM      4  N   UNL     1      -4.462 -12.962  13.952  0.00  0.00    -0.232 NA
ATOM     18  C   UNL     1      -3.897 -11.845  13.551  0.00  0.00    +0.109 A 
ATOM     20  C   UNL     1      -4.018 -11.634  15.749  0.00  0.00    +0.066 A 
ATOM     21  C   UNL     1      -4.545 -12.848  15.320  0.00  0.00    +0.089 A 
ATOM     23  C   UNL     1      -3.972 -11.249  17.090  0.00  0.00    +0.031 A 
ATOM     24  C   UNL     1      -5.062 -13.744  16.272  0.00  0.00    +0.030 A 
ATOM     25  C   UNL     1      -4.490 -12.153  18.022  0.00  0.00    -0.048 A 
ATOM     26  C   UNL     1      -5.025 -13.379  17.623  0.00  0.00    +0.005 A 
ATOM     27  C   UNL     1      -4.469 -11.798  19.473  0.00  0.00    +0.044 C 
ATOM     31  H   UNL     1      -3.178 -10.100  14.534  0.00  0.00    +0.167 HD
ENDBRANCH  14  18
ENDBRANCH   9  14
TORSDOF 7
ENDMDL
MODEL 10
REMARK VINA RESULT:      -6.1     27.429     31.454
REMARK  Name = 71693044
REMARK  13 active torsions:
REMARK  status: ('A' for Active; 'I' for Inactive)
REMARK    1  A    between atoms: N_2  and  C_13
REMARK    2  A    between atoms: N_5  and  C_22
REMARK    3  A    between atoms: N_5  and  C_28
REMARK    4  A    between atoms: N_5  and  C_29
REMARK    5  A    between atoms: C_6  and  C_10
REMARK    6  A    between atoms: C_7  and  C_13
REMARK    7  A    between atoms: C_9  and  C_14
REMARK    8  A    between atoms: C_10  and  C_15
REMARK    9  A    between atoms: C_10  and  C_16
REMARK   10  A    between atoms: C_11  and  C_17
REMARK   11  A    between atoms: C_14  and  C_18
REMARK   12  A    between atoms: C_19  and  C_22
REMARK   13  A    between atoms: C_25  and  C_27
REMARK                            x       y       z     vdW  Elec       q    Type
REMARK                         _______ _______ _______ _____ _____    ______ ____
ROOT
ATOM      6  C   UNL     1     -10.102  -9.396  17.912  0.00  0.00    +0.000 C 
ATOM      7  C   UNL     1     -10.658 -10.566  18.761  0.00  0.00    +0.032 C 
ATOM      8  C   UNL     1      -9.300  -9.934  16.718  0.00  0.00    +0.012 C 
ATOM      9  C   UNL     1      -8.119 -10.819  17.161  0.00  0.00    +0.022 C 
ATOM     11  C   UNL     1      -8.537 -11.832  18.208  0.00  0.00    -0.073 C 
ATOM     12  C   UNL     1      -9.681 -11.709  18.903  0.00  0.00    -0.022 C 
ATOM     17  C   UNL     1      -7.629 -13.014  18.405  0.00  0.00    +0.039 C 
ENDROOT
BRANCH   6  10
ATOM     10  C   UNL     1     -11.220  -8.475  17.412  0.00  0.00    -0.013 C 
ATOM     15  C   UNL     1     -10.631  -7.248  16.723  0.00  0.00    +0.007 C 
ATOM     16  C   UNL     1     -12.151  -9.231  16.470  0.00  0.00    +0.007 C 
ENDBRANCH   6  10
BRANCH   7  13
ATOM     13  C   UNL     1     -11.087 -10.085  20.153  0.00  0.00    +0.112 C 
BRANCH  13   2
ATOM      1  O   UNL     1     -13.899  -9.938  20.815  0.00  0.00    -0.274 OA
ATOM      2  N   UNL     1     -11.874 -11.079  20.812  0.00  0.00    -0.314 N 
ATOM     19  C   UNL     1     -13.232 -10.932  21.097  0.00  0.00    +0.227 C 
ATOM     30  H   UNL     1     -11.429 -11.966  21.031  0.00  0.00    +0.149 HD
BRANCH  19  22
ATOM     22  C   UNL     1     -13.804 -12.130  21.828  0.00  0.00    +0.180 C 
BRANCH  22   5
ATOM      5  N   UNL     1     -14.271 -13.099  20.846  0.00  0.00    -0.300 NA
ATOM     28  C   UNL     1     -15.734 -13.181  20.858  0.00  0.00    +0.105 C 
ATOM     29  C   UNL     1     -13.688 -14.417  21.101  0.00  0.00    +0.105 C 
ENDBRANCH  22   5
ENDBRANCH  19  22
ENDBRANCH  13   2
ENDBRANCH   7  13
BRANCH   9  14
ATOM     14  C   UNL     1      -6.946  -9.966  17.659  0.00  0.00    +0.082 C 
BRANCH  14  18
ATOM      3  N   UNL     1      -5.759 -10.281  15.480  0.00  0.00    -0.342 N 
ATOM      4  N   UNL     1      -4.486 -10.363  17.300  0.00  0.00    -0.232 NA
ATOM     18  C   UNL     1      -5.708 -10.206  16.844  0.00  0.00    +0.109 A 
ATOM     20  C   UNL     1      -4.484 -10.503  15.026  0.00  0.00    +0.066 A 
ATOM     21  C   UNL     1      -3.708 -10.551  16.181  0.00  0.00    +0.089 A 
ATOM     23  C   UNL     1      -3.959 -10.662  13.743  0.00  0.00    +0.031 A 
ATOM     24  C   UNL     1      -2.324 -10.768  16.067  0.00  0.00    +0.030 A 
ATOM     25  C   UNL     1      -2.580 -10.877  13.649  0.00  0.00    -0.048 A 
ATOM     26  C   UNL     1      -1.776 -10.931  14.789  0.00  0.00    +0.005 A 
ATOM     27  C   UNL     1      -1.959 -11.054  12.302  0.00  0.00    +0.044 C 
ATOM     31  H   UNL     1      -6.586 -10.189  14.907  0.00  0.00    +0.167 HD
ENDBRANCH  14  18
ENDBRANCH   9  14
TORSDOF 7
ENDMDL
