MODEL 1
REMARK VINA RESULT:      -7.2      0.000      0.000
REMARK  Name = 7049369
REMARK  11 active torsions:
REMARK  status: ('A' for Active; 'I' for Inactive)
REMARK    1  A    between atoms: O_2  and  C_11
REMARK    2  A    between atoms: O_3  and  C_12
REMARK    3  A    between atoms: N_7  and  C_13
REMARK    4  A    between atoms: N_8  and  C_17
REMARK    5  A    between atoms: N_9  and  C_25
REMARK    6  A    between atoms: C_15  and  C_18
REMARK    7  A    between atoms: C_17  and  C_19
REMARK    8  A    between atoms: C_17  and  C_24
REMARK    9  A    between atoms: C_19  and  C_20
REMARK   10  A    between atoms: C_20  and  C_21
REMARK   11  A    between atoms: C_20  and  C_22
REMARK                            x       y       z     vdW  Elec       q    Type
REMARK                         _______ _______ _______ _____ _____    ______ ____
ROOT
ATOM     11  C   UNL     1      20.755   7.261  21.330  0.00  0.00    +0.167 C 
ATOM     12  C   UNL     1      19.531   8.013  21.864  0.00  0.00    +0.149 C 
ATOM     13  C   UNL     1      20.417   5.797  20.992  0.00  0.00    +0.129 C 
ATOM     14  C   UNL     1      18.343   7.951  20.889  0.00  0.00    +0.074 C 
ATOM     15  C   UNL     1      18.197   6.621  20.209  0.00  0.00    +0.015 C 
ATOM     16  C   UNL     1      19.114   5.642  20.255  0.00  0.00    +0.006 C 
ENDROOT
BRANCH  13   7
ATOM      5  O   UNL     1      23.128   5.375  21.817  0.00  0.00    -0.252 OA
ATOM      7  N   UNL     1      21.465   5.172  20.223  0.00  0.00    -0.290 N 
ATOM      9  N   UNL     1      23.562   4.370  19.741  0.00  0.00    -0.268 N 
ATOM     23  C   UNL     1      22.770   5.003  20.702  0.00  0.00    +0.304 C 
ATOM     31  H   UNL     1      21.263   4.885  19.270  0.00  0.00    +0.151 HD
ATOM     35  H   UNL     1      23.112   4.123  18.863  0.00  0.00    +0.156 HD
BRANCH   9  25
ATOM      1 BR   UNL     1      24.109   1.707  21.358  0.00  0.00    -0.048 Br
ATOM     25  C   UNL     1      24.930   4.020  19.837  0.00  0.00    +0.049 A 
ATOM     26  C   UNL     1      25.347   2.875  20.516  0.00  0.00    +0.039 A 
ATOM     27  C   UNL     1      25.870   4.853  19.232  0.00  0.00    +0.024 A 
ATOM     28  C   UNL     1      26.704   2.563  20.589  0.00  0.00    +0.017 A 
ATOM     29  C   UNL     1      27.228   4.542  19.306  0.00  0.00    +0.002 A 
ATOM     30  C   UNL     1      27.645   3.396  19.984  0.00  0.00    +0.001 A 
ENDBRANCH   9  25
ENDBRANCH  13   7
BRANCH  15  18
ATOM      4  O   UNL     1      16.924   5.474  18.613  0.00  0.00    -0.271 OA
ATOM      8  N   UNL     1      15.924   7.195  19.830  0.00  0.00    -0.300 N 
ATOM     18  C   UNL     1      16.963   6.357  19.463  0.00  0.00    +0.241 C 
ATOM     32  H   UNL     1      16.058   7.846  20.599  0.00  0.00    +0.150 HD
BRANCH   8  17
ATOM     17  C   UNL     1      14.616   7.128  19.233  0.00  0.00    +0.159 C 
BRANCH  17  24
ATOM      6  O   UNL     1      13.759   7.459  21.484  0.00  0.00    -0.274 OA
ATOM     10  N   UNL     1      12.504   6.233  20.002  0.00  0.00    -0.328 N 
ATOM     24  C   UNL     1      13.616   6.961  20.370  0.00  0.00    +0.231 C 
ATOM     36  H   UNL     1      11.753   6.060  20.662  0.00  0.00    +0.145 HD
ATOM     37  H   UNL     1      12.388   5.847  19.071  0.00  0.00    +0.145 HD
ENDBRANCH  17  24
BRANCH  17  19
ATOM     19  C   UNL     1      14.284   8.381  18.414  0.00  0.00    +0.034 C 
BRANCH  19  20
ATOM     20  C   UNL     1      13.419   8.124  17.162  0.00  0.00    -0.015 C 
ATOM     21  C   UNL     1      14.015   8.866  15.962  0.00  0.00    +0.007 C 
ATOM     22  C   UNL     1      11.965   8.554  17.362  0.00  0.00    +0.007 C 
ENDBRANCH  19  20
ENDBRANCH  17  19
ENDBRANCH   8  17
ENDBRANCH  15  18
BRANCH  11   2
ATOM      2  O   UNL     1      21.227   7.928  20.156  0.00  0.00    -0.387 OA
ATOM     33  H   UNL     1      21.504   7.244  19.523  0.00  0.00    +0.210 HD
ENDBRANCH  11   2
BRANCH  12   3
ATOM      3  O   UNL     1      19.148   7.488  23.134  0.00  0.00    -0.389 OA
ATOM     34  H   UNL     1      19.579   6.622  23.237  0.00  0.00    +0.210 HD
ENDBRANCH  12   3
TORSDOF 9
ENDMDL
MODEL 2
REMARK VINA RESULT:      -7.0     33.515     36.642
REMARK  Name = 7049369
REMARK  11 active torsions:
REMARK  status: ('A' for Active; 'I' for Inactive)
REMARK    1  A    between atoms: O_2  and  C_11
REMARK    2  A    between atoms: O_3  and  C_12
REMARK    3  A    between atoms: N_7  and  C_13
REMARK    4  A    between atoms: N_8  and  C_17
REMARK    5  A    between atoms: N_9  and  C_25
REMARK    6  A    between atoms: C_15  and  C_18
REMARK    7  A    between atoms: C_17  and  C_19
REMARK    8  A    between atoms: C_17  and  C_24
REMARK    9  A    between atoms: C_19  and  C_20
REMARK   10  A    between atoms: C_20  and  C_21
REMARK   11  A    between atoms: C_20  and  C_22
REMARK                            x       y       z     vdW  Elec       q    Type
REMARK                         _______ _______ _______ _____ _____    ______ ____
ROOT
ATOM     11  C   UNL     1     -17.525   1.189  25.374  0.00  0.00    +0.167 C 
ATOM     12  C   UNL     1     -18.199   0.828  26.702  0.00  0.00    +0.149 C 
ATOM     13  C   UNL     1     -16.900   2.597  25.421  0.00  0.00    +0.129 C 
ATOM     14  C   UNL     1     -17.233   0.943  27.893  0.00  0.00    +0.074 C 
ATOM     15  C   UNL     1     -16.300   2.115  27.794  0.00  0.00    +0.015 C 
ATOM     16  C   UNL     1     -16.148   2.871  26.695  0.00  0.00    +0.006 C 
ENDROOT
BRANCH  13   7
ATOM      5  O   UNL     1     -16.161   5.134  24.316  0.00  0.00    -0.252 OA
ATOM      7  N   UNL     1     -16.021   2.827  24.301  0.00  0.00    -0.290 N 
ATOM      9  N   UNL     1     -14.838   4.016  22.733  0.00  0.00    -0.268 N 
ATOM     23  C   UNL     1     -15.709   4.104  23.821  0.00  0.00    +0.304 C 
ATOM     31  H   UNL     1     -15.649   2.023  23.803  0.00  0.00    +0.151 HD
ATOM     35  H   UNL     1     -14.555   3.082  22.445  0.00  0.00    +0.156 HD
BRANCH   9  25
ATOM      1 BR   UNL     1     -16.930   5.500  20.884  0.00  0.00    -0.048 Br
ATOM     25  C   UNL     1     -14.289   5.075  21.971  0.00  0.00    +0.049 A 
ATOM     26  C   UNL     1     -15.074   5.834  21.103  0.00  0.00    +0.039 A 
ATOM     27  C   UNL     1     -12.929   5.351  22.104  0.00  0.00    +0.024 A 
ATOM     28  C   UNL     1     -14.499   6.870  20.369  0.00  0.00    +0.017 A 
ATOM     29  C   UNL     1     -12.353   6.388  21.370  0.00  0.00    +0.002 A 
ATOM     30  C   UNL     1     -13.138   7.148  20.502  0.00  0.00    +0.001 A 
ENDBRANCH   9  25
ENDBRANCH  13   7
BRANCH  15  18
ATOM      4  O   UNL     1     -14.572   1.783  29.339  0.00  0.00    -0.271 OA
ATOM      8  N   UNL     1     -15.969   3.635  29.588  0.00  0.00    -0.300 N 
ATOM     18  C   UNL     1     -15.516   2.478  28.979  0.00  0.00    +0.241 C 
ATOM     32  H   UNL     1     -16.721   4.164  29.155  0.00  0.00    +0.150 HD
BRANCH   8  17
ATOM     17  C   UNL     1     -15.360   4.187  30.770  0.00  0.00    +0.159 C 
BRANCH  17  24
ATOM      6  O   UNL     1     -16.867   6.046  30.340  0.00  0.00    -0.274 OA
ATOM     10  N   UNL     1     -15.090   6.379  31.757  0.00  0.00    -0.328 N 
ATOM     24  C   UNL     1     -15.860   5.620  30.901  0.00  0.00    +0.231 C 
ATOM     36  H   UNL     1     -15.323   7.349  31.945  0.00  0.00    +0.145 HD
ATOM     37  H   UNL     1     -14.274   6.007  32.232  0.00  0.00    +0.145 HD
ENDBRANCH  17  24
BRANCH  17  19
ATOM     19  C   UNL     1     -15.705   3.387  32.031  0.00  0.00    +0.034 C 
BRANCH  19  20
ATOM     20  C   UNL     1     -14.505   3.081  32.952  0.00  0.00    -0.015 C 
ATOM     21  C   UNL     1     -13.200   3.238  32.167  0.00  0.00    +0.007 C 
ATOM     22  C   UNL     1     -14.578   1.678  33.556  0.00  0.00    +0.007 C 
ENDBRANCH  19  20
ENDBRANCH  17  19
ENDBRANCH   8  17
ENDBRANCH  15  18
BRANCH  11   2
ATOM      2  O   UNL     1     -16.508   0.222  25.098  0.00  0.00    -0.387 OA
ATOM     33  H   UNL     1     -15.691   0.528  25.526  0.00  0.00    +0.210 HD
ENDBRANCH  11   2
BRANCH  12   3
ATOM      3  O   UNL     1     -19.338   1.660  26.916  0.00  0.00    -0.389 OA
ATOM     34  H   UNL     1     -19.655   1.498  27.821  0.00  0.00    +0.210 HD
ENDBRANCH  12   3
TORSDOF 9
ENDMDL
MODEL 3
REMARK VINA RESULT:      -6.8     34.071     36.678
REMARK  Name = 7049369
REMARK  11 active torsions:
REMARK  status: ('A' for Active; 'I' for Inactive)
REMARK    1  A    between atoms: O_2  and  C_11
REMARK    2  A    between atoms: O_3  and  C_12
REMARK    3  A    between atoms: N_7  and  C_13
REMARK    4  A    between atoms: N_8  and  C_17
REMARK    5  A    between atoms: N_9  and  C_25
REMARK    6  A    between atoms: C_15  and  C_18
REMARK    7  A    between atoms: C_17  and  C_19
REMARK    8  A    between atoms: C_17  and  C_24
REMARK    9  A    between atoms: C_19  and  C_20
REMARK   10  A    between atoms: C_20  and  C_21
REMARK   11  A    between atoms: C_20  and  C_22
REMARK                            x       y       z     vdW  Elec       q    Type
REMARK                         _______ _______ _______ _____ _____    ______ ____
ROOT
ATOM     11  C   UNL     1     -17.122   2.849  24.444  0.00  0.00    +0.167 C 
ATOM     12  C   UNL     1     -18.032   1.803  25.097  0.00  0.00    +0.149 C 
ATOM     13  C   UNL     1     -16.909   4.066  25.364  0.00  0.00    +0.129 C 
ATOM     14  C   UNL     1     -17.503   1.349  26.468  0.00  0.00    +0.074 C 
ATOM     15  C   UNL     1     -16.905   2.464  27.276  0.00  0.00    +0.015 C 
ATOM     16  C   UNL     1     -16.642   3.690  26.796  0.00  0.00    +0.006 C 
ENDROOT
BRANCH  13   7
ATOM      5  O   UNL     1     -16.879   5.621  22.958  0.00  0.00    -0.252 OA
ATOM      7  N   UNL     1     -15.836   4.908  24.895  0.00  0.00    -0.290 N 
ATOM      9  N   UNL     1     -14.719   6.358  23.508  0.00  0.00    -0.268 N 
ATOM     23  C   UNL     1     -15.901   5.638  23.702  0.00  0.00    +0.304 C 
ATOM     31  H   UNL     1     -14.971   4.934  25.427  0.00  0.00    +0.151 HD
ATOM     35  H   UNL     1     -14.001   6.265  24.222  0.00  0.00    +0.156 HD
BRANCH   9  25
ATOM      1 BR   UNL     1     -15.791   9.316  23.829  0.00  0.00    -0.048 Br
ATOM     25  C   UNL     1     -14.391   7.213  22.430  0.00  0.00    +0.049 A 
ATOM     26  C   UNL     1     -14.786   8.551  22.411  0.00  0.00    +0.039 A 
ATOM     27  C   UNL     1     -13.654   6.689  21.369  0.00  0.00    +0.024 A 
ATOM     28  C   UNL     1     -14.444   9.364  21.332  0.00  0.00    +0.017 A 
ATOM     29  C   UNL     1     -13.311   7.502  20.288  0.00  0.00    +0.002 A 
ATOM     30  C   UNL     1     -13.706   8.840  20.270  0.00  0.00    +0.001 A 
ENDBRANCH   9  25
ENDBRANCH  13   7
BRANCH  15  18
ATOM      4  O   UNL     1     -17.304   2.698  29.571  0.00  0.00    -0.271 OA
ATOM      8  N   UNL     1     -15.496   1.404  28.867  0.00  0.00    -0.300 N 
ATOM     18  C   UNL     1     -16.605   2.212  28.689  0.00  0.00    +0.241 C 
ATOM     32  H   UNL     1     -15.037   1.003  28.052  0.00  0.00    +0.150 HD
BRANCH   8  17
ATOM     17  C   UNL     1     -15.007   1.019  30.164  0.00  0.00    +0.159 C 
BRANCH  17  24
ATOM      6  O   UNL     1     -13.895  -0.995  29.378  0.00  0.00    -0.274 OA
ATOM     10  N   UNL     1     -15.493  -1.191  31.016  0.00  0.00    -0.328 N 
ATOM     24  C   UNL     1     -14.734  -0.478  30.113  0.00  0.00    +0.231 C 
ATOM     36  H   UNL     1     -15.399  -2.199  31.094  0.00  0.00    +0.145 HD
ATOM     37  H   UNL     1     -16.166  -0.749  31.633  0.00  0.00    +0.145 HD
ENDBRANCH  17  24
BRANCH  17  19
ATOM     19  C   UNL     1     -13.732   1.778  30.554  0.00  0.00    +0.034 C 
BRANCH  19  20
ATOM     20  C   UNL     1     -13.870   2.675  31.802  0.00  0.00    -0.015 C 
ATOM     21  C   UNL     1     -14.581   1.902  32.917  0.00  0.00    +0.007 C 
ATOM     22  C   UNL     1     -14.631   3.969  31.508  0.00  0.00    +0.007 C 
ENDBRANCH  19  20
ENDBRANCH  17  19
ENDBRANCH   8  17
ENDBRANCH  15  18
BRANCH  11   2
ATOM      2  O   UNL     1     -15.860   2.242  24.153  0.00  0.00    -0.387 OA
ATOM     33  H   UNL     1     -15.175   2.761  24.606  0.00  0.00    +0.210 HD
ENDBRANCH  11   2
BRANCH  12   3
ATOM      3  O   UNL     1     -19.355   2.318  25.230  0.00  0.00    -0.389 OA
ATOM     34  H   UNL     1     -19.314   3.085  25.827  0.00  0.00    +0.210 HD
ENDBRANCH  12   3
TORSDOF 9
ENDMDL
MODEL 4
REMARK VINA RESULT:      -6.8     15.793     18.151
REMARK  Name = 7049369
REMARK  11 active torsions:
REMARK  status: ('A' for Active; 'I' for Inactive)
REMARK    1  A    between atoms: O_2  and  C_11
REMARK    2  A    between atoms: O_3  and  C_12
REMARK    3  A    between atoms: N_7  and  C_13
REMARK    4  A    between atoms: N_8  and  C_17
REMARK    5  A    between atoms: N_9  and  C_25
REMARK    6  A    between atoms: C_15  and  C_18
REMARK    7  A    between atoms: C_17  and  C_19
REMARK    8  A    between atoms: C_17  and  C_24
REMARK    9  A    between atoms: C_19  and  C_20
REMARK   10  A    between atoms: C_20  and  C_21
REMARK   11  A    between atoms: C_20  and  C_22
REMARK                            x       y       z     vdW  Elec       q    Type
REMARK                         _______ _______ _______ _____ _____    ______ ____
ROOT
ATOM     11  C   UNL     1      15.049   4.219   1.218  0.00  0.00    +0.167 C 
ATOM     12  C   UNL     1      13.989   3.586   0.310  0.00  0.00    +0.149 C 
ATOM     13  C   UNL     1      14.530   5.511   1.877  0.00  0.00    +0.129 C 
ATOM     14  C   UNL     1      12.673   3.311   1.058  0.00  0.00    +0.074 C 
ATOM     15  C   UNL     1      12.308   4.389   2.037  0.00  0.00    +0.015 C 
ATOM     16  C   UNL     1      13.127   5.387   2.406  0.00  0.00    +0.006 C 
ENDROOT
BRANCH  13   7
ATOM      5  O   UNL     1      15.073   8.217   2.643  0.00  0.00    -0.252 OA
ATOM      7  N   UNL     1      15.395   5.948   2.946  0.00  0.00    -0.290 N 
ATOM      9  N   UNL     1      16.489   7.414   4.334  0.00  0.00    -0.268 N 
ATOM     23  C   UNL     1      15.607   7.296   3.257  0.00  0.00    +0.304 C 
ATOM     31  H   UNL     1      15.915   5.248   3.467  0.00  0.00    +0.151 HD
ATOM     35  H   UNL     1      16.844   6.549   4.734  0.00  0.00    +0.156 HD
BRANCH   9  25
ATOM      1 BR   UNL     1      19.566   7.984   3.877  0.00  0.00    -0.048 Br
ATOM     25  C   UNL     1      16.956   8.599   4.948  0.00  0.00    +0.049 A 
ATOM     26  C   UNL     1      18.288   9.000   4.847  0.00  0.00    +0.039 A 
ATOM     27  C   UNL     1      16.048   9.374   5.669  0.00  0.00    +0.024 A 
ATOM     28  C   UNL     1      18.712  10.175   5.465  0.00  0.00    +0.017 A 
ATOM     29  C   UNL     1      16.472  10.550   6.289  0.00  0.00    +0.002 A 
ATOM     30  C   UNL     1      17.804  10.951   6.187  0.00  0.00    +0.001 A 
ENDBRANCH   9  25
ENDBRANCH  13   7
BRANCH  15  18
ATOM      4  O   UNL     1      10.011   3.940   1.971  0.00  0.00    -0.271 OA
ATOM      8  N   UNL     1      10.922   4.875   3.904  0.00  0.00    -0.300 N 
ATOM     18  C   UNL     1      10.961   4.370   2.616  0.00  0.00    +0.241 C 
ATOM     32  H   UNL     1      11.792   5.139   4.360  0.00  0.00    +0.150 HD
BRANCH   8  17
ATOM     17  C   UNL     1       9.711   4.961   4.676  0.00  0.00    +0.159 C 
BRANCH  17  24
ATOM      6  O   UNL     1      10.386   5.674   6.900  0.00  0.00    -0.274 OA
ATOM     10  N   UNL     1      10.037   3.435   6.524  0.00  0.00    -0.328 N 
ATOM     24  C   UNL     1      10.096   4.756   6.135  0.00  0.00    +0.231 C 
ATOM     36  H   UNL     1      10.256   3.162   7.477  0.00  0.00    +0.145 HD
ATOM     37  H   UNL     1       9.774   2.690   5.887  0.00  0.00    +0.145 HD
ENDBRANCH  17  24
BRANCH  17  19
ATOM     19  C   UNL     1       9.001   6.308   4.498  0.00  0.00    +0.034 C 
BRANCH  19  20
ATOM     20  C   UNL     1       9.857   7.408   3.836  0.00  0.00    -0.015 C 
ATOM     21  C   UNL     1       9.945   8.622   4.765  0.00  0.00    +0.007 C 
ATOM     22  C   UNL     1       9.303   7.838   2.477  0.00  0.00    +0.007 C 
ENDBRANCH  19  20
ENDBRANCH  17  19
ENDBRANCH   8  17
ENDBRANCH  15  18
BRANCH  11   2
ATOM      2  O   UNL     1      15.409   3.275   2.230  0.00  0.00    -0.387 OA
ATOM     33  H   UNL     1      15.139   3.648   3.086  0.00  0.00    +0.210 HD
ENDBRANCH  11   2
BRANCH  12   3
ATOM      3  O   UNL     1      13.743   4.425  -0.817  0.00  0.00    -0.389 OA
ATOM     34  H   UNL     1      13.246   3.903  -1.470  0.00  0.00    +0.210 HD
ENDBRANCH  12   3
TORSDOF 9
ENDMDL
MODEL 5
REMARK VINA RESULT:      -6.8     28.744     32.841
REMARK  Name = 7049369
REMARK  11 active torsions:
REMARK  status: ('A' for Active; 'I' for Inactive)
REMARK    1  A    between atoms: O_2  and  C_11
REMARK    2  A    between atoms: O_3  and  C_12
REMARK    3  A    between atoms: N_7  and  C_13
REMARK    4  A    between atoms: N_8  and  C_17
REMARK    5  A    between atoms: N_9  and  C_25
REMARK    6  A    between atoms: C_15  and  C_18
REMARK    7  A    between atoms: C_17  and  C_19
REMARK    8  A    between atoms: C_17  and  C_24
REMARK    9  A    between atoms: C_19  and  C_20
REMARK   10  A    between atoms: C_20  and  C_21
REMARK   11  A    between atoms: C_20  and  C_22
REMARK                            x       y       z     vdW  Elec       q    Type
REMARK                         _______ _______ _______ _____ _____    ______ ____
ROOT
ATOM     11  C   UNL     1      -7.963 -10.622  18.433  0.00  0.00    +0.167 C 
ATOM     12  C   UNL     1      -6.719 -11.003  19.243  0.00  0.00    +0.149 C 
ATOM     13  C   UNL     1      -7.656  -9.504  17.418  0.00  0.00    +0.129 C 
ATOM     14  C   UNL     1      -5.542 -11.412  18.341  0.00  0.00    +0.074 C 
ATOM     15  C   UNL     1      -5.429 -10.581  17.096  0.00  0.00    +0.015 C 
ATOM     16  C   UNL     1      -6.364  -9.714  16.675  0.00  0.00    +0.006 C 
ENDROOT
BRANCH  13   7
ATOM      5  O   UNL     1      -9.848  -7.669  17.588  0.00  0.00    -0.252 OA
ATOM      7  N   UNL     1      -8.724  -9.346  16.462  0.00  0.00    -0.290 N 
ATOM      9  N   UNL     1     -10.646  -8.494  15.540  0.00  0.00    -0.268 N 
ATOM     23  C   UNL     1      -9.762  -8.421  16.619  0.00  0.00    +0.304 C 
ATOM     31  H   UNL     1      -8.754  -9.969  15.660  0.00  0.00    +0.151 HD
ATOM     35  H   UNL     1     -10.432  -9.173  14.815  0.00  0.00    +0.156 HD
BRANCH   9  25
ATOM      1 BR   UNL     1     -13.270  -9.771  16.759  0.00  0.00    -0.048 Br
ATOM     25  C   UNL     1     -11.817  -7.730  15.324  0.00  0.00    +0.049 A 
ATOM     26  C   UNL     1     -13.062  -8.149  15.795  0.00  0.00    +0.039 A 
ATOM     27  C   UNL     1     -11.706  -6.531  14.620  0.00  0.00    +0.024 A 
ATOM     28  C   UNL     1     -14.194  -7.369  15.563  0.00  0.00    +0.017 A 
ATOM     29  C   UNL     1     -12.839  -5.751  14.387  0.00  0.00    +0.002 A 
ATOM     30  C   UNL     1     -14.083  -6.170  14.860  0.00  0.00    +0.001 A 
ENDBRANCH   9  25
ENDBRANCH  13   7
BRANCH  15  18
ATOM      4  O   UNL     1      -3.106 -10.714  16.831  0.00  0.00    -0.271 OA
ATOM      8  N   UNL     1      -4.464 -10.789  14.936  0.00  0.00    -0.300 N 
ATOM     18  C   UNL     1      -4.208 -10.701  16.293  0.00  0.00    +0.241 C 
ATOM     32  H   UNL     1      -5.427 -10.837  14.614  0.00  0.00    +0.150 HD
BRANCH   8  17
ATOM     17  C   UNL     1      -3.424 -10.911  13.948  0.00  0.00    +0.159 C 
BRANCH  17  24
ATOM      6  O   UNL     1      -3.685 -13.243  13.311  0.00  0.00    -0.274 OA
ATOM     10  N   UNL     1      -1.833 -12.638  14.528  0.00  0.00    -0.328 N 
ATOM     24  C   UNL     1      -3.031 -12.382  13.895  0.00  0.00    +0.231 C 
ATOM     36  H   UNL     1      -1.449 -13.577  14.554  0.00  0.00    +0.145 HD
ATOM     37  H   UNL     1      -1.292 -11.912  14.987  0.00  0.00    +0.145 HD
ENDBRANCH  17  24
BRANCH  17  19
ATOM     19  C   UNL     1      -3.877 -10.432  12.563  0.00  0.00    +0.034 C 
BRANCH  19  20
ATOM     20  C   UNL     1      -2.768 -10.414  11.491  0.00  0.00    -0.015 C 
ATOM     21  C   UNL     1      -1.458  -9.919  12.111  0.00  0.00    +0.007 C 
ATOM     22  C   UNL     1      -3.132  -9.539  10.291  0.00  0.00    +0.007 C 
ENDBRANCH  19  20
ENDBRANCH  17  19
ENDBRANCH   8  17
ENDBRANCH  15  18
BRANCH  11   2
ATOM      2  O   UNL     1      -8.434 -11.782  17.743  0.00  0.00    -0.387 OA
ATOM     33  H   UNL     1      -8.783 -12.397  18.409  0.00  0.00    +0.210 HD
ENDBRANCH  11   2
BRANCH  12   3
ATOM      3  O   UNL     1      -6.332  -9.922  20.089  0.00  0.00    -0.389 OA
ATOM     34  H   UNL     1      -6.386 -10.233  21.009  0.00  0.00    +0.210 HD
ENDBRANCH  12   3
TORSDOF 9
ENDMDL
MODEL 6
REMARK VINA RESULT:      -6.7     17.989     22.321
REMARK  Name = 7049369
REMARK  11 active torsions:
REMARK  status: ('A' for Active; 'I' for Inactive)
REMARK    1  A    between atoms: O_2  and  C_11
REMARK    2  A    between atoms: O_3  and  C_12
REMARK    3  A    between atoms: N_7  and  C_13
REMARK    4  A    between atoms: N_8  and  C_17
REMARK    5  A    between atoms: N_9  and  C_25
REMARK    6  A    between atoms: C_15  and  C_18
REMARK    7  A    between atoms: C_17  and  C_19
REMARK    8  A    between atoms: C_17  and  C_24
REMARK    9  A    between atoms: C_19  and  C_20
REMARK   10  A    between atoms: C_20  and  C_21
REMARK   11  A    between atoms: C_20  and  C_22
REMARK                            x       y       z     vdW  Elec       q    Type
REMARK                         _______ _______ _______ _____ _____    ______ ____
ROOT
ATOM     11  C   UNL     1      13.223   3.670   1.714  0.00  0.00    +0.167 C 
ATOM     12  C   UNL     1      14.141   3.617   0.488  0.00  0.00    +0.149 C 
ATOM     13  C   UNL     1      12.279   4.886   1.661  0.00  0.00    +0.129 C 
ATOM     14  C   UNL     1      13.348   3.619  -0.830  0.00  0.00    +0.074 C 
ATOM     15  C   UNL     1      12.147   4.519  -0.802  0.00  0.00    +0.015 C 
ATOM     16  C   UNL     1      11.662   5.101   0.306  0.00  0.00    +0.006 C 
ENDROOT
BRANCH  13   7
ATOM      5  O   UNL     1      12.021   6.426   4.063  0.00  0.00    -0.252 OA
ATOM      7  N   UNL     1      11.226   4.785   2.642  0.00  0.00    -0.290 N 
ATOM      9  N   UNL     1      10.044   5.259   4.553  0.00  0.00    -0.268 N 
ATOM     23  C   UNL     1      11.173   5.579   3.794  0.00  0.00    +0.304 C 
ATOM     31  H   UNL     1      10.514   4.069   2.519  0.00  0.00    +0.151 HD
ATOM     35  H   UNL     1       9.436   4.530   4.189  0.00  0.00    +0.156 HD
BRANCH   9  25
ATOM      1 BR   UNL     1       8.247   7.842   4.239  0.00  0.00    -0.048 Br
ATOM     25  C   UNL     1       9.633   5.831   5.780  0.00  0.00    +0.049 A 
ATOM     26  C   UNL     1       8.835   6.975   5.822  0.00  0.00    +0.039 A 
ATOM     27  C   UNL     1      10.045   5.224   6.965  0.00  0.00    +0.024 A 
ATOM     28  C   UNL     1       8.449   7.510   7.050  0.00  0.00    +0.017 A 
ATOM     29  C   UNL     1       9.659   5.760   8.195  0.00  0.00    +0.002 A 
ATOM     30  C   UNL     1       8.861   6.903   8.237  0.00  0.00    +0.001 A 
ENDBRANCH   9  25
ENDBRANCH  13   7
BRANCH  15  18
ATOM      4  O   UNL     1      11.733   5.817  -2.707  0.00  0.00    -0.271 OA
ATOM      8  N   UNL     1      10.544   3.831  -2.414  0.00  0.00    -0.300 N 
ATOM     18  C   UNL     1      11.467   4.803  -2.070  0.00  0.00    +0.241 C 
ATOM     32  H   UNL     1      10.461   2.998  -1.837  0.00  0.00    +0.150 HD
BRANCH   8  17
ATOM     17  C   UNL     1       9.751   3.893  -3.613  0.00  0.00    +0.159 C 
BRANCH  17  24
ATOM      6  O   UNL     1       9.205   1.556  -3.231  0.00  0.00    -0.274 OA
ATOM     10  N   UNL     1       9.446   2.287  -5.395  0.00  0.00    -0.328 N 
ATOM     24  C   UNL     1       9.455   2.458  -4.027  0.00  0.00    +0.231 C 
ATOM     36  H   UNL     1       9.247   1.379  -5.804  0.00  0.00    +0.145 HD
ATOM     37  H   UNL     1       9.631   3.046  -6.041  0.00  0.00    +0.145 HD
ENDBRANCH  17  24
BRANCH  17  19
ATOM     19  C   UNL     1       8.444   4.668  -3.407  0.00  0.00    +0.034 C 
BRANCH  19  20
ATOM     20  C   UNL     1       8.243   5.863  -4.362  0.00  0.00    -0.015 C 
ATOM     21  C   UNL     1       8.033   7.143  -3.548  0.00  0.00    +0.007 C 
ATOM     22  C   UNL     1       7.062   5.658  -5.312  0.00  0.00    +0.007 C 
ENDBRANCH  19  20
ENDBRANCH  17  19
ENDBRANCH   8  17
ENDBRANCH  15  18
BRANCH  11   2
ATOM      2  O   UNL     1      12.453   2.466   1.763  0.00  0.00    -0.387 OA
ATOM     33  H   UNL     1      11.774   2.582   2.448  0.00  0.00    +0.210 HD
ENDBRANCH  11   2
BRANCH  12   3
ATOM      3  O   UNL     1      15.054   4.713   0.510  0.00  0.00    -0.389 OA
ATOM     34  H   UNL     1      14.569   5.506   0.223  0.00  0.00    +0.210 HD
ENDBRANCH  12   3
TORSDOF 9
ENDMDL
MODEL 7
REMARK VINA RESULT:      -6.7     18.232     22.522
REMARK  Name = 7049369
REMARK  11 active torsions:
REMARK  status: ('A' for Active; 'I' for Inactive)
REMARK    1  A    between atoms: O_2  and  C_11
REMARK    2  A    between atoms: O_3  and  C_12
REMARK    3  A    between atoms: N_7  and  C_13
REMARK    4  A    between atoms: N_8  and  C_17
REMARK    5  A    between atoms: N_9  and  C_25
REMARK    6  A    between atoms: C_15  and  C_18
REMARK    7  A    between atoms: C_17  and  C_19
REMARK    8  A    between atoms: C_17  and  C_24
REMARK    9  A    between atoms: C_19  and  C_20
REMARK   10  A    between atoms: C_20  and  C_21
REMARK   11  A    between atoms: C_20  and  C_22
REMARK                            x       y       z     vdW  Elec       q    Type
REMARK                         _______ _______ _______ _____ _____    ______ ____
ROOT
ATOM     11  C   UNL     1      13.066   3.868   1.618  0.00  0.00    +0.167 C 
ATOM     12  C   UNL     1      13.898   3.798   0.333  0.00  0.00    +0.149 C 
ATOM     13  C   UNL     1      11.754   4.646   1.400  0.00  0.00    +0.129 C 
ATOM     14  C   UNL     1      13.107   3.189  -0.837  0.00  0.00    +0.074 C 
ATOM     15  C   UNL     1      11.668   3.618  -0.871  0.00  0.00    +0.015 C 
ATOM     16  C   UNL     1      11.051   4.279   0.121  0.00  0.00    +0.006 C 
ENDROOT
BRANCH  13   7
ATOM      5  O   UNL     1      11.702   6.143   3.842  0.00  0.00    -0.252 OA
ATOM      7  N   UNL     1      10.840   4.468   2.501  0.00  0.00    -0.290 N 
ATOM      9  N   UNL     1       9.879   4.846   4.552  0.00  0.00    -0.268 N 
ATOM     23  C   UNL     1      10.882   5.245   3.665  0.00  0.00    +0.304 C 
ATOM     31  H   UNL     1      10.165   3.709   2.455  0.00  0.00    +0.151 HD
ATOM     35  H   UNL     1       9.277   4.083   4.254  0.00  0.00    +0.156 HD
BRANCH   9  25
ATOM      1 BR   UNL     1       8.287   7.577   4.487  0.00  0.00    -0.048 Br
ATOM     25  C   UNL     1       9.589   5.379   5.831  0.00  0.00    +0.049 A 
ATOM     26  C   UNL     1       8.893   6.578   5.983  0.00  0.00    +0.039 A 
ATOM     27  C   UNL     1      10.018   4.674   6.955  0.00  0.00    +0.024 A 
ATOM     28  C   UNL     1       8.625   7.071   7.259  0.00  0.00    +0.017 A 
ATOM     29  C   UNL     1       9.751   5.168   8.232  0.00  0.00    +0.002 A 
ATOM     30  C   UNL     1       9.054   6.367   8.384  0.00  0.00    +0.001 A 
ENDBRANCH   9  25
ENDBRANCH  13   7
BRANCH  15  18
ATOM      4  O   UNL     1      10.709   2.155  -2.428  0.00  0.00    -0.271 OA
ATOM      8  N   UNL     1      10.412   4.452  -2.705  0.00  0.00    -0.300 N 
ATOM     18  C   UNL     1      10.885   3.316  -2.073  0.00  0.00    +0.241 C 
ATOM     32  H   UNL     1      10.567   5.360  -2.276  0.00  0.00    +0.150 HD
BRANCH   8  17
ATOM     17  C   UNL     1       9.620   4.408  -3.906  0.00  0.00    +0.159 C 
BRANCH  17  24
ATOM      6  O   UNL     1       8.369   6.181  -2.810  0.00  0.00    -0.274 OA
ATOM     10  N   UNL     1       7.408   5.101  -4.595  0.00  0.00    -0.328 N 
ATOM     24  C   UNL     1       8.418   5.316  -3.682  0.00  0.00    +0.231 C 
ATOM     36  H   UNL     1       6.554   5.650  -4.566  0.00  0.00    +0.145 HD
ATOM     37  H   UNL     1       7.472   4.399  -5.324  0.00  0.00    +0.145 HD
ENDBRANCH  17  24
BRANCH  17  19
ATOM     19  C   UNL     1      10.408   4.866  -5.140  0.00  0.00    +0.034 C 
BRANCH  19  20
ATOM     20  C   UNL     1      10.869   3.726  -6.072  0.00  0.00    -0.015 C 
ATOM     21  C   UNL     1       9.841   2.591  -6.046  0.00  0.00    +0.007 C 
ATOM     22  C   UNL     1      12.246   3.182  -5.690  0.00  0.00    +0.007 C 
ENDBRANCH  19  20
ENDBRANCH  17  19
ENDBRANCH   8  17
ENDBRANCH  15  18
BRANCH  11   2
ATOM      2  O   UNL     1      12.769   2.537   2.047  0.00  0.00    -0.387 OA
ATOM     33  H   UNL     1      12.705   2.550   3.016  0.00  0.00    +0.210 HD
ENDBRANCH  11   2
BRANCH  12   3
ATOM      3  O   UNL     1      14.369   5.097  -0.019  0.00  0.00    -0.389 OA
ATOM     34  H   UNL     1      15.336   5.044  -0.116  0.00  0.00    +0.210 HD
ENDBRANCH  12   3
TORSDOF 9
ENDMDL
MODEL 8
REMARK VINA RESULT:      -6.6     30.810     33.521
REMARK  Name = 7049369
REMARK  11 active torsions:
REMARK  status: ('A' for Active; 'I' for Inactive)
REMARK    1  A    between atoms: O_2  and  C_11
REMARK    2  A    between atoms: O_3  and  C_12
REMARK    3  A    between atoms: N_7  and  C_13
REMARK    4  A    between atoms: N_8  and  C_17
REMARK    5  A    between atoms: N_9  and  C_25
REMARK    6  A    between atoms: C_15  and  C_18
REMARK    7  A    between atoms: C_17  and  C_19
REMARK    8  A    between atoms: C_17  and  C_24
REMARK    9  A    between atoms: C_19  and  C_20
REMARK   10  A    between atoms: C_20  and  C_21
REMARK   11  A    between atoms: C_20  and  C_22
REMARK                            x       y       z     vdW  Elec       q    Type
REMARK                         _______ _______ _______ _____ _____    ______ ____
ROOT
ATOM     11  C   UNL     1     -11.448  -7.810  16.729  0.00  0.00    +0.167 C 
ATOM     12  C   UNL     1     -12.938  -7.542  16.491  0.00  0.00    +0.149 C 
ATOM     13  C   UNL     1     -10.788  -8.464  15.501  0.00  0.00    +0.129 C 
ATOM     14  C   UNL     1     -13.179  -6.684  15.237  0.00  0.00    +0.074 C 
ATOM     15  C   UNL     1     -12.262  -7.023  14.097  0.00  0.00    +0.015 C 
ATOM     16  C   UNL     1     -11.192  -7.827  14.199  0.00  0.00    +0.006 C 
ENDROOT
BRANCH  13   7
ATOM      5  O   UNL     1      -9.133 -10.475  16.694  0.00  0.00    -0.252 OA
ATOM      7  N   UNL     1      -9.348  -8.450  15.599  0.00  0.00    -0.290 N 
ATOM      9  N   UNL     1      -7.245  -9.190  16.149  0.00  0.00    -0.268 N 
ATOM     23  C   UNL     1      -8.612  -9.477  16.201  0.00  0.00    +0.304 C 
ATOM     31  H   UNL     1      -8.846  -7.633  15.263  0.00  0.00    +0.151 HD
ATOM     35  H   UNL     1      -6.975  -8.317  15.702  0.00  0.00    +0.156 HD
BRANCH   9  25
ATOM      1 BR   UNL     1      -5.342 -10.348  13.905  0.00  0.00    -0.048 Br
ATOM     25  C   UNL     1      -6.175  -9.971  16.644  0.00  0.00    +0.049 A 
ATOM     26  C   UNL     1      -5.241 -10.558  15.789  0.00  0.00    +0.039 A 
ATOM     27  C   UNL     1      -6.066 -10.149  18.022  0.00  0.00    +0.024 A 
ATOM     28  C   UNL     1      -4.199 -11.321  16.313  0.00  0.00    +0.017 A 
ATOM     29  C   UNL     1      -5.024 -10.914  18.548  0.00  0.00    +0.002 A 
ATOM     30  C   UNL     1      -4.090 -11.500  17.693  0.00  0.00    +0.001 A 
ENDBRANCH   9  25
ENDBRANCH  13   7
BRANCH  15  18
ATOM      4  O   UNL     1     -12.272  -7.074  11.756  0.00  0.00    -0.271 OA
ATOM      8  N   UNL     1     -13.176  -5.222  12.848  0.00  0.00    -0.300 N 
ATOM     18  C   UNL     1     -12.563  -6.460  12.777  0.00  0.00    +0.241 C 
ATOM     32  H   UNL     1     -13.430  -4.845  13.757  0.00  0.00    +0.150 HD
BRANCH   8  17
ATOM     17  C   UNL     1     -13.564  -4.472  11.683  0.00  0.00    +0.159 C 
BRANCH  17  24
ATOM      6  O   UNL     1     -14.770  -2.919  13.112  0.00  0.00    -0.274 OA
ATOM     10  N   UNL     1     -15.760  -3.605  11.156  0.00  0.00    -0.328 N 
ATOM     24  C   UNL     1     -14.744  -3.597  12.088  0.00  0.00    +0.231 C 
ATOM     36  H   UNL     1     -16.600  -3.052  11.297  0.00  0.00    +0.145 HD
ATOM     37  H   UNL     1     -15.714  -4.153  10.303  0.00  0.00    +0.145 HD
ENDBRANCH  17  24
BRANCH  17  19
ATOM     19  C   UNL     1     -12.421  -3.605  11.141  0.00  0.00    +0.034 C 
BRANCH  19  20
ATOM     20  C   UNL     1     -12.227  -3.673   9.612  0.00  0.00    -0.015 C 
ATOM     21  C   UNL     1     -13.042  -4.836   9.039  0.00  0.00    +0.007 C 
ATOM     22  C   UNL     1     -10.758  -3.831   9.218  0.00  0.00    +0.007 C 
ENDBRANCH  19  20
ENDBRANCH  17  19
ENDBRANCH   8  17
ENDBRANCH  15  18
BRANCH  11   2
ATOM      2  O   UNL     1     -10.799  -6.570  17.020  0.00  0.00    -0.387 OA
ATOM     33  H   UNL     1     -10.216  -6.718  17.784  0.00  0.00    +0.210 HD
ENDBRANCH  11   2
BRANCH  12   3
ATOM      3  O   UNL     1     -13.648  -8.774  16.382  0.00  0.00    -0.389 OA
ATOM     34  H   UNL     1     -13.053  -9.484  16.678  0.00  0.00    +0.210 HD
ENDBRANCH  12   3
TORSDOF 9
ENDMDL
MODEL 9
REMARK VINA RESULT:      -6.6     29.681     34.036
REMARK  Name = 7049369
REMARK  11 active torsions:
REMARK  status: ('A' for Active; 'I' for Inactive)
REMARK    1  A    between atoms: O_2  and  C_11
REMARK    2  A    between atoms: O_3  and  C_12
REMARK    3  A    between atoms: N_7  and  C_13
REMARK    4  A    between atoms: N_8  and  C_17
REMARK    5  A    between atoms: N_9  and  C_25
REMARK    6  A    between atoms: C_15  and  C_18
REMARK    7  A    between atoms: C_17  and  C_19
REMARK    8  A    between atoms: C_17  and  C_24
REMARK    9  A    between atoms: C_19  and  C_20
REMARK   10  A    between atoms: C_20  and  C_21
REMARK   11  A    between atoms: C_20  and  C_22
REMARK                            x       y       z     vdW  Elec       q    Type
REMARK                         _______ _______ _______ _____ _____    ______ ____
ROOT
ATOM     11  C   UNL     1     -11.206  -9.823  17.410  0.00  0.00    +0.167 C 
ATOM     12  C   UNL     1     -10.476 -10.500  18.576  0.00  0.00    +0.149 C 
ATOM     13  C   UNL     1     -10.443  -8.582  16.909  0.00  0.00    +0.129 C 
ATOM     14  C   UNL     1      -9.029 -10.874  18.214  0.00  0.00    +0.074 C 
ATOM     15  C   UNL     1      -8.341  -9.844  17.365  0.00  0.00    +0.015 C 
ATOM     16  C   UNL     1      -8.961  -8.807  16.781  0.00  0.00    +0.006 C 
ENDROOT
BRANCH  13   7
ATOM      5  O   UNL     1     -11.936  -6.182  16.442  0.00  0.00    -0.252 OA
ATOM      7  N   UNL     1     -10.955  -8.117  15.643  0.00  0.00    -0.290 N 
ATOM      9  N   UNL     1     -12.042  -6.738  14.164  0.00  0.00    -0.268 N 
ATOM     23  C   UNL     1     -11.678  -6.927  15.499  0.00  0.00    +0.304 C 
ATOM     31  H   UNL     1     -10.831  -8.705  14.823  0.00  0.00    +0.151 HD
ATOM     35  H   UNL     1     -11.749  -7.452  13.501  0.00  0.00    +0.156 HD
BRANCH   9  25
ATOM      1 BR   UNL     1     -15.170  -6.952  14.580  0.00  0.00    -0.048 Br
ATOM     25  C   UNL     1     -12.776  -5.663  13.608  0.00  0.00    +0.049 A 
ATOM     26  C   UNL     1     -14.166  -5.601  13.701  0.00  0.00    +0.039 A 
ATOM     27  C   UNL     1     -12.075  -4.651  12.954  0.00  0.00    +0.024 A 
ATOM     28  C   UNL     1     -14.855  -4.526  13.141  0.00  0.00    +0.017 A 
ATOM     29  C   UNL     1     -12.764  -3.575  12.393  0.00  0.00    +0.002 A 
ATOM     30  C   UNL     1     -14.155  -3.513  12.487  0.00  0.00    +0.001 A 
ENDBRANCH   9  25
ENDBRANCH  13   7
BRANCH  15  18
ATOM      4  O   UNL     1      -6.304  -9.223  16.392  0.00  0.00    -0.271 OA
ATOM      8  N   UNL     1      -6.327 -10.960  17.949  0.00  0.00    -0.300 N 
ATOM     18  C   UNL     1      -6.892  -9.962  17.174  0.00  0.00    +0.241 C 
ATOM     32  H   UNL     1      -6.910 -11.462  18.613  0.00  0.00    +0.150 HD
BRANCH   8  17
ATOM     17  C   UNL     1      -4.921 -11.265  17.931  0.00  0.00    +0.159 C 
BRANCH  17  24
ATOM      6  O   UNL     1      -5.286 -11.572  20.314  0.00  0.00    -0.274 OA
ATOM     10  N   UNL     1      -3.260 -12.191  19.425  0.00  0.00    -0.328 N 
ATOM     24  C   UNL     1      -4.532 -11.665  19.348  0.00  0.00    +0.231 C 
ATOM     36  H   UNL     1      -2.883 -12.511  20.312  0.00  0.00    +0.145 HD
ATOM     37  H   UNL     1      -2.658 -12.283  18.614  0.00  0.00    +0.145 HD
ENDBRANCH  17  24
BRANCH  17  19
ATOM     19  C   UNL     1      -4.582 -12.393  16.949  0.00  0.00    +0.034 C 
BRANCH  19  20
ATOM     20  C   UNL     1      -3.792 -11.949  15.701  0.00  0.00    -0.015 C 
ATOM     21  C   UNL     1      -2.971 -10.699  16.028  0.00  0.00    +0.007 C 
ATOM     22  C   UNL     1      -4.703 -11.668  14.504  0.00  0.00    +0.007 C 
ENDBRANCH  19  20
ENDBRANCH  17  19
ENDBRANCH   8  17
ENDBRANCH  15  18
BRANCH  11   2
ATOM      2  O   UNL     1     -11.341 -10.766  16.343  0.00  0.00    -0.387 OA
ATOM     33  H   UNL     1     -11.065 -10.322  15.524  0.00  0.00    +0.210 HD
ENDBRANCH  11   2
BRANCH  12   3
ATOM      3  O   UNL     1     -10.490  -9.651  19.722  0.00  0.00    -0.389 OA
ATOM     34  H   UNL     1     -11.372  -9.716  20.126  0.00  0.00    +0.210 HD
ENDBRANCH  12   3
TORSDOF 9
ENDMDL
MODEL 10
REMARK VINA RESULT:      -6.5     29.891     32.223
REMARK  Name = 7049369
REMARK  11 active torsions:
REMARK  status: ('A' for Active; 'I' for Inactive)
REMARK    1  A    between atoms: O_2  and  C_11
REMARK    2  A    between atoms: O_3  and  C_12
REMARK    3  A    between atoms: N_7  and  C_13
REMARK    4  A    between atoms: N_8  and  C_17
REMARK    5  A    between atoms: N_9  and  C_25
REMARK    6  A    between atoms: C_15  and  C_18
REMARK    7  A    between atoms: C_17  and  C_19
REMARK    8  A    between atoms: C_17  and  C_24
REMARK    9  A    between atoms: C_19  and  C_20
REMARK   10  A    between atoms: C_20  and  C_21
REMARK   11  A    between atoms: C_20  and  C_22
REMARK                            x       y       z     vdW  Elec       q    Type
REMARK                         _______ _______ _______ _____ _____    ______ ____
ROOT
ATOM     11  C   UNL     1      -4.151 -11.095  16.331  0.00  0.00    +0.167 C 
ATOM     12  C   UNL     1      -4.215 -11.842  17.668  0.00  0.00    +0.149 C 
ATOM     13  C   UNL     1      -5.509 -11.120  15.604  0.00  0.00    +0.129 C 
ATOM     14  C   UNL     1      -5.321 -11.294  18.586  0.00  0.00    +0.074 C 
ATOM     15  C   UNL     1      -6.575 -10.918  17.850  0.00  0.00    +0.015 C 
ATOM     16  C   UNL     1      -6.676 -10.845  16.514  0.00  0.00    +0.006 C 
ENDROOT
BRANCH  13   7
ATOM      5  O   UNL     1      -5.699 -11.755  12.817  0.00  0.00    -0.252 OA
ATOM      7  N   UNL     1      -5.543 -10.184  14.507  0.00  0.00    -0.290 N 
ATOM      9  N   UNL     1      -5.649  -9.459  12.331  0.00  0.00    -0.268 N 
ATOM     23  C   UNL     1      -5.638 -10.578  13.167  0.00  0.00    +0.304 C 
ATOM     31  H   UNL     1      -5.442  -9.194  14.710  0.00  0.00    +0.151 HD
ATOM     35  H   UNL     1      -5.592  -8.548  12.780  0.00  0.00    +0.156 HD
BRANCH   9  25
ATOM      1 BR   UNL     1      -2.867  -9.778  10.860  0.00  0.00    -0.048 Br
ATOM     25  C   UNL     1      -5.733  -9.431  10.919  0.00  0.00    +0.049 A 
ATOM     26  C   UNL     1      -4.600  -9.558  10.116  0.00  0.00    +0.039 A 
ATOM     27  C   UNL     1      -6.988  -9.271  10.333  0.00  0.00    +0.024 A 
ATOM     28  C   UNL     1      -4.722  -9.527   8.727  0.00  0.00    +0.017 A 
ATOM     29  C   UNL     1      -7.111  -9.238   8.944  0.00  0.00    +0.002 A 
ATOM     30  C   UNL     1      -5.977  -9.366   8.140  0.00  0.00    +0.001 A 
ENDBRANCH   9  25
ENDBRANCH  13   7
BRANCH  15  18
ATOM      4  O   UNL     1      -7.773 -10.765  19.856  0.00  0.00    -0.271 OA
ATOM      8  N   UNL     1      -8.845 -10.221  17.857  0.00  0.00    -0.300 N 
ATOM     18  C   UNL     1      -7.778 -10.631  18.637  0.00  0.00    +0.241 C 
ATOM     32  H   UNL     1      -8.706 -10.082  16.859  0.00  0.00    +0.150 HD
BRANCH   8  17
ATOM     17  C   UNL     1     -10.133  -9.886  18.404  0.00  0.00    +0.159 C 
BRANCH  17  24
ATOM      6  O   UNL     1     -11.769  -8.494  17.266  0.00  0.00    -0.274 OA
ATOM     10  N   UNL     1      -9.644  -7.674  17.558  0.00  0.00    -0.328 N 
ATOM     24  C   UNL     1     -10.619  -8.642  17.672  0.00  0.00    +0.231 C 
ATOM     36  H   UNL     1      -9.841  -6.788  17.102  0.00  0.00    +0.145 HD
ATOM     37  H   UNL     1      -8.704  -7.800  17.919  0.00  0.00    +0.145 HD
ENDBRANCH  17  24
BRANCH  17  19
ATOM     19  C   UNL     1     -11.147 -11.025  18.247  0.00  0.00    +0.034 C 
BRANCH  19  20
ATOM     20  C   UNL     1     -11.742 -11.549  19.571  0.00  0.00    -0.015 C 
ATOM     21  C   UNL     1     -12.226 -10.371  20.421  0.00  0.00    +0.007 C 
ATOM     22  C   UNL     1     -10.739 -12.383  20.369  0.00  0.00    +0.007 C 
ENDBRANCH  19  20
ENDBRANCH  17  19
ENDBRANCH   8  17
ENDBRANCH  15  18
BRANCH  11   2
ATOM      2  O   UNL     1      -3.765  -9.741  16.580  0.00  0.00    -0.387 OA
ATOM     33  H   UNL     1      -3.100  -9.500  15.914  0.00  0.00    +0.210 HD
ENDBRANCH  11   2
BRANCH  12   3
ATOM      3  O   UNL     1      -4.414 -13.237  17.442  0.00  0.00    -0.389 OA
ATOM     34  H   UNL     1      -4.831 -13.337  16.569  0.00  0.00    +0.210 HD
ENDBRANCH  12   3
TORSDOF 9
ENDMDL
