MODEL 1
REMARK VINA RESULT:      -8.3      0.000      0.000
REMARK  Name = 51136823
REMARK  5 active torsions:
REMARK  status: ('A' for Active; 'I' for Inactive)
REMARK    1  A    between atoms: N_3  and  C_14
REMARK    2  A    between atoms: C_10  and  C_15
REMARK    3  A    between atoms: C_14  and  C_20
REMARK    4  A    between atoms: C_22  and  C_23
REMARK    5  A    between atoms: C_26  and  C_30
REMARK                            x       y       z     vdW  Elec       q    Type
REMARK                         _______ _______ _______ _____ _____    ______ ____
ROOT
ATOM      1  O   UNL     1      15.362   6.203  18.598  0.00  0.00    -0.336 OA
ATOM      6  N   UNL     1      15.600   7.375  20.492  0.00  0.00    -0.190 NA
ATOM      7  N   UNL     1      16.725   6.155  18.917  0.00  0.00    -0.056 NA
ATOM     15  C   UNL     1      14.773   6.941  19.575  0.00  0.00    +0.245 A 
ATOM     22  C   UNL     1      16.786   6.869  20.045  0.00  0.00    +0.202 A 
ENDROOT
BRANCH  22  23
ATOM      2  O   UNL     1      24.325   1.545  20.759  0.00  0.00    -0.276 OA
ATOM      4  N   UNL     1      21.296   5.577  21.154  0.00  0.00    -0.312 N 
ATOM      5  N   UNL     1      23.469   3.706  20.757  0.00  0.00    -0.299 N 
ATOM      9  N   UNL     1      20.410   7.540  22.123  0.00  0.00    -0.240 NA
ATOM     16  C   UNL     1      22.688   6.019  21.267  0.00  0.00    +0.125 C 
ATOM     17  C   UNL     1      21.038   4.154  20.913  0.00  0.00    +0.125 C 
ATOM     18  C   UNL     1      23.609   5.127  20.433  0.00  0.00    +0.126 C 
ATOM     19  C   UNL     1      22.215   3.304  21.389  0.00  0.00    +0.126 C 
ATOM     21  C   UNL     1      20.243   6.475  21.308  0.00  0.00    +0.122 A 
ATOM     23  C   UNL     1      18.015   7.096  20.751  0.00  0.00    +0.027 A 
ATOM     24  C   UNL     1      19.077   6.210  20.607  0.00  0.00    +0.055 A 
ATOM     26  C   UNL     1      24.442   2.743  20.487  0.00  0.00    +0.213 C 
ATOM     27  C   UNL     1      18.150   8.204  21.581  0.00  0.00    +0.031 A 
ATOM     29  C   UNL     1      19.357   8.379  22.239  0.00  0.00    +0.113 A 
ATOM     30  C   UNL     1      25.704   3.238  19.825  0.00  0.00    +0.109 C 
ENDBRANCH  22  23
BRANCH  15  10
ATOM      3  N   UNL     1      12.808   8.348  20.170  0.00  0.00    -0.286 NA
ATOM     10  C   UNL     1      13.276   7.142  19.458  0.00  0.00    +0.146 C 
ATOM     11  C   UNL     1      12.815   7.343  18.002  0.00  0.00    +0.030 C 
ATOM     12  C   UNL     1      12.046   8.657  18.007  0.00  0.00    +0.017 C 
ATOM     13  C   UNL     1      11.622   8.817  19.453  0.00  0.00    +0.085 C 
BRANCH   3  14
ATOM     14  C   UNL     1      12.538   8.113  21.582  0.00  0.00    +0.140 C 
BRANCH  14  20
ATOM      8  N   UNL     1      11.124   9.583  22.908  0.00  0.00    -0.259 NA
ATOM     20  C   UNL     1      12.335   9.400  22.337  0.00  0.00    +0.055 A 
ATOM     25  C   UNL     1      13.372  10.315  22.408  0.00  0.00    +0.024 A 
ATOM     28  C   UNL     1      13.153  11.494  23.111  0.00  0.00    +0.003 A 
ATOM     31  C   UNL     1      10.948  10.741  23.583  0.00  0.00    +0.111 A 
ATOM     32  C   UNL     1      11.920  11.719  23.713  0.00  0.00    +0.020 A 
ENDBRANCH  14  20
ENDBRANCH   3  14
ENDBRANCH  15  10
TORSDOF 4
ENDMDL
MODEL 2
REMARK VINA RESULT:      -8.0     26.937     31.308
REMARK  Name = 51136823
REMARK  5 active torsions:
REMARK  status: ('A' for Active; 'I' for Inactive)
REMARK    1  A    between atoms: N_3  and  C_14
REMARK    2  A    between atoms: C_10  and  C_15
REMARK    3  A    between atoms: C_14  and  C_20
REMARK    4  A    between atoms: C_22  and  C_23
REMARK    5  A    between atoms: C_26  and  C_30
REMARK                            x       y       z     vdW  Elec       q    Type
REMARK                         _______ _______ _______ _____ _____    ______ ____
ROOT
ATOM      1  O   UNL     1      -4.284 -13.289  15.448  0.00  0.00    -0.336 OA
ATOM      6  N   UNL     1      -4.548 -11.289  16.420  0.00  0.00    -0.190 NA
ATOM      7  N   UNL     1      -5.456 -13.378  16.210  0.00  0.00    -0.056 NA
ATOM     15  C   UNL     1      -3.813 -12.027  15.628  0.00  0.00    +0.245 A 
ATOM     22  C   UNL     1      -5.544 -12.161  16.753  0.00  0.00    +0.202 A 
ENDROOT
BRANCH  22  23
ATOM      2  O   UNL     1     -12.213  -5.834  15.663  0.00  0.00    -0.276 OA
ATOM      4  N   UNL     1      -9.573  -9.668  17.642  0.00  0.00    -0.312 N 
ATOM      5  N   UNL     1     -11.590  -7.846  16.644  0.00  0.00    -0.299 N 
ATOM      9  N   UNL     1      -8.697 -11.050  19.345  0.00  0.00    -0.240 NA
ATOM     16  C   UNL     1     -10.947  -9.729  18.148  0.00  0.00    +0.125 C 
ATOM     17  C   UNL     1      -9.235  -8.614  16.681  0.00  0.00    +0.125 C 
ATOM     18  C   UNL     1     -11.932  -9.192  17.109  0.00  0.00    +0.126 C 
ATOM     19  C   UNL     1     -10.197  -7.436  16.811  0.00  0.00    +0.126 C 
ATOM     21  C   UNL     1      -8.603 -10.562  18.088  0.00  0.00    +0.122 A 
ATOM     23  C   UNL     1      -6.613 -11.783  17.632  0.00  0.00    +0.027 A 
ATOM     24  C   UNL     1      -7.590 -10.893  17.202  0.00  0.00    +0.055 A 
ATOM     26  C   UNL     1     -12.499  -6.968  16.055  0.00  0.00    +0.213 C 
ATOM     27  C   UNL     1      -6.677 -12.307  18.920  0.00  0.00    +0.031 A 
ATOM     29  C   UNL     1      -7.730 -11.912  19.729  0.00  0.00    +0.113 A 
ATOM     30  C   UNL     1     -13.915  -7.471  15.912  0.00  0.00    +0.109 C 
ENDBRANCH  22  23
BRANCH  15  10
ATOM      3  N   UNL     1      -2.749 -10.673  13.831  0.00  0.00    -0.286 NA
ATOM     10  C   UNL     1      -2.535 -11.673  14.896  0.00  0.00    +0.146 C 
ATOM     11  C   UNL     1      -1.476 -11.042  15.819  0.00  0.00    +0.030 C 
ATOM     12  C   UNL     1      -1.113  -9.718  15.161  0.00  0.00    +0.017 C 
ATOM     13  C   UNL     1      -1.497  -9.925  13.710  0.00  0.00    +0.085 C 
BRANCH   3  14
ATOM     14  C   UNL     1      -3.161 -11.262  12.564  0.00  0.00    +0.140 C 
BRANCH  14  20
ATOM      8  N   UNL     1      -4.990  -9.731  12.086  0.00  0.00    -0.259 NA
ATOM     20  C   UNL     1      -3.817 -10.250  11.662  0.00  0.00    +0.055 A 
ATOM     25  C   UNL     1      -3.203  -9.906  10.469  0.00  0.00    +0.024 A 
ATOM     28  C   UNL     1      -3.835  -8.970   9.658  0.00  0.00    +0.003 A 
ATOM     31  C   UNL     1      -5.575  -8.824  11.272  0.00  0.00    +0.111 A 
ATOM     32  C   UNL     1      -5.044  -8.413  10.061  0.00  0.00    +0.020 A 
ENDBRANCH  14  20
ENDBRANCH   3  14
ENDBRANCH  15  10
TORSDOF 4
ENDMDL
MODEL 3
REMARK VINA RESULT:      -7.6     27.965     31.498
REMARK  Name = 51136823
REMARK  5 active torsions:
REMARK  status: ('A' for Active; 'I' for Inactive)
REMARK    1  A    between atoms: N_3  and  C_14
REMARK    2  A    between atoms: C_10  and  C_15
REMARK    3  A    between atoms: C_14  and  C_20
REMARK    4  A    between atoms: C_22  and  C_23
REMARK    5  A    between atoms: C_26  and  C_30
REMARK                            x       y       z     vdW  Elec       q    Type
REMARK                         _______ _______ _______ _____ _____    ______ ____
ROOT
ATOM      1  O   UNL     1     -11.216  -5.835  15.402  0.00  0.00    -0.336 OA
ATOM      6  N   UNL     1     -11.980  -7.732  16.314  0.00  0.00    -0.190 NA
ATOM      7  N   UNL     1     -10.087  -6.540  15.837  0.00  0.00    -0.056 NA
ATOM     15  C   UNL     1     -12.288  -6.606  15.722  0.00  0.00    +0.245 A 
ATOM     22  C   UNL     1     -10.619  -7.646  16.364  0.00  0.00    +0.202 A 
ENDROOT
BRANCH  22  23
ATOM      2  O   UNL     1      -2.442 -11.084  13.717  0.00  0.00    -0.276 OA
ATOM      4  N   UNL     1      -6.542 -10.212  16.548  0.00  0.00    -0.312 N 
ATOM      5  N   UNL     1      -3.885 -10.656  15.487  0.00  0.00    -0.299 N 
ATOM      9  N   UNL     1      -8.262 -10.707  18.088  0.00  0.00    -0.240 NA
ATOM     16  C   UNL     1      -5.473 -10.726  17.409  0.00  0.00    +0.125 C 
ATOM     17  C   UNL     1      -6.247 -10.005  15.127  0.00  0.00    +0.125 C 
ATOM     18  C   UNL     1      -4.103 -10.292  16.889  0.00  0.00    +0.126 C 
ATOM     19  C   UNL     1      -5.083 -10.887  14.683  0.00  0.00    +0.126 C 
ATOM     21  C   UNL     1      -7.814  -9.960  17.055  0.00  0.00    +0.122 A 
ATOM     23  C   UNL     1      -9.820  -8.685  16.948  0.00  0.00    +0.027 A 
ATOM     24  C   UNL     1      -8.547  -8.948  16.455  0.00  0.00    +0.055 A 
ATOM     26  C   UNL     1      -2.627 -10.777  14.897  0.00  0.00    +0.213 C 
ATOM     27  C   UNL     1     -10.315  -9.434  18.011  0.00  0.00    +0.031 A 
ATOM     29  C   UNL     1      -9.504 -10.424  18.541  0.00  0.00    +0.113 A 
ATOM     30  C   UNL     1      -1.442 -10.514  15.794  0.00  0.00    +0.109 C 
ENDBRANCH  22  23
BRANCH  15  10
ATOM      3  N   UNL     1     -13.796  -5.844  13.895  0.00  0.00    -0.286 NA
ATOM     10  C   UNL     1     -13.650  -6.057  15.349  0.00  0.00    +0.146 C 
ATOM     11  C   UNL     1     -14.799  -7.012  15.722  0.00  0.00    +0.030 C 
ATOM     12  C   UNL     1     -15.571  -7.231  14.429  0.00  0.00    +0.017 C 
ATOM     13  C   UNL     1     -15.219  -6.016  13.594  0.00  0.00    +0.085 C 
BRANCH   3  14
ATOM     14  C   UNL     1     -13.295  -4.550  13.450  0.00  0.00    +0.140 C 
BRANCH  14  20
ATOM      8  N   UNL     1     -12.405  -5.886  11.622  0.00  0.00    -0.259 NA
ATOM     20  C   UNL     1     -12.613  -4.643  12.110  0.00  0.00    +0.055 A 
ATOM     25  C   UNL     1     -12.241  -3.480  11.457  0.00  0.00    +0.024 A 
ATOM     28  C   UNL     1     -11.613  -3.600  10.222  0.00  0.00    +0.003 A 
ATOM     31  C   UNL     1     -11.793  -5.963  10.419  0.00  0.00    +0.111 A 
ATOM     32  C   UNL     1     -11.381  -4.862   9.686  0.00  0.00    +0.020 A 
ENDBRANCH  14  20
ENDBRANCH   3  14
ENDBRANCH  15  10
TORSDOF 4
ENDMDL
MODEL 4
REMARK VINA RESULT:      -7.5      2.347     10.898
REMARK  Name = 51136823
REMARK  5 active torsions:
REMARK  status: ('A' for Active; 'I' for Inactive)
REMARK    1  A    between atoms: N_3  and  C_14
REMARK    2  A    between atoms: C_10  and  C_15
REMARK    3  A    between atoms: C_14  and  C_20
REMARK    4  A    between atoms: C_22  and  C_23
REMARK    5  A    between atoms: C_26  and  C_30
REMARK                            x       y       z     vdW  Elec       q    Type
REMARK                         _______ _______ _______ _____ _____    ______ ____
ROOT
ATOM      1  O   UNL     1      21.827   5.087  23.753  0.00  0.00    -0.336 OA
ATOM      6  N   UNL     1      21.001   5.315  21.684  0.00  0.00    -0.190 NA
ATOM      7  N   UNL     1      21.047   6.250  23.772  0.00  0.00    -0.056 NA
ATOM     15  C   UNL     1      21.746   4.599  22.488  0.00  0.00    +0.245 A 
ATOM     22  C   UNL     1      20.595   6.317  22.516  0.00  0.00    +0.202 A 
ENDROOT
BRANCH  22  23
ATOM      2  O   UNL     1      11.677   6.102  20.040  0.00  0.00    -0.276 OA
ATOM      4  N   UNL     1      16.234   7.935  21.248  0.00  0.00    -0.312 N 
ATOM      5  N   UNL     1      13.414   7.365  20.929  0.00  0.00    -0.299 N 
ATOM      9  N   UNL     1      18.061   9.430  21.177  0.00  0.00    -0.240 NA
ATOM     16  C   UNL     1      15.236   8.993  21.429  0.00  0.00    +0.125 C 
ATOM     17  C   UNL     1      15.770   6.610  20.827  0.00  0.00    +0.125 C 
ATOM     18  C   UNL     1      13.890   8.401  21.848  0.00  0.00    +0.126 C 
ATOM     19  C   UNL     1      14.429   6.711  20.106  0.00  0.00    +0.126 C 
ATOM     21  C   UNL     1      17.591   8.189  21.434  0.00  0.00    +0.122 A 
ATOM     23  C   UNL     1      19.735   7.372  22.061  0.00  0.00    +0.027 A 
ATOM     24  C   UNL     1      18.378   7.136  21.872  0.00  0.00    +0.055 A 
ATOM     26  C   UNL     1      12.079   6.974  20.814  0.00  0.00    +0.213 C 
ATOM     27  C   UNL     1      20.256   8.638  21.807  0.00  0.00    +0.031 A 
ATOM     29  C   UNL     1      19.385   9.622  21.371  0.00  0.00    +0.113 A 
ATOM     30  C   UNL     1      11.096   7.693  21.705  0.00  0.00    +0.109 C 
ENDBRANCH  22  23
BRANCH  15  10
ATOM      3  N   UNL     1      23.878   3.584  21.702  0.00  0.00    -0.286 NA
ATOM     10  C   UNL     1      22.514   3.325  22.205  0.00  0.00    +0.146 C 
ATOM     11  C   UNL     1      22.719   2.461  23.464  0.00  0.00    +0.030 C 
ATOM     12  C   UNL     1      24.221   2.238  23.553  0.00  0.00    +0.017 C 
ATOM     13  C   UNL     1      24.699   2.450  22.131  0.00  0.00    +0.085 C 
BRANCH   3  14
ATOM     14  C   UNL     1      23.931   3.784  20.260  0.00  0.00    +0.140 C 
BRANCH  14  20
ATOM      8  N   UNL     1      25.607   5.548  20.257  0.00  0.00    -0.259 NA
ATOM     20  C   UNL     1      25.268   4.316  19.816  0.00  0.00    +0.055 A 
ATOM     25  C   UNL     1      26.069   3.538  18.997  0.00  0.00    +0.024 A 
ATOM     28  C   UNL     1      27.297   4.058  18.604  0.00  0.00    +0.003 A 
ATOM     31  C   UNL     1      26.808   6.020  19.855  0.00  0.00    +0.111 A 
ATOM     32  C   UNL     1      27.682   5.322  19.037  0.00  0.00    +0.020 A 
ENDBRANCH  14  20
ENDBRANCH   3  14
ENDBRANCH  15  10
TORSDOF 4
ENDMDL
MODEL 5
REMARK VINA RESULT:      -7.4     27.476     30.848
REMARK  Name = 51136823
REMARK  5 active torsions:
REMARK  status: ('A' for Active; 'I' for Inactive)
REMARK    1  A    between atoms: N_3  and  C_14
REMARK    2  A    between atoms: C_10  and  C_15
REMARK    3  A    between atoms: C_14  and  C_20
REMARK    4  A    between atoms: C_22  and  C_23
REMARK    5  A    between atoms: C_26  and  C_30
REMARK                            x       y       z     vdW  Elec       q    Type
REMARK                         _______ _______ _______ _____ _____    ______ ____
ROOT
ATOM      1  O   UNL     1      -4.418  -9.684   8.417  0.00  0.00    -0.336 OA
ATOM      6  N   UNL     1      -4.227 -11.497   9.719  0.00  0.00    -0.190 NA
ATOM      7  N   UNL     1      -3.869  -9.239   9.626  0.00  0.00    -0.056 NA
ATOM     15  C   UNL     1      -4.598 -11.024   8.556  0.00  0.00    +0.245 A 
ATOM     22  C   UNL     1      -3.788 -10.365  10.341  0.00  0.00    +0.202 A 
ENDROOT
BRANCH  22  23
ATOM      2  O   UNL     1      -8.251 -10.337  18.452  0.00  0.00    -0.276 OA
ATOM      4  N   UNL     1      -4.475 -10.673  15.103  0.00  0.00    -0.312 N 
ATOM      5  N   UNL     1      -6.350 -10.990  17.286  0.00  0.00    -0.299 N 
ATOM      9  N   UNL     1      -2.269 -10.451  14.289  0.00  0.00    -0.240 NA
ATOM     16  C   UNL     1      -4.066 -11.336  16.344  0.00  0.00    +0.125 C 
ATOM     17  C   UNL     1      -5.826 -10.110  15.031  0.00  0.00    +0.125 C 
ATOM     18  C   UNL     1      -5.273 -11.955  17.051  0.00  0.00    +0.126 C 
ATOM     19  C   UNL     1      -6.360  -9.807  16.429  0.00  0.00    +0.126 C 
ATOM     21  C   UNL     1      -3.593 -10.546  14.033  0.00  0.00    +0.122 A 
ATOM     23  C   UNL     1      -3.273 -10.393  11.680  0.00  0.00    +0.027 A 
ATOM     24  C   UNL     1      -4.140 -10.521  12.760  0.00  0.00    +0.055 A 
ATOM     26  C   UNL     1      -7.343 -11.148  18.252  0.00  0.00    +0.213 C 
ATOM     27  C   UNL     1      -1.904 -10.293  11.905  0.00  0.00    +0.031 A 
ATOM     29  C   UNL     1      -1.457 -10.327  13.216  0.00  0.00    +0.113 A 
ATOM     30  C   UNL     1      -7.265 -12.401  19.090  0.00  0.00    +0.109 C 
ENDBRANCH  22  23
BRANCH  15  10
ATOM      3  N   UNL     1      -5.975 -10.863   6.489  0.00  0.00    -0.286 NA
ATOM     10  C   UNL     1      -5.188 -11.752   7.366  0.00  0.00    +0.146 C 
ATOM     11  C   UNL     1      -4.111 -12.357   6.445  0.00  0.00    +0.030 C 
ATOM     12  C   UNL     1      -4.410 -11.797   5.062  0.00  0.00    +0.017 C 
ATOM     13  C   UNL     1      -5.876 -11.421   5.139  0.00  0.00    +0.085 C 
BRANCH   3  14
ATOM     14  C   UNL     1      -7.359 -10.710   6.918  0.00  0.00    +0.140 C 
BRANCH  14  20
ATOM      8  N   UNL     1      -7.753  -8.958   8.560  0.00  0.00    -0.259 NA
ATOM     20  C   UNL     1      -7.689  -9.278   7.249  0.00  0.00    +0.055 A 
ATOM     25  C   UNL     1      -7.905  -8.377   6.219  0.00  0.00    +0.024 A 
ATOM     28  C   UNL     1      -8.208  -7.063   6.557  0.00  0.00    +0.003 A 
ATOM     31  C   UNL     1      -8.050  -7.672   8.850  0.00  0.00    +0.111 A 
ATOM     32  C   UNL     1      -8.284  -6.695   7.896  0.00  0.00    +0.020 A 
ENDBRANCH  14  20
ENDBRANCH   3  14
ENDBRANCH  15  10
TORSDOF 4
ENDMDL
MODEL 6
REMARK VINA RESULT:      -7.3     27.405     30.944
REMARK  Name = 51136823
REMARK  5 active torsions:
REMARK  status: ('A' for Active; 'I' for Inactive)
REMARK    1  A    between atoms: N_3  and  C_14
REMARK    2  A    between atoms: C_10  and  C_15
REMARK    3  A    between atoms: C_14  and  C_20
REMARK    4  A    between atoms: C_22  and  C_23
REMARK    5  A    between atoms: C_26  and  C_30
REMARK                            x       y       z     vdW  Elec       q    Type
REMARK                         _______ _______ _______ _____ _____    ______ ____
ROOT
ATOM      1  O   UNL     1      -1.859 -10.576  14.618  0.00  0.00    -0.336 OA
ATOM      6  N   UNL     1      -4.060 -10.977  14.528  0.00  0.00    -0.190 NA
ATOM      7  N   UNL     1      -2.316 -10.542  15.942  0.00  0.00    -0.056 NA
ATOM     15  C   UNL     1      -2.949 -10.838  13.851  0.00  0.00    +0.245 A 
ATOM     22  C   UNL     1      -3.622 -10.786  15.806  0.00  0.00    +0.202 A 
ENDROOT
BRANCH  22  23
ATOM      2  O   UNL     1     -12.249  -7.559  16.731  0.00  0.00    -0.276 OA
ATOM      4  N   UNL     1      -7.968 -10.048  17.759  0.00  0.00    -0.312 N 
ATOM      5  N   UNL     1     -10.698  -9.162  17.380  0.00  0.00    -0.299 N 
ATOM      9  N   UNL     1      -6.261 -10.967  19.108  0.00  0.00    -0.240 NA
ATOM     16  C   UNL     1      -9.056 -10.634  18.546  0.00  0.00    +0.125 C 
ATOM     17  C   UNL     1      -8.290  -8.955  16.838  0.00  0.00    +0.125 C 
ATOM     18  C   UNL     1     -10.384 -10.532  17.796  0.00  0.00    +0.126 C 
ATOM     19  C   UNL     1      -9.569  -8.242  17.273  0.00  0.00    +0.126 C 
ATOM     21  C   UNL     1      -6.656 -10.491  17.906  0.00  0.00    +0.122 A 
ATOM     23  C   UNL     1      -4.517 -10.847  16.926  0.00  0.00    +0.027 A 
ATOM     24  C   UNL     1      -5.831 -10.410  16.795  0.00  0.00    +0.055 A 
ATOM     26  C   UNL     1     -11.983  -8.712  17.080  0.00  0.00    +0.213 C 
ATOM     27  C   UNL     1      -4.075 -11.343  18.148  0.00  0.00    +0.031 A 
ATOM     29  C   UNL     1      -4.978 -11.382  19.198  0.00  0.00    +0.113 A 
ATOM     30  C   UNL     1     -13.093  -9.727  17.208  0.00  0.00    +0.109 C 
ENDBRANCH  22  23
BRANCH  15  10
ATOM      3  N   UNL     1      -3.862 -10.426  11.573  0.00  0.00    -0.286 NA
ATOM     10  C   UNL     1      -2.716 -10.928  12.357  0.00  0.00    +0.146 C 
ATOM     11  C   UNL     1      -1.519 -10.079  11.888  0.00  0.00    +0.030 C 
ATOM     12  C   UNL     1      -2.076  -9.173  10.800  0.00  0.00    +0.017 C 
ATOM     13  C   UNL     1      -3.310  -9.910  10.319  0.00  0.00    +0.085 C 
BRANCH   3  14
ATOM     14  C   UNL     1      -4.888 -11.435  11.345  0.00  0.00    +0.140 C 
BRANCH  14  20
ATOM      8  N   UNL     1      -6.802 -12.175  12.653  0.00  0.00    -0.259 NA
ATOM     20  C   UNL     1      -6.156 -11.126  12.097  0.00  0.00    +0.055 A 
ATOM     25  C   UNL     1      -6.590  -9.813  12.183  0.00  0.00    +0.024 A 
ATOM     28  C   UNL     1      -7.764  -9.561  12.885  0.00  0.00    +0.003 A 
ATOM     31  C   UNL     1      -7.939 -11.891  13.327  0.00  0.00    +0.111 A 
ATOM     32  C   UNL     1      -8.457 -10.614  13.471  0.00  0.00    +0.020 A 
ENDBRANCH  14  20
ENDBRANCH   3  14
ENDBRANCH  15  10
TORSDOF 4
ENDMDL
MODEL 7
REMARK VINA RESULT:      -7.3     28.099     30.636
REMARK  Name = 51136823
REMARK  5 active torsions:
REMARK  status: ('A' for Active; 'I' for Inactive)
REMARK    1  A    between atoms: N_3  and  C_14
REMARK    2  A    between atoms: C_10  and  C_15
REMARK    3  A    between atoms: C_14  and  C_20
REMARK    4  A    between atoms: C_22  and  C_23
REMARK    5  A    between atoms: C_26  and  C_30
REMARK                            x       y       z     vdW  Elec       q    Type
REMARK                         _______ _______ _______ _____ _____    ______ ____
ROOT
ATOM      1  O   UNL     1      -4.264 -12.163  16.798  0.00  0.00    -0.336 OA
ATOM      6  N   UNL     1      -4.807 -10.257  15.755  0.00  0.00    -0.190 NA
ATOM      7  N   UNL     1      -3.651 -12.219  15.540  0.00  0.00    -0.056 NA
ATOM     15  C   UNL     1      -4.925 -10.977  16.842  0.00  0.00    +0.245 A 
ATOM     22  C   UNL     1      -4.018 -11.060  14.985  0.00  0.00    +0.202 A 
ENDROOT
BRANCH  22  23
ATOM      2  O   UNL     1      -9.126  -9.119   7.512  0.00  0.00    -0.276 OA
ATOM      4  N   UNL     1      -5.092  -9.557  10.532  0.00  0.00    -0.312 N 
ATOM      5  N   UNL     1      -7.140  -8.737   8.657  0.00  0.00    -0.299 N 
ATOM      9  N   UNL     1      -2.826  -9.922  11.088  0.00  0.00    -0.240 NA
ATOM     16  C   UNL     1      -4.790  -8.586   9.477  0.00  0.00    +0.125 C 
ATOM     17  C   UNL     1      -6.430 -10.154  10.561  0.00  0.00    +0.125 C 
ATOM     18  C   UNL     1      -6.053  -7.838   9.050  0.00  0.00    +0.126 C 
ATOM     19  C   UNL     1      -7.075 -10.101   9.178  0.00  0.00    +0.126 C 
ATOM     21  C   UNL     1      -4.125  -9.931  11.462  0.00  0.00    +0.122 A 
ATOM     23  C   UNL     1      -3.614 -10.675  13.663  0.00  0.00    +0.027 A 
ATOM     24  C   UNL     1      -4.567 -10.297  12.723  0.00  0.00    +0.055 A 
ATOM     26  C   UNL     1      -8.210  -8.362   7.844  0.00  0.00    +0.213 C 
ATOM     27  C   UNL     1      -2.267 -10.678  13.315  0.00  0.00    +0.031 A 
ATOM     29  C   UNL     1      -1.929 -10.297  12.027  0.00  0.00    +0.113 A 
ATOM     30  C   UNL     1      -8.207  -6.935   7.355  0.00  0.00    +0.109 C 
ENDBRANCH  22  23
BRANCH  15  10
ATOM      3  N   UNL     1      -7.132 -10.522  17.898  0.00  0.00    -0.286 NA
ATOM     10  C   UNL     1      -5.680 -10.672  18.120  0.00  0.00    +0.146 C 
ATOM     11  C   UNL     1      -5.557 -11.796  19.166  0.00  0.00    +0.030 C 
ATOM     12  C   UNL     1      -6.990 -12.171  19.515  0.00  0.00    +0.017 C 
ATOM     13  C   UNL     1      -7.784 -10.936  19.141  0.00  0.00    +0.085 C 
BRANCH   3  14
ATOM     14  C   UNL     1      -7.516  -9.174  17.500  0.00  0.00    +0.140 C 
BRANCH  14  20
ATOM      8  N   UNL     1      -9.505  -8.277  16.424  0.00  0.00    -0.259 NA
ATOM     20  C   UNL     1      -8.506  -9.185  16.365  0.00  0.00    +0.055 A 
ATOM     25  C   UNL     1      -8.351 -10.102  15.339  0.00  0.00    +0.024 A 
ATOM     28  C   UNL     1      -9.282 -10.086  14.307  0.00  0.00    +0.003 A 
ATOM     31  C   UNL     1     -10.391  -8.292  15.403  0.00  0.00    +0.111 A 
ATOM     32  C   UNL     1     -10.325  -9.167  14.332  0.00  0.00    +0.020 A 
ENDBRANCH  14  20
ENDBRANCH   3  14
ENDBRANCH  15  10
TORSDOF 4
ENDMDL
MODEL 8
REMARK VINA RESULT:      -7.2      2.640     10.739
REMARK  Name = 51136823
REMARK  5 active torsions:
REMARK  status: ('A' for Active; 'I' for Inactive)
REMARK    1  A    between atoms: N_3  and  C_14
REMARK    2  A    between atoms: C_10  and  C_15
REMARK    3  A    between atoms: C_14  and  C_20
REMARK    4  A    between atoms: C_22  and  C_23
REMARK    5  A    between atoms: C_26  and  C_30
REMARK                            x       y       z     vdW  Elec       q    Type
REMARK                         _______ _______ _______ _____ _____    ______ ____
ROOT
ATOM      1  O   UNL     1      21.904   6.257  21.580  0.00  0.00    -0.336 OA
ATOM      6  N   UNL     1      19.867   6.276  22.513  0.00  0.00    -0.190 NA
ATOM      7  N   UNL     1      20.990   6.322  20.520  0.00  0.00    -0.056 NA
ATOM     15  C   UNL     1      21.160   6.233  22.717  0.00  0.00    +0.245 A 
ATOM     22  C   UNL     1      19.812   6.329  21.151  0.00  0.00    +0.202 A 
ENDROOT
BRANCH  22  23
ATOM      2  O   UNL     1      12.129  11.134  23.042  0.00  0.00    -0.276 OA
ATOM      4  N   UNL     1      15.420   8.220  20.539  0.00  0.00    -0.312 N 
ATOM      5  N   UNL     1      13.457  10.166  21.398  0.00  0.00    -0.299 N 
ATOM      9  N   UNL     1      16.127   6.503  19.080  0.00  0.00    -0.240 NA
ATOM     16  C   UNL     1      14.473   8.795  19.580  0.00  0.00    +0.125 C 
ATOM     17  C   UNL     1      15.293   8.599  21.949  0.00  0.00    +0.125 C 
ATOM     18  C   UNL     1      14.006  10.176  20.041  0.00  0.00    +0.126 C 
ATOM     19  C   UNL     1      13.871   9.061  22.259  0.00  0.00    +0.126 C 
ATOM     21  C   UNL     1      16.392   7.310  20.131  0.00  0.00    +0.122 A 
ATOM     23  C   UNL     1      18.562   6.387  20.449  0.00  0.00    +0.027 A 
ATOM     24  C   UNL     1      17.581   7.292  20.843  0.00  0.00    +0.055 A 
ATOM     26  C   UNL     1      12.592  11.140  21.899  0.00  0.00    +0.213 C 
ATOM     27  C   UNL     1      18.325   5.540  19.371  0.00  0.00    +0.031 A 
ATOM     29  C   UNL     1      17.102   5.637  18.726  0.00  0.00    +0.113 A 
ATOM     30  C   UNL     1      12.220  12.252  20.949  0.00  0.00    +0.109 C 
ENDBRANCH  22  23
BRANCH  15  10
ATOM      3  N   UNL     1      23.154   5.353  23.917  0.00  0.00    -0.286 NA
ATOM     10  C   UNL     1      21.925   6.164  24.022  0.00  0.00    +0.146 C 
ATOM     11  C   UNL     1      22.407   7.546  24.503  0.00  0.00    +0.030 C 
ATOM     12  C   UNL     1      23.909   7.397  24.698  0.00  0.00    +0.017 C 
ATOM     13  C   UNL     1      24.098   5.905  24.891  0.00  0.00    +0.085 C 
BRANCH   3  14
ATOM     14  C   UNL     1      22.923   3.930  24.125  0.00  0.00    +0.140 C 
BRANCH  14  20
ATOM      8  N   UNL     1      24.781   2.577  23.326  0.00  0.00    -0.259 NA
ATOM     20  C   UNL     1      23.564   3.094  23.048  0.00  0.00    +0.055 A 
ATOM     25  C   UNL     1      22.893   2.900  21.852  0.00  0.00    +0.024 A 
ATOM     28  C   UNL     1      23.512   2.124  20.878  0.00  0.00    +0.003 A 
ATOM     31  C   UNL     1      25.351   1.829  22.356  0.00  0.00    +0.111 A 
ATOM     32  C   UNL     1      24.764   1.574  21.127  0.00  0.00    +0.020 A 
ENDBRANCH  14  20
ENDBRANCH   3  14
ENDBRANCH  15  10
TORSDOF 4
ENDMDL
MODEL 9
REMARK VINA RESULT:      -7.1      2.348     10.750
REMARK  Name = 51136823
REMARK  5 active torsions:
REMARK  status: ('A' for Active; 'I' for Inactive)
REMARK    1  A    between atoms: N_3  and  C_14
REMARK    2  A    between atoms: C_10  and  C_15
REMARK    3  A    between atoms: C_14  and  C_20
REMARK    4  A    between atoms: C_22  and  C_23
REMARK    5  A    between atoms: C_26  and  C_30
REMARK                            x       y       z     vdW  Elec       q    Type
REMARK                         _______ _______ _______ _____ _____    ______ ____
ROOT
ATOM      1  O   UNL     1      21.393   5.601  23.425  0.00  0.00    -0.336 OA
ATOM      6  N   UNL     1      21.456   6.749  21.502  0.00  0.00    -0.190 NA
ATOM      7  N   UNL     1      20.245   6.404  23.413  0.00  0.00    -0.056 NA
ATOM     15  C   UNL     1      22.049   5.865  22.265  0.00  0.00    +0.245 A 
ATOM     22  C   UNL     1      20.354   7.052  22.249  0.00  0.00    +0.202 A 
ENDROOT
BRANCH  22  23
ATOM      2  O   UNL     1      11.331   5.989  20.476  0.00  0.00    -0.276 OA
ATOM      4  N   UNL     1      15.796   8.243  21.228  0.00  0.00    -0.312 N 
ATOM      5  N   UNL     1      13.017   7.436  21.157  0.00  0.00    -0.299 N 
ATOM      9  N   UNL     1      17.484   9.868  20.935  0.00  0.00    -0.240 NA
ATOM     16  C   UNL     1      14.730   9.229  21.426  0.00  0.00    +0.125 C 
ATOM     17  C   UNL     1      15.414   6.863  20.918  0.00  0.00    +0.125 C 
ATOM     18  C   UNL     1      13.470   8.561  21.978  0.00  0.00    +0.126 C 
ATOM     19  C   UNL     1      14.020   6.814  20.297  0.00  0.00    +0.126 C 
ATOM     21  C   UNL     1      17.137   8.613  21.296  0.00  0.00    +0.122 A 
ATOM     23  C   UNL     1      19.381   8.006  21.802  0.00  0.00    +0.027 A 
ATOM     24  C   UNL     1      18.038   7.654  21.731  0.00  0.00    +0.055 A 
ATOM     26  C   UNL     1      11.714   6.936  21.166  0.00  0.00    +0.213 C 
ATOM     27  C   UNL     1      19.776   9.290  21.439  0.00  0.00    +0.031 A 
ATOM     29  C   UNL     1      18.798  10.175  21.017  0.00  0.00    +0.113 A 
ATOM     30  C   UNL     1      10.741   7.629  22.089  0.00  0.00    +0.109 C 
ENDBRANCH  22  23
BRANCH  15  10
ATOM      3  N   UNL     1      23.308   4.293  20.804  0.00  0.00    -0.286 NA
ATOM     10  C   UNL     1      23.341   5.110  22.033  0.00  0.00    +0.146 C 
ATOM     11  C   UNL     1      24.552   6.044  21.851  0.00  0.00    +0.030 C 
ATOM     12  C   UNL     1      25.171   5.637  20.521  0.00  0.00    +0.017 C 
ATOM     13  C   UNL     1      24.689   4.214  20.323  0.00  0.00    +0.085 C 
BRANCH   3  14
ATOM     14  C   UNL     1      22.722   2.974  21.005  0.00  0.00    +0.140 C 
BRANCH  14  20
ATOM      8  N   UNL     1      24.470   1.286  21.137  0.00  0.00    -0.259 NA
ATOM     20  C   UNL     1      23.618   2.081  21.823  0.00  0.00    +0.055 A 
ATOM     25  C   UNL     1      23.530   2.114  23.204  0.00  0.00    +0.024 A 
ATOM     28  C   UNL     1      24.370   1.277  23.930  0.00  0.00    +0.003 A 
ATOM     31  C   UNL     1      25.271   0.487  21.876  0.00  0.00    +0.111 A 
ATOM     32  C   UNL     1      25.261   0.445  23.261  0.00  0.00    +0.020 A 
ENDBRANCH  14  20
ENDBRANCH   3  14
ENDBRANCH  15  10
TORSDOF 4
ENDMDL
MODEL 10
REMARK VINA RESULT:      -7.0      2.240     10.611
REMARK  Name = 51136823
REMARK  5 active torsions:
REMARK  status: ('A' for Active; 'I' for Inactive)
REMARK    1  A    between atoms: N_3  and  C_14
REMARK    2  A    between atoms: C_10  and  C_15
REMARK    3  A    between atoms: C_14  and  C_20
REMARK    4  A    between atoms: C_22  and  C_23
REMARK    5  A    between atoms: C_26  and  C_30
REMARK                            x       y       z     vdW  Elec       q    Type
REMARK                         _______ _______ _______ _____ _____    ______ ____
ROOT
ATOM      1  O   UNL     1      18.051   5.531  19.577  0.00  0.00    -0.336 OA
ATOM      6  N   UNL     1      17.186   7.327  20.597  0.00  0.00    -0.190 NA
ATOM      7  N   UNL     1      16.853   5.817  18.911  0.00  0.00    -0.056 NA
ATOM     15  C   UNL     1      18.171   6.466  20.555  0.00  0.00    +0.245 A 
ATOM     22  C   UNL     1      16.402   6.888  19.571  0.00  0.00    +0.202 A 
ENDROOT
BRANCH  22  23
ATOM      2  O   UNL     1      10.523  11.683  24.877  0.00  0.00    -0.276 OA
ATOM      4  N   UNL     1      12.683   9.723  20.744  0.00  0.00    -0.312 N 
ATOM      5  N   UNL     1      11.408  11.376  22.750  0.00  0.00    -0.299 N 
ATOM      9  N   UNL     1      12.776   8.821  18.563  0.00  0.00    -0.240 NA
ATOM     16  C   UNL     1      11.869  10.876  20.351  0.00  0.00    +0.125 C 
ATOM     17  C   UNL     1      12.767   9.389  22.169  0.00  0.00    +0.125 C 
ATOM     18  C   UNL     1      11.840  11.924  21.463  0.00  0.00    +0.126 C 
ATOM     19  C   UNL     1      11.557   9.933  22.924  0.00  0.00    +0.126 C 
ATOM     21  C   UNL     1      13.330   8.941  19.790  0.00  0.00    +0.122 A 
ATOM     23  C   UNL     1      15.171   7.543  19.230  0.00  0.00    +0.027 A 
ATOM     24  C   UNL     1      14.513   8.329  20.170  0.00  0.00    +0.055 A 
ATOM     26  C   UNL     1      10.889  12.144  23.792  0.00  0.00    +0.213 C 
ATOM     27  C   UNL     1      14.631   7.396  17.956  0.00  0.00    +0.031 A 
ATOM     29  C   UNL     1      13.442   8.050  17.676  0.00  0.00    +0.113 A 
ATOM     30  C   UNL     1      10.776  13.627  23.536  0.00  0.00    +0.109 C 
ENDBRANCH  22  23
BRANCH  15  10
ATOM      3  N   UNL     1      20.644   6.199  20.646  0.00  0.00    -0.286 NA
ATOM     10  C   UNL     1      19.405   6.374  21.429  0.00  0.00    +0.146 C 
ATOM     11  C   UNL     1      19.642   7.649  22.260  0.00  0.00    +0.030 C 
ATOM     12  C   UNL     1      21.061   8.085  21.922  0.00  0.00    +0.017 C 
ATOM     13  C   UNL     1      21.718   6.811  21.430  0.00  0.00    +0.085 C 
BRANCH   3  14
ATOM     14  C   UNL     1      20.927   4.808  20.320  0.00  0.00    +0.140 C 
BRANCH  14  20
ATOM      8  N   UNL     1      23.329   4.455  20.482  0.00  0.00    -0.259 NA
ATOM     20  C   UNL     1      22.124   4.288  21.071  0.00  0.00    +0.055 A 
ATOM     25  C   UNL     1      21.940   3.678  22.301  0.00  0.00    +0.024 A 
ATOM     28  C   UNL     1      23.066   3.208  22.969  0.00  0.00    +0.003 A 
ATOM     31  C   UNL     1      24.400   3.987  21.161  0.00  0.00    +0.111 A 
ATOM     32  C   UNL     1      24.323   3.362  22.395  0.00  0.00    +0.020 A 
ENDBRANCH  14  20
ENDBRANCH   3  14
ENDBRANCH  15  10
TORSDOF 4
ENDMDL
