REMARK  Name = 51136684
REMARK  10 active torsions:
REMARK  status: ('A' for Active; 'I' for Inactive)
REMARK    1  A    between atoms: O_2  and  C_18
REMARK    2  A    between atoms: O_4  and  C_25
REMARK    3  A    between atoms: O_4  and  C_29
REMARK    4  A    between atoms: N_7  and  C_24
REMARK    5  A    between atoms: C_8  and  C_13
REMARK    6  A    between atoms: C_9  and  C_14
REMARK    7  A    between atoms: C_13  and  C_15
REMARK    8  A    between atoms: C_14  and  C_18
REMARK    9  A    between atoms: C_24  and  C_27
REMARK   10  A    between atoms: C_27  and  C_28
REMARK                            x       y       z     vdW  Elec       q    Type
REMARK                         _______ _______ _______ _____ _____    ______ ____
ROOT
ATOM      1  O   UNL     1       0.455  -3.862  -0.249  0.00  0.00    -0.253 OA
ATOM      5  N   UNL     1       1.572  -2.076   0.722  0.00  0.00    -0.285 N 
ATOM      7  N   UNL     1      -0.723  -2.465   1.136  0.00  0.00    -0.299 N 
ATOM      8  C   UNL     1       2.082   0.349   0.770  0.00  0.00    +0.016 C 
ATOM      9  C   UNL     1       3.417   0.047   0.040  0.00  0.00    +0.006 C 
ATOM     10  C   UNL     1       3.340  -1.255  -0.777  0.00  0.00    +0.023 C 
ATOM     11  C   UNL     1       1.646  -0.885   1.579  0.00  0.00    +0.113 C 
ATOM     12  C   UNL     1       2.838  -2.421   0.074  0.00  0.00    +0.109 C 
ATOM     16  C   UNL     1       0.437  -2.870   0.488  0.00  0.00    +0.302 C 
ATOM     30  H   UNL     1      -0.757  -1.618   1.686  0.00  0.00    +0.150 HD
ENDROOT
BRANCH   8  13
ATOM     13  C   UNL     1       0.951   0.806  -0.159  0.00  0.00    +0.061 C 
BRANCH  13  15
ATOM      6  N   UNL     1       0.280   2.178   1.694  0.00  0.00    -0.287 NA
ATOM     15  C   UNL     1      -0.100   1.543   0.635  0.00  0.00    +0.044 C 
ATOM     17  C   UNL     1      -1.510   1.498   0.170  0.00  0.00    +0.003 A 
ATOM     19  C   UNL     1      -2.494   1.845   1.104  0.00  0.00    -0.037 A 
ATOM     20  C   UNL     1      -2.069   2.219   2.493  0.00  0.00    +0.059 C 
ATOM     21  C   UNL     1      -0.731   2.943   2.432  0.00  0.00    +0.146 C 
ATOM     22  C   UNL     1      -1.866   1.117  -1.125  0.00  0.00    +0.055 A 
ATOM     23  C   UNL     1      -3.843   1.783   0.742  0.00  0.00    +0.008 A 
ATOM     25  C   UNL     1      -3.215   1.074  -1.483  0.00  0.00    +0.121 A 
ATOM     26  C   UNL     1      -4.200   1.403  -0.552  0.00  0.00    +0.046 A 
BRANCH  25   4
ATOM      4  O   UNL     1      -3.570   0.714  -2.748  0.00  0.00    -0.495 OA
ATOM     29  C   UNL     1      -4.964   0.695  -3.049  0.00  0.00    +0.277 C 
ENDBRANCH  25   4
ENDBRANCH  13  15
ENDBRANCH   8  13
BRANCH   9  14
ATOM     14  C   UNL     1       3.897   1.205  -0.835  0.00  0.00    +0.124 C 
BRANCH  14  18
ATOM      3  O   UNL     1       6.148   0.285  -0.661  0.00  0.00    -0.251 OA
ATOM     18  C   UNL     1       5.379   1.137  -1.080  0.00  0.00    +0.305 C 
BRANCH  18   2
ATOM      2  O   UNL     1       5.763   2.184  -1.855  0.00  0.00    -0.481 OA
ATOM     31  H   UNL     1       6.727   2.171  -2.036  0.00  0.00    +0.295 HD
ENDBRANCH  18   2
ENDBRANCH  14  18
ENDBRANCH   9  14
BRANCH   7  24
ATOM     24  C   UNL     1      -1.974  -3.174   0.989  0.00  0.00    +0.105 C 
BRANCH  24  27
ATOM     27  C   UNL     1      -2.808  -2.645  -0.173  0.00  0.00    +0.015 C 
ATOM     28  C   UNL     1      -4.137  -3.372  -0.322  0.00  0.00    +0.005 C 
ENDBRANCH  24  27
ENDBRANCH   7  24
TORSDOF 8
