REMARK  Name = 7142772
REMARK  3 active torsions:
REMARK  status: ('A' for Active; 'I' for Inactive)
REMARK    1  A    between atoms: N_6  and  C_21
REMARK    2  A    between atoms: N_7  and  C_19
REMARK    3  A    between atoms: C_22  and  C_25
REMARK                            x       y       z     vdW  Elec       q    Type
REMARK                         _______ _______ _______ _____ _____    ______ ____
ROOT
ATOM      1  O   UNL     1       0.786   1.615   1.974  0.00  0.00    -0.266 OA
ATOM      2  O   UNL     1      -3.817  -0.849   1.787  0.00  0.00    -0.252 OA
ATOM      4  N   UNL     1      -3.824   0.816   0.180  0.00  0.00    -0.284 N 
ATOM      5  N   UNL     1      -0.895   2.059   0.412  0.00  0.00    -0.310 N 
ATOM      6  N   UNL     1      -3.424  -1.430  -0.423  0.00  0.00    -0.269 N 
ATOM      9  C   UNL     1      -3.159   3.059   1.061  0.00  0.00    +0.027 C 
ATOM     10  C   UNL     1      -2.706   2.490  -1.286  0.00  0.00    +0.054 C 
ATOM     11  C   UNL     1      -3.168   3.611  -0.359  0.00  0.00    +0.018 C 
ATOM     12  C   UNL     1      -4.110   1.856   1.173  0.00  0.00    +0.114 C 
ATOM     13  C   UNL     1      -1.721   2.696   1.446  0.00  0.00    +0.130 C 
ATOM     14  C   UNL     1      -3.690   1.304  -1.205  0.00  0.00    +0.119 C 
ATOM     15  C   UNL     1      -1.309   2.020  -0.923  0.00  0.00    +0.027 A 
ATOM     16  C   UNL     1      -0.488   1.538  -1.871  0.00  0.00    +0.024 A 
ATOM     17  C   UNL     1       0.371   1.587   0.814  0.00  0.00    +0.273 A 
ATOM     18  C   UNL     1      -3.689  -0.525   0.603  0.00  0.00    +0.306 C 
ATOM     19  C   UNL     1       1.245   1.034  -0.268  0.00  0.00    +0.099 A 
ATOM     20  C   UNL     1       0.813   1.034  -1.534  0.00  0.00    +0.030 A 
ATOM     33  H   UNL     1      -3.755  -1.210  -1.356  0.00  0.00    +0.156 HD
ENDROOT
BRANCH   6  21
ATOM     21  C   UNL     1      -2.772  -2.683  -0.312  0.00  0.00    +0.035 A 
ATOM     23  C   UNL     1      -2.672  -3.512  -1.425  0.00  0.00    +0.023 A 
ATOM     24  C   UNL     1      -2.236  -3.079   0.911  0.00  0.00    +0.023 A 
ATOM     26  C   UNL     1      -2.032  -4.747  -1.316  0.00  0.00    +0.002 A 
ATOM     27  C   UNL     1      -1.595  -4.313   1.020  0.00  0.00    +0.002 A 
ATOM     28  C   UNL     1      -1.493  -5.147  -0.093  0.00  0.00    +0.000 A 
ENDBRANCH   6  21
BRANCH  19   7
ATOM      3  O   UNL     1       3.558   1.103  -1.875  0.00  0.00    -0.270 OA
ATOM      7  N   UNL     1       2.471   0.551   0.083  0.00  0.00    -0.277 N 
ATOM     22  C   UNL     1       3.592   0.607  -0.747  0.00  0.00    +0.248 C 
ATOM     34  H   UNL     1       2.608   0.373   1.074  0.00  0.00    +0.155 HD
BRANCH  22  25
ATOM      8  N   UNL     1       7.175  -0.969   0.907  0.00  0.00    -0.263 NA
ATOM     25  C   UNL     1       4.832   0.062  -0.175  0.00  0.00    +0.040 A 
ATOM     29  C   UNL     1       6.053   0.539  -0.613  0.00  0.00    +0.033 A 
ATOM     30  C   UNL     1       4.760  -0.921   0.795  0.00  0.00    +0.033 A 
ATOM     31  C   UNL     1       7.191  -0.007  -0.043  0.00  0.00    +0.111 A 
ATOM     32  C   UNL     1       5.956  -1.401   1.302  0.00  0.00    +0.111 A 
ENDBRANCH  22  25
ENDBRANCH  19   7
TORSDOF 3
