MODEL 1
REMARK VINA RESULT:      -7.4      0.000      0.000
REMARK  Name = 26743556
REMARK  5 active torsions:
REMARK  status: ('A' for Active; 'I' for Inactive)
REMARK    1  A    between atoms: O_2  and  C_9
REMARK    2  A    between atoms: N_4  and  C_11
REMARK    3  A    between atoms: C_7  and  C_12
REMARK    4  A    between atoms: C_11  and  C_13
REMARK    5  A    between atoms: C_16  and  C_19
REMARK                            x       y       z     vdW  Elec       q    Type
REMARK                         _______ _______ _______ _____ _____    ______ ____
ROOT
ATOM      4  N   UNL     1      12.358   8.693  19.966  0.00  0.00    -0.285 NA
ATOM      7  C   UNL     1      13.141   8.236  21.132  0.00  0.00    +0.149 C 
ATOM      8  C   UNL     1      12.213   7.253  21.869  0.00  0.00    +0.061 C 
ATOM      9  C   UNL     1      10.917   7.259  21.067  0.00  0.00    +0.130 C 
ATOM     10  C   UNL     1      10.950   8.593  20.347  0.00  0.00    +0.116 C 
ENDROOT
BRANCH   7  12
ATOM      3  O   UNL     1      14.421   6.684  19.745  0.00  0.00    -0.336 OA
ATOM      5  N   UNL     1      15.660   7.828  21.219  0.00  0.00    -0.190 NA
ATOM      6  N   UNL     1      15.742   6.254  19.561  0.00  0.00    -0.056 NA
ATOM     12  C   UNL     1      14.462   7.610  20.739  0.00  0.00    +0.245 A 
ATOM     16  C   UNL     1      16.411   6.973  20.467  0.00  0.00    +0.202 A 
BRANCH  16  19
ATOM     19  C   UNL     1      17.831   6.863  20.642  0.00  0.00    +0.022 A 
ATOM     21  C   UNL     1      18.511   5.757  20.131  0.00  0.00    +0.012 A 
ATOM     22  C   UNL     1      18.531   7.859  21.322  0.00  0.00    +0.012 A 
ATOM     23  C   UNL     1      19.891   5.648  20.301  0.00  0.00    +0.001 A 
ATOM     24  C   UNL     1      19.911   7.750  21.491  0.00  0.00    +0.001 A 
ATOM     25  C   UNL     1      20.591   6.645  20.980  0.00  0.00    +0.000 A 
ENDBRANCH  16  19
ENDBRANCH   7  12
BRANCH   9   2
ATOM      2  O   UNL     1       9.796   7.152  21.924  0.00  0.00    -0.390 OA
ATOM     26  H   UNL     1       9.335   8.008  21.910  0.00  0.00    +0.210 HD
ENDBRANCH   9   2
BRANCH   4  11
ATOM     11  C   UNL     1      12.713  10.037  19.527  0.00  0.00    +0.120 C 
BRANCH  11  13
ATOM      1  F   UNL     1      15.284   9.993  14.513  0.00  0.00    -0.205 F 
ATOM     13  C   UNL     1      13.399  10.025  18.188  0.00  0.00    -0.033 A 
ATOM     14  C   UNL     1      13.269   8.920  17.346  0.00  0.00    +0.008 A 
ATOM     15  C   UNL     1      14.167  11.119  17.787  0.00  0.00    +0.008 A 
ATOM     17  C   UNL     1      13.906   8.908  16.106  0.00  0.00    +0.038 A 
ATOM     18  C   UNL     1      14.803  11.108  16.547  0.00  0.00    +0.038 A 
ATOM     20  C   UNL     1      14.673  10.003  15.705  0.00  0.00    +0.123 A 
ENDBRANCH  11  13
ENDBRANCH   4  11
TORSDOF 5
ENDMDL
MODEL 2
REMARK VINA RESULT:      -7.4      3.913      7.028
REMARK  Name = 26743556
REMARK  5 active torsions:
REMARK  status: ('A' for Active; 'I' for Inactive)
REMARK    1  A    between atoms: O_2  and  C_9
REMARK    2  A    between atoms: N_4  and  C_11
REMARK    3  A    between atoms: C_7  and  C_12
REMARK    4  A    between atoms: C_11  and  C_13
REMARK    5  A    between atoms: C_16  and  C_19
REMARK                            x       y       z     vdW  Elec       q    Type
REMARK                         _______ _______ _______ _____ _____    ______ ____
ROOT
ATOM      4  N   UNL     1      13.161   8.023  20.523  0.00  0.00    -0.285 NA
ATOM      7  C   UNL     1      11.863   8.692  20.298  0.00  0.00    +0.149 C 
ATOM      8  C   UNL     1      10.816   7.727  20.882  0.00  0.00    +0.061 C 
ATOM      9  C   UNL     1      11.616   6.525  21.370  0.00  0.00    +0.130 C 
ATOM     10  C   UNL     1      12.888   6.587  20.546  0.00  0.00    +0.116 C 
ENDROOT
BRANCH   7  12
ATOM      3  O   UNL     1      12.401  11.075  20.232  0.00  0.00    -0.336 OA
ATOM      5  N   UNL     1      11.251  10.447  22.049  0.00  0.00    -0.190 NA
ATOM      6  N   UNL     1      12.216  12.235  20.996  0.00  0.00    -0.056 NA
ATOM     12  C   UNL     1      11.802  10.071  20.923  0.00  0.00    +0.245 A 
ATOM     16  C   UNL     1      11.532  11.782  22.052  0.00  0.00    +0.202 A 
BRANCH  16  19
ATOM     19  C   UNL     1      11.111  12.639  23.123  0.00  0.00    +0.022 A 
ATOM     21  C   UNL     1      11.148  12.177  24.439  0.00  0.00    +0.012 A 
ATOM     22  C   UNL     1      10.666  13.932  22.849  0.00  0.00    +0.012 A 
ATOM     23  C   UNL     1      10.739  13.009  25.481  0.00  0.00    +0.001 A 
ATOM     24  C   UNL     1      10.257  14.764  23.891  0.00  0.00    +0.001 A 
ATOM     25  C   UNL     1      10.294  14.303  25.207  0.00  0.00    +0.000 A 
ENDBRANCH  16  19
ENDBRANCH   7  12
BRANCH   9   2
ATOM      2  O   UNL     1      10.903   5.324  21.146  0.00  0.00    -0.390 OA
ATOM     26  H   UNL     1      11.406   4.604  21.563  0.00  0.00    +0.210 HD
ENDBRANCH   9   2
BRANCH   4  11
ATOM     11  C   UNL     1      14.168   8.374  19.529  0.00  0.00    +0.120 C 
BRANCH  11  13
ATOM      1  F   UNL     1      19.075   5.785  20.513  0.00  0.00    -0.205 F 
ATOM     13  C   UNL     1      15.479   7.682  19.792  0.00  0.00    -0.033 A 
ATOM     14  C   UNL     1      16.275   8.081  20.866  0.00  0.00    +0.008 A 
ATOM     15  C   UNL     1      15.898   6.643  18.962  0.00  0.00    +0.008 A 
ATOM     17  C   UNL     1      17.490   7.440  21.110  0.00  0.00    +0.038 A 
ATOM     18  C   UNL     1      17.113   6.003  19.205  0.00  0.00    +0.038 A 
ATOM     20  C   UNL     1      17.909   6.401  20.279  0.00  0.00    +0.123 A 
ENDBRANCH  11  13
ENDBRANCH   4  11
TORSDOF 5
ENDMDL
MODEL 3
REMARK VINA RESULT:      -6.9      2.462      5.738
REMARK  Name = 26743556
REMARK  5 active torsions:
REMARK  status: ('A' for Active; 'I' for Inactive)
REMARK    1  A    between atoms: O_2  and  C_9
REMARK    2  A    between atoms: N_4  and  C_11
REMARK    3  A    between atoms: C_7  and  C_12
REMARK    4  A    between atoms: C_11  and  C_13
REMARK    5  A    between atoms: C_16  and  C_19
REMARK                            x       y       z     vdW  Elec       q    Type
REMARK                         _______ _______ _______ _____ _____    ______ ____
ROOT
ATOM      4  N   UNL     1      13.248   7.918  20.246  0.00  0.00    -0.285 NA
ATOM      7  C   UNL     1      12.319   7.863  19.098  0.00  0.00    +0.149 C 
ATOM      8  C   UNL     1      11.013   8.491  19.619  0.00  0.00    +0.061 C 
ATOM      9  C   UNL     1      11.290   8.824  21.079  0.00  0.00    +0.130 C 
ATOM     10  C   UNL     1      12.420   7.883  21.450  0.00  0.00    +0.116 C 
ENDROOT
BRANCH   7  12
ATOM      3  O   UNL     1      12.488   8.068  16.669  0.00  0.00    -0.336 OA
ATOM      5  N   UNL     1      13.651   9.613  17.800  0.00  0.00    -0.190 NA
ATOM      6  N   UNL     1      13.105   8.876  15.704  0.00  0.00    -0.056 NA
ATOM     12  C   UNL     1      12.862   8.571  17.874  0.00  0.00    +0.245 A 
ATOM     16  C   UNL     1      13.774   9.761  16.450  0.00  0.00    +0.202 A 
BRANCH  16  19
ATOM     19  C   UNL     1      14.569  10.809  15.875  0.00  0.00    +0.022 A 
ATOM     21  C   UNL     1      15.381  10.540  14.773  0.00  0.00    +0.012 A 
ATOM     22  C   UNL     1      14.530  12.093  16.417  0.00  0.00    +0.012 A 
ATOM     23  C   UNL     1      16.155  11.557  14.214  0.00  0.00    +0.001 A 
ATOM     24  C   UNL     1      15.303  13.109  15.857  0.00  0.00    +0.001 A 
ATOM     25  C   UNL     1      16.115  12.841  14.756  0.00  0.00    +0.000 A 
ENDBRANCH  16  19
ENDBRANCH   7  12
BRANCH   9   2
ATOM      2  O   UNL     1      10.140   8.602  21.872  0.00  0.00    -0.390 OA
ATOM     26  H   UNL     1      10.029   7.640  21.963  0.00  0.00    +0.210 HD
ENDBRANCH   9   2
BRANCH   4  11
ATOM     11  C   UNL     1      14.241   6.851  20.232  0.00  0.00    +0.120 C 
BRANCH  11  13
ATOM      1  F   UNL     1      19.394   8.771  21.464  0.00  0.00    -0.205 F 
ATOM     13  C   UNL     1      15.617   7.364  20.561  0.00  0.00    -0.033 A 
ATOM     14  C   UNL     1      16.643   6.467  20.863  0.00  0.00    +0.008 A 
ATOM     15  C   UNL     1      15.868   8.736  20.565  0.00  0.00    +0.008 A 
ATOM     17  C   UNL     1      17.918   6.942  21.168  0.00  0.00    +0.038 A 
ATOM     18  C   UNL     1      17.143   9.211  20.870  0.00  0.00    +0.038 A 
ATOM     20  C   UNL     1      18.169   8.314  21.172  0.00  0.00    +0.123 A 
ENDBRANCH  11  13
ENDBRANCH   4  11
TORSDOF 5
ENDMDL
MODEL 4
REMARK VINA RESULT:      -6.7     25.267     28.306
REMARK  Name = 26743556
REMARK  5 active torsions:
REMARK  status: ('A' for Active; 'I' for Inactive)
REMARK    1  A    between atoms: O_2  and  C_9
REMARK    2  A    between atoms: N_4  and  C_11
REMARK    3  A    between atoms: C_7  and  C_12
REMARK    4  A    between atoms: C_11  and  C_13
REMARK    5  A    between atoms: C_16  and  C_19
REMARK                            x       y       z     vdW  Elec       q    Type
REMARK                         _______ _______ _______ _____ _____    ______ ____
ROOT
ATOM      4  N   UNL     1      -3.190 -10.573  14.347  0.00  0.00    -0.285 NA
ATOM      7  C   UNL     1      -3.434 -11.293  15.614  0.00  0.00    +0.149 C 
ATOM      8  C   UNL     1      -2.232 -10.936  16.508  0.00  0.00    +0.061 C 
ATOM      9  C   UNL     1      -1.346 -10.050  15.641  0.00  0.00    +0.130 C 
ATOM     10  C   UNL     1      -1.740 -10.428  14.226  0.00  0.00    +0.116 C 
ENDROOT
BRANCH   7  12
ATOM      3  O   UNL     1      -5.290  -9.727  15.892  0.00  0.00    -0.336 OA
ATOM      5  N   UNL     1      -5.490 -11.605  17.097  0.00  0.00    -0.190 NA
ATOM      6  N   UNL     1      -6.497  -9.614  16.593  0.00  0.00    -0.056 NA
ATOM     12  C   UNL     1      -4.761 -10.928  16.246  0.00  0.00    +0.245 A 
ATOM     16  C   UNL     1      -6.543 -10.759  17.282  0.00  0.00    +0.202 A 
BRANCH  16  19
ATOM     19  C   UNL     1      -7.631 -11.088  18.159  0.00  0.00    +0.022 A 
ATOM     21  C   UNL     1      -7.550 -12.218  18.972  0.00  0.00    +0.012 A 
ATOM     22  C   UNL     1      -8.766 -10.279  18.198  0.00  0.00    +0.012 A 
ATOM     23  C   UNL     1      -8.606 -12.539  19.825  0.00  0.00    +0.001 A 
ATOM     24  C   UNL     1      -9.822 -10.601  19.050  0.00  0.00    +0.001 A 
ATOM     25  C   UNL     1      -9.741 -11.730  19.864  0.00  0.00    +0.000 A 
ENDBRANCH  16  19
ENDBRANCH   7  12
BRANCH   9   2
ATOM      2  O   UNL     1       0.022 -10.310  15.892  0.00  0.00    -0.390 OA
ATOM     26  H   UNL     1       0.078 -11.165  16.352  0.00  0.00    +0.210 HD
ENDBRANCH   9   2
BRANCH   4  11
ATOM     11  C   UNL     1      -3.773 -11.236  13.189  0.00  0.00    +0.120 C 
BRANCH  11  13
ATOM      1  F   UNL     1      -5.633  -7.534   9.370  0.00  0.00    -0.205 F 
ATOM     13  C   UNL     1      -4.270 -10.247  12.169  0.00  0.00    -0.033 A 
ATOM     14  C   UNL     1      -5.525  -9.656  12.322  0.00  0.00    +0.008 A 
ATOM     15  C   UNL     1      -3.476  -9.921  11.069  0.00  0.00    +0.008 A 
ATOM     17  C   UNL     1      -5.985  -8.740  11.377  0.00  0.00    +0.038 A 
ATOM     18  C   UNL     1      -3.937  -9.005  10.123  0.00  0.00    +0.038 A 
ATOM     20  C   UNL     1      -5.192  -8.415  10.277  0.00  0.00    +0.123 A 
ENDBRANCH  11  13
ENDBRANCH   4  11
TORSDOF 5
ENDMDL
MODEL 5
REMARK VINA RESULT:      -6.6     25.311     28.218
REMARK  Name = 26743556
REMARK  5 active torsions:
REMARK  status: ('A' for Active; 'I' for Inactive)
REMARK    1  A    between atoms: O_2  and  C_9
REMARK    2  A    between atoms: N_4  and  C_11
REMARK    3  A    between atoms: C_7  and  C_12
REMARK    4  A    between atoms: C_11  and  C_13
REMARK    5  A    between atoms: C_16  and  C_19
REMARK                            x       y       z     vdW  Elec       q    Type
REMARK                         _______ _______ _______ _____ _____    ______ ____
ROOT
ATOM      4  N   UNL     1      -3.128 -10.571  14.117  0.00  0.00    -0.285 NA
ATOM      7  C   UNL     1      -3.469 -11.337  15.334  0.00  0.00    +0.149 C 
ATOM      8  C   UNL     1      -2.374 -10.968  16.351  0.00  0.00    +0.061 C 
ATOM      9  C   UNL     1      -1.439 -10.026  15.601  0.00  0.00    +0.130 C 
ATOM     10  C   UNL     1      -1.680 -10.374  14.144  0.00  0.00    +0.116 C 
ENDROOT
BRANCH   7  12
ATOM      3  O   UNL     1      -5.317 -11.812  16.860  0.00  0.00    -0.336 OA
ATOM      5  N   UNL     1      -5.715 -10.128  15.437  0.00  0.00    -0.190 NA
ATOM      6  N   UNL     1      -6.609 -11.353  17.151  0.00  0.00    -0.056 NA
ATOM     12  C   UNL     1      -4.864 -11.037  15.841  0.00  0.00    +0.245 A 
ATOM     16  C   UNL     1      -6.771 -10.361  16.269  0.00  0.00    +0.202 A 
BRANCH  16  19
ATOM     19  C   UNL     1      -7.974  -9.582  16.198  0.00  0.00    +0.022 A 
ATOM     21  C   UNL     1      -8.674  -9.493  14.994  0.00  0.00    +0.012 A 
ATOM     22  C   UNL     1      -8.444  -8.917  17.330  0.00  0.00    +0.012 A 
ATOM     23  C   UNL     1      -9.843  -8.735  14.923  0.00  0.00    +0.001 A 
ATOM     24  C   UNL     1      -9.613  -8.160  17.258  0.00  0.00    +0.001 A 
ATOM     25  C   UNL     1     -10.313  -8.070  16.055  0.00  0.00    +0.000 A 
ENDBRANCH  16  19
ENDBRANCH   7  12
BRANCH   9   2
ATOM      2  O   UNL     1      -0.094 -10.247  15.979  0.00  0.00    -0.390 OA
ATOM     26  H   UNL     1       0.394  -9.422  15.819  0.00  0.00    +0.210 HD
ENDBRANCH   9   2
BRANCH   4  11
ATOM     11  C   UNL     1      -3.571 -11.218  12.889  0.00  0.00    +0.120 C 
BRANCH  11  13
ATOM      1  F   UNL     1      -5.748  -7.519   9.239  0.00  0.00    -0.205 F 
ATOM     13  C   UNL     1      -4.152 -10.230  11.914  0.00  0.00    -0.033 A 
ATOM     14  C   UNL     1      -5.441  -9.733  12.109  0.00  0.00    +0.008 A 
ATOM     15  C   UNL     1      -3.403  -9.811  10.814  0.00  0.00    +0.008 A 
ATOM     17  C   UNL     1      -5.980  -8.818  11.206  0.00  0.00    +0.038 A 
ATOM     18  C   UNL     1      -3.942  -8.896   9.911  0.00  0.00    +0.038 A 
ATOM     20  C   UNL     1      -5.231  -8.399  10.106  0.00  0.00    +0.123 A 
ENDBRANCH  11  13
ENDBRANCH   4  11
TORSDOF 5
ENDMDL
MODEL 6
REMARK VINA RESULT:      -6.5      4.045      6.904
REMARK  Name = 26743556
REMARK  5 active torsions:
REMARK  status: ('A' for Active; 'I' for Inactive)
REMARK    1  A    between atoms: O_2  and  C_9
REMARK    2  A    between atoms: N_4  and  C_11
REMARK    3  A    between atoms: C_7  and  C_12
REMARK    4  A    between atoms: C_11  and  C_13
REMARK    5  A    between atoms: C_16  and  C_19
REMARK                            x       y       z     vdW  Elec       q    Type
REMARK                         _______ _______ _______ _____ _____    ______ ____
ROOT
ATOM      4  N   UNL     1      13.163   8.105  20.422  0.00  0.00    -0.285 NA
ATOM      7  C   UNL     1      11.841   8.742  20.251  0.00  0.00    +0.149 C 
ATOM      8  C   UNL     1      10.839   7.735  20.844  0.00  0.00    +0.061 C 
ATOM      9  C   UNL     1      11.687   6.546  21.280  0.00  0.00    +0.130 C 
ATOM     10  C   UNL     1      12.931   6.662  20.421  0.00  0.00    +0.116 C 
ENDROOT
BRANCH   7  12
ATOM      3  O   UNL     1      12.252  11.151  20.196  0.00  0.00    -0.336 OA
ATOM      5  N   UNL     1      11.281  10.432  22.082  0.00  0.00    -0.190 NA
ATOM      6  N   UNL     1      12.071  12.285  20.997  0.00  0.00    -0.056 NA
ATOM     12  C   UNL     1      11.760  10.104  20.909  0.00  0.00    +0.245 A 
ATOM     16  C   UNL     1      11.494  11.779  22.092  0.00  0.00    +0.202 A 
BRANCH  16  19
ATOM     19  C   UNL     1      11.116  12.595  23.210  0.00  0.00    +0.022 A 
ATOM     21  C   UNL     1      11.132  12.059  24.498  0.00  0.00    +0.012 A 
ATOM     22  C   UNL     1      10.733  13.920  23.011  0.00  0.00    +0.012 A 
ATOM     23  C   UNL     1      10.764  12.850  25.587  0.00  0.00    +0.001 A 
ATOM     24  C   UNL     1      10.365  14.711  24.099  0.00  0.00    +0.001 A 
ATOM     25  C   UNL     1      10.382  14.176  25.387  0.00  0.00    +0.000 A 
ENDBRANCH  16  19
ENDBRANCH   7  12
BRANCH   9   2
ATOM      2  O   UNL     1      11.002   5.330  21.051  0.00  0.00    -0.390 OA
ATOM     26  H   UNL     1      10.913   4.878  21.907  0.00  0.00    +0.210 HD
ENDBRANCH   9   2
BRANCH   4  11
ATOM     11  C   UNL     1      14.129   8.507  19.407  0.00  0.00    +0.120 C 
BRANCH  11  13
ATOM      1  F   UNL     1      18.728  10.827  21.691  0.00  0.00    -0.205 F 
ATOM     13  C   UNL     1      15.357   9.127  20.017  0.00  0.00    -0.033 A 
ATOM     14  C   UNL     1      15.670  10.461  19.754  0.00  0.00    +0.008 A 
ATOM     15  C   UNL     1      16.184   8.367  20.845  0.00  0.00    +0.008 A 
ATOM     17  C   UNL     1      16.808  11.035  20.319  0.00  0.00    +0.038 A 
ATOM     18  C   UNL     1      17.322   8.941  21.410  0.00  0.00    +0.038 A 
ATOM     20  C   UNL     1      17.635  10.275  21.147  0.00  0.00    +0.123 A 
ENDBRANCH  11  13
ENDBRANCH   4  11
TORSDOF 5
ENDMDL
MODEL 7
REMARK VINA RESULT:      -6.4     26.010     27.768
REMARK  Name = 26743556
REMARK  5 active torsions:
REMARK  status: ('A' for Active; 'I' for Inactive)
REMARK    1  A    between atoms: O_2  and  C_9
REMARK    2  A    between atoms: N_4  and  C_11
REMARK    3  A    between atoms: C_7  and  C_12
REMARK    4  A    between atoms: C_11  and  C_13
REMARK    5  A    between atoms: C_16  and  C_19
REMARK                            x       y       z     vdW  Elec       q    Type
REMARK                         _______ _______ _______ _____ _____    ______ ____
ROOT
ATOM      4  N   UNL     1     -11.136   9.736  17.334  0.00  0.00    -0.285 NA
ATOM      7  C   UNL     1     -10.487  10.600  18.342  0.00  0.00    +0.149 C 
ATOM      8  C   UNL     1     -10.111  11.883  17.578  0.00  0.00    +0.061 C 
ATOM      9  C   UNL     1     -10.546  11.628  16.141  0.00  0.00    +0.130 C 
ATOM     10  C   UNL     1     -10.571  10.115  16.040  0.00  0.00    +0.116 C 
ENDROOT
BRANCH   7  12
ATOM      3  O   UNL     1     -12.473  11.640  19.314  0.00  0.00    -0.336 OA
ATOM      5  N   UNL     1     -11.247  10.468  20.777  0.00  0.00    -0.190 NA
ATOM      6  N   UNL     1     -13.129  11.749  20.547  0.00  0.00    -0.056 NA
ATOM     12  C   UNL     1     -11.377  10.870  19.538  0.00  0.00    +0.245 A 
ATOM     16  C   UNL     1     -12.344  11.033  21.358  0.00  0.00    +0.202 A 
BRANCH  16  19
ATOM     19  C   UNL     1     -12.632  10.860  22.754  0.00  0.00    +0.022 A 
ATOM     21  C   UNL     1     -11.787  11.421  23.712  0.00  0.00    +0.012 A 
ATOM     22  C   UNL     1     -13.753  10.132  23.151  0.00  0.00    +0.012 A 
ATOM     23  C   UNL     1     -12.065  11.253  25.069  0.00  0.00    +0.001 A 
ATOM     24  C   UNL     1     -14.030   9.964  24.507  0.00  0.00    +0.001 A 
ATOM     25  C   UNL     1     -13.187  10.525  25.466  0.00  0.00    +0.000 A 
ENDBRANCH  16  19
ENDBRANCH   7  12
BRANCH   9   2
ATOM      2  O   UNL     1      -9.628  12.200  15.230  0.00  0.00    -0.390 OA
ATOM     26  H   UNL     1      -8.733  11.976  15.536  0.00  0.00    +0.210 HD
ENDBRANCH   9   2
BRANCH   4  11
ATOM     11  C   UNL     1     -10.975   8.314  17.608  0.00  0.00    +0.120 C 
BRANCH  11  13
ATOM      1  F   UNL     1     -14.351   6.590  21.777  0.00  0.00    -0.205 F 
ATOM     13  C   UNL     1     -11.877   7.854  18.721  0.00  0.00    -0.033 A 
ATOM     14  C   UNL     1     -13.255   8.057  18.634  0.00  0.00    +0.008 A 
ATOM     15  C   UNL     1     -11.336   7.224  19.842  0.00  0.00    +0.008 A 
ATOM     17  C   UNL     1     -14.090   7.631  19.665  0.00  0.00    +0.038 A 
ATOM     18  C   UNL     1     -12.171   6.797  20.874  0.00  0.00    +0.038 A 
ATOM     20  C   UNL     1     -13.549   7.001  20.786  0.00  0.00    +0.123 A 
ENDBRANCH  11  13
ENDBRANCH   4  11
TORSDOF 5
ENDMDL
MODEL 8
REMARK VINA RESULT:      -6.2     26.563     28.748
REMARK  Name = 26743556
REMARK  5 active torsions:
REMARK  status: ('A' for Active; 'I' for Inactive)
REMARK    1  A    between atoms: O_2  and  C_9
REMARK    2  A    between atoms: N_4  and  C_11
REMARK    3  A    between atoms: C_7  and  C_12
REMARK    4  A    between atoms: C_11  and  C_13
REMARK    5  A    between atoms: C_16  and  C_19
REMARK                            x       y       z     vdW  Elec       q    Type
REMARK                         _______ _______ _______ _____ _____    ______ ____
ROOT
ATOM      4  N   UNL     1      -7.223 -10.728  17.493  0.00  0.00    -0.285 NA
ATOM      7  C   UNL     1      -5.860 -11.079  17.941  0.00  0.00    +0.149 C 
ATOM      8  C   UNL     1      -5.987 -12.505  18.508  0.00  0.00    +0.061 C 
ATOM      9  C   UNL     1      -7.465 -12.851  18.378  0.00  0.00    +0.130 C 
ATOM     10  C   UNL     1      -8.145 -11.496  18.329  0.00  0.00    +0.116 C 
ENDROOT
BRANCH   7  12
ATOM      3  O   UNL     1      -3.538 -11.158  17.184  0.00  0.00    -0.336 OA
ATOM      5  N   UNL     1      -5.017 -10.745  15.554  0.00  0.00    -0.190 NA
ATOM      6  N   UNL     1      -2.792 -11.023  16.006  0.00  0.00    -0.056 NA
ATOM     12  C   UNL     1      -4.837 -10.981  16.829  0.00  0.00    +0.245 A 
ATOM     16  C   UNL     1      -3.735 -10.780  15.090  0.00  0.00    +0.202 A 
BRANCH  16  19
ATOM     19  C   UNL     1      -3.428 -10.570  13.705  0.00  0.00    +0.022 A 
ATOM     21  C   UNL     1      -2.098 -10.467  13.295  0.00  0.00    +0.012 A 
ATOM     22  C   UNL     1      -4.456 -10.470  12.768  0.00  0.00    +0.012 A 
ATOM     23  C   UNL     1      -1.798 -10.263  11.948  0.00  0.00    +0.001 A 
ATOM     24  C   UNL     1      -4.155 -10.267  11.422  0.00  0.00    +0.001 A 
ATOM     25  C   UNL     1      -2.827 -10.164  11.012  0.00  0.00    +0.000 A 
ENDBRANCH  16  19
ENDBRANCH   7  12
BRANCH   9   2
ATOM      2  O   UNL     1      -7.901 -13.617  19.484  0.00  0.00    -0.390 OA
ATOM     26  H   UNL     1      -8.156 -14.494  19.150  0.00  0.00    +0.210 HD
ENDBRANCH   9   2
BRANCH   4  11
ATOM     11  C   UNL     1      -7.495  -9.297  17.549  0.00  0.00    +0.120 C 
BRANCH  11  13
ATOM      1  F   UNL     1     -11.958  -7.888  14.410  0.00  0.00    -0.205 F 
ATOM     13  C   UNL     1      -8.687  -8.921  16.710  0.00  0.00    -0.033 A 
ATOM     14  C   UNL     1      -8.785  -9.372  15.394  0.00  0.00    +0.008 A 
ATOM     15  C   UNL     1      -9.694  -8.120  17.249  0.00  0.00    +0.008 A 
ATOM     17  C   UNL     1      -9.889  -9.023  14.617  0.00  0.00    +0.038 A 
ATOM     18  C   UNL     1     -10.798  -7.771  16.472  0.00  0.00    +0.038 A 
ATOM     20  C   UNL     1     -10.896  -8.222  15.156  0.00  0.00    +0.123 A 
ENDBRANCH  11  13
ENDBRANCH   4  11
TORSDOF 5
ENDMDL
MODEL 9
REMARK VINA RESULT:      -6.2     17.192     20.396
REMARK  Name = 26743556
REMARK  5 active torsions:
REMARK  status: ('A' for Active; 'I' for Inactive)
REMARK    1  A    between atoms: O_2  and  C_9
REMARK    2  A    between atoms: N_4  and  C_11
REMARK    3  A    between atoms: C_7  and  C_12
REMARK    4  A    between atoms: C_11  and  C_13
REMARK    5  A    between atoms: C_16  and  C_19
REMARK                            x       y       z     vdW  Elec       q    Type
REMARK                         _______ _______ _______ _____ _____    ______ ____
ROOT
ATOM      4  N   UNL     1      13.314   4.065  -0.198  0.00  0.00    -0.285 NA
ATOM      7  C   UNL     1      13.471   3.991   1.269  0.00  0.00    +0.149 C 
ATOM      8  C   UNL     1      14.711   4.851   1.576  0.00  0.00    +0.061 C 
ATOM      9  C   UNL     1      15.208   5.327   0.216  0.00  0.00    +0.130 C 
ATOM     10  C   UNL     1      14.649   4.296  -0.747  0.00  0.00    +0.116 C 
ENDROOT
BRANCH   7  12
ATOM      3  O   UNL     1      11.579   3.521   2.742  0.00  0.00    -0.336 OA
ATOM      5  N   UNL     1      11.697   5.650   2.057  0.00  0.00    -0.190 NA
ATOM      6  N   UNL     1      10.490   4.179   3.327  0.00  0.00    -0.056 NA
ATOM     12  C   UNL     1      12.237   4.459   2.012  0.00  0.00    +0.245 A 
ATOM     16  C   UNL     1      10.628   5.430   2.875  0.00  0.00    +0.202 A 
BRANCH  16  19
ATOM     19  C   UNL     1       9.716   6.481   3.225  0.00  0.00    +0.022 A 
ATOM     21  C   UNL     1       9.400   7.467   2.290  0.00  0.00    +0.012 A 
ATOM     22  C   UNL     1       9.147   6.517   4.497  0.00  0.00    +0.012 A 
ATOM     23  C   UNL     1       8.514   8.490   2.629  0.00  0.00    +0.001 A 
ATOM     24  C   UNL     1       8.261   7.540   4.835  0.00  0.00    +0.001 A 
ATOM     25  C   UNL     1       7.944   8.526   3.901  0.00  0.00    +0.000 A 
ENDBRANCH  16  19
ENDBRANCH   7  12
BRANCH   9   2
ATOM      2  O   UNL     1      16.621   5.365   0.183  0.00  0.00    -0.390 OA
ATOM     26  H   UNL     1      16.937   5.322   1.102  0.00  0.00    +0.210 HD
ENDBRANCH   9   2
BRANCH   4  11
ATOM     11  C   UNL     1      12.684   2.881  -0.768  0.00  0.00    +0.120 C 
BRANCH  11  13
ATOM      1  F   UNL     1       8.458   4.224  -4.244  0.00  0.00    -0.205 F 
ATOM     13  C   UNL     1      11.555   3.240  -1.697  0.00  0.00    -0.033 A 
ATOM     14  C   UNL     1      11.156   2.344  -2.689  0.00  0.00    +0.008 A 
ATOM     15  C   UNL     1      10.908   4.469  -1.566  0.00  0.00    +0.008 A 
ATOM     17  C   UNL     1      10.110   2.676  -3.549  0.00  0.00    +0.038 A 
ATOM     18  C   UNL     1       9.862   4.801  -2.426  0.00  0.00    +0.038 A 
ATOM     20  C   UNL     1       9.463   3.905  -3.418  0.00  0.00    +0.123 A 
ENDBRANCH  11  13
ENDBRANCH   4  11
TORSDOF 5
ENDMDL
MODEL 10
REMARK VINA RESULT:      -6.2     31.549     32.641
REMARK  Name = 26743556
REMARK  5 active torsions:
REMARK  status: ('A' for Active; 'I' for Inactive)
REMARK    1  A    between atoms: O_2  and  C_9
REMARK    2  A    between atoms: N_4  and  C_11
REMARK    3  A    between atoms: C_7  and  C_12
REMARK    4  A    between atoms: C_11  and  C_13
REMARK    5  A    between atoms: C_16  and  C_19
REMARK                            x       y       z     vdW  Elec       q    Type
REMARK                         _______ _______ _______ _____ _____    ______ ____
ROOT
ATOM      4  N   UNL     1     -15.394   1.592  29.554  0.00  0.00    -0.285 NA
ATOM      7  C   UNL     1     -15.396   1.512  31.030  0.00  0.00    +0.149 C 
ATOM      8  C   UNL     1     -14.146   0.684  31.381  0.00  0.00    +0.061 C 
ATOM      9  C   UNL     1     -13.534   0.305  30.038  0.00  0.00    +0.130 C 
ATOM     10  C   UNL     1     -14.703   0.396  29.076  0.00  0.00    +0.116 C 
ENDROOT
BRANCH   7  12
ATOM      3  O   UNL     1     -16.581   3.543  31.695  0.00  0.00    -0.336 OA
ATOM      5  N   UNL     1     -14.413   3.524  32.257  0.00  0.00    -0.190 NA
ATOM      6  N   UNL     1     -16.336   4.759  32.346  0.00  0.00    -0.056 NA
ATOM     12  C   UNL     1     -15.397   2.876  31.687  0.00  0.00    +0.245 A 
ATOM     16  C   UNL     1     -15.036   4.673  32.645  0.00  0.00    +0.202 A 
BRANCH  16  19
ATOM     19  C   UNL     1     -14.333   5.718  33.334  0.00  0.00    +0.022 A 
ATOM     21  C   UNL     1     -13.835   6.808  32.621  0.00  0.00    +0.012 A 
ATOM     22  C   UNL     1     -14.149   5.643  34.714  0.00  0.00    +0.012 A 
ATOM     23  C   UNL     1     -13.151   7.824  33.290  0.00  0.00    +0.001 A 
ATOM     24  C   UNL     1     -13.465   6.658  35.382  0.00  0.00    +0.001 A 
ATOM     25  C   UNL     1     -12.967   7.748  34.670  0.00  0.00    +0.000 A 
ENDBRANCH  16  19
ENDBRANCH   7  12
BRANCH   9   2
ATOM      2  O   UNL     1     -12.992  -1.000  30.084  0.00  0.00    -0.390 OA
ATOM     26  H   UNL     1     -13.451  -1.532  29.411  0.00  0.00    +0.210 HD
ENDBRANCH   9   2
BRANCH   4  11
ATOM     11  C   UNL     1     -16.729   1.719  28.985  0.00  0.00    +0.120 C 
BRANCH  11  13
ATOM      1  F   UNL     1     -16.556   2.744  23.446  0.00  0.00    -0.205 F 
ATOM     13  C   UNL     1     -16.683   1.993  27.505  0.00  0.00    -0.033 A 
ATOM     14  C   UNL     1     -17.205   1.063  26.606  0.00  0.00    +0.008 A 
ATOM     15  C   UNL     1     -16.117   3.177  27.032  0.00  0.00    +0.008 A 
ATOM     17  C   UNL     1     -17.162   1.316  25.236  0.00  0.00    +0.038 A 
ATOM     18  C   UNL     1     -16.073   3.430  25.662  0.00  0.00    +0.038 A 
ATOM     20  C   UNL     1     -16.596   2.500  24.763  0.00  0.00    +0.123 A 
ENDBRANCH  11  13
ENDBRANCH   4  11
TORSDOF 5
ENDMDL
