MODEL 1
REMARK VINA RESULT:      -6.0      0.000      0.000
REMARK  Name = 38028556
REMARK  13 active torsions:
REMARK  status: ('A' for Active; 'I' for Inactive)
REMARK    1  A    between atoms: O_3  and  C_22
REMARK    2  A    between atoms: O_3  and  C_26
REMARK    3  A    between atoms: N_4  and  C_14
REMARK    4  A    between atoms: N_5  and  C_21
REMARK    5  A    between atoms: C_7  and  C_11
REMARK    6  A    between atoms: C_8  and  C_14
REMARK    7  A    between atoms: C_10  and  C_15
REMARK    8  A    between atoms: C_11  and  C_16
REMARK    9  A    between atoms: C_11  and  C_17
REMARK   10  A    between atoms: C_12  and  C_18
REMARK   11  A    between atoms: C_15  and  C_19
REMARK   12  A    between atoms: C_20  and  C_22
REMARK   13  A    between atoms: C_21  and  C_23
REMARK                            x       y       z     vdW  Elec       q    Type
REMARK                         _______ _______ _______ _____ _____    ______ ____
ROOT
ATOM      7  C   UNL     1      -6.168 -10.597  15.495  0.00  0.00    +0.000 C 
ATOM      8  C   UNL     1      -6.819 -10.642  16.900  0.00  0.00    +0.032 C 
ATOM      9  C   UNL     1      -5.167 -11.751  15.330  0.00  0.00    +0.012 C 
ATOM     10  C   UNL     1      -4.048 -11.708  16.389  0.00  0.00    +0.023 C 
ATOM     12  C   UNL     1      -4.600 -11.484  17.782  0.00  0.00    -0.073 C 
ATOM     13  C   UNL     1      -5.846 -11.021  17.991  0.00  0.00    -0.022 C 
ATOM     18  C   UNL     1      -3.704 -11.851  18.933  0.00  0.00    +0.039 C 
ENDROOT
BRANCH   7  11
ATOM     11  C   UNL     1      -7.216 -10.657  14.380  0.00  0.00    -0.013 C 
ATOM     16  C   UNL     1      -6.539 -10.658  13.013  0.00  0.00    +0.007 C 
ATOM     17  C   UNL     1      -8.100 -11.888  14.546  0.00  0.00    +0.007 C 
ENDBRANCH   7  11
BRANCH   8  14
ATOM     14  C   UNL     1      -7.481  -9.304  17.246  0.00  0.00    +0.112 C 
BRANCH  14   4
ATOM      2  O   UNL     1     -10.244  -9.939  16.675  0.00  0.00    -0.273 OA
ATOM      4  N   UNL     1      -8.536  -9.490  18.192  0.00  0.00    -0.313 N 
ATOM     20  C   UNL     1      -9.847  -9.796  17.829  0.00  0.00    +0.239 C 
ATOM     29  H   UNL     1      -8.306  -9.452  19.180  0.00  0.00    +0.149 HD
BRANCH  20  22
ATOM     22  C   UNL     1     -10.756  -9.939  19.031  0.00  0.00    +0.255 C 
BRANCH  22   3
ATOM      3  O   UNL     1     -10.070 -10.544  20.107  0.00  0.00    -0.374 OA
ATOM     26  C   UNL     1     -10.295 -11.950  20.157  0.00  0.00    +0.194 C 
ENDBRANCH  22   3
ENDBRANCH  20  22
ENDBRANCH  14   4
ENDBRANCH   8  14
BRANCH  10  15
ATOM     15  C   UNL     1      -2.998 -10.649  16.039  0.00  0.00    +0.103 C 
BRANCH  15  19
ATOM      1  O   UNL     1      -1.400 -12.017  14.843  0.00  0.00    -0.276 OA
ATOM      5  N   UNL     1      -2.366 -10.190  13.779  0.00  0.00    -0.311 N 
ATOM     19  C   UNL     1      -2.159 -11.052  14.847  0.00  0.00    +0.214 C 
ATOM     30  H   UNL     1      -3.020  -9.418  13.878  0.00  0.00    +0.149 HD
BRANCH   5  21
ATOM     21  C   UNL     1      -1.696 -10.334  12.508  0.00  0.00    +0.141 C 
BRANCH  21  23
ATOM      6  N   UNL     1      -4.207 -11.754  10.063  0.00  0.00    -0.263 NA
ATOM     23  C   UNL     1      -2.667 -10.421  11.366  0.00  0.00    -0.012 A 
ATOM     24  C   UNL     1      -2.934  -9.316  10.566  0.00  0.00    +0.008 A 
ATOM     25  C   UNL     1      -3.324 -11.606  11.076  0.00  0.00    +0.115 A 
ATOM     27  C   UNL     1      -3.837  -9.429   9.513  0.00  0.00    +0.020 A 
ATOM     28  C   UNL     1      -4.441 -10.658   9.306  0.00  0.00    +0.111 A 
ENDBRANCH  21  23
ENDBRANCH   5  21
ENDBRANCH  15  19
ENDBRANCH  10  15
TORSDOF 9
ENDMDL
MODEL 2
REMARK VINA RESULT:      -5.8      3.604      7.976
REMARK  Name = 38028556
REMARK  13 active torsions:
REMARK  status: ('A' for Active; 'I' for Inactive)
REMARK    1  A    between atoms: O_3  and  C_22
REMARK    2  A    between atoms: O_3  and  C_26
REMARK    3  A    between atoms: N_4  and  C_14
REMARK    4  A    between atoms: N_5  and  C_21
REMARK    5  A    between atoms: C_7  and  C_11
REMARK    6  A    between atoms: C_8  and  C_14
REMARK    7  A    between atoms: C_10  and  C_15
REMARK    8  A    between atoms: C_11  and  C_16
REMARK    9  A    between atoms: C_11  and  C_17
REMARK   10  A    between atoms: C_12  and  C_18
REMARK   11  A    between atoms: C_15  and  C_19
REMARK   12  A    between atoms: C_20  and  C_22
REMARK   13  A    between atoms: C_21  and  C_23
REMARK                            x       y       z     vdW  Elec       q    Type
REMARK                         _______ _______ _______ _____ _____    ______ ____
ROOT
ATOM      7  C   UNL     1      -5.383 -10.548  10.648  0.00  0.00    +0.000 C 
ATOM      8  C   UNL     1      -4.800  -9.639   9.536  0.00  0.00    +0.032 C 
ATOM      9  C   UNL     1      -4.855 -10.115  12.024  0.00  0.00    +0.012 C 
ATOM     10  C   UNL     1      -3.318 -10.171  12.103  0.00  0.00    +0.023 C 
ATOM     12  C   UNL     1      -2.668  -9.525  10.896  0.00  0.00    -0.073 C 
ATOM     13  C   UNL     1      -3.351  -9.283   9.763  0.00  0.00    -0.022 C 
ATOM     18  C   UNL     1      -1.227  -9.120  11.038  0.00  0.00    +0.039 C 
ENDROOT
BRANCH   7  11
ATOM     11  C   UNL     1      -6.914 -10.532  10.651  0.00  0.00    -0.013 C 
ATOM     16  C   UNL     1      -7.451 -11.292  11.860  0.00  0.00    +0.007 C 
ATOM     17  C   UNL     1      -7.432  -9.098  10.639  0.00  0.00    +0.007 C 
ENDBRANCH   7  11
BRANCH   8  14
ATOM     14  C   UNL     1      -4.958 -10.285   8.155  0.00  0.00    +0.112 C 
BRANCH  14   4
ATOM      2  O   UNL     1      -7.674 -10.504   7.186  0.00  0.00    -0.273 OA
ATOM      4  N   UNL     1      -5.626  -9.399   7.255  0.00  0.00    -0.313 N 
ATOM     20  C   UNL     1      -6.945  -9.579   6.837  0.00  0.00    +0.239 C 
ATOM     29  H   UNL     1      -5.133  -8.567   6.947  0.00  0.00    +0.149 HD
BRANCH  20  22
ATOM     22  C   UNL     1      -7.399  -8.493   5.885  0.00  0.00    +0.255 C 
BRANCH  22   3
ATOM      3  O   UNL     1      -7.922  -7.392   6.598  0.00  0.00    -0.374 OA
ATOM     26  C   UNL     1      -9.267  -7.109   6.224  0.00  0.00    +0.194 C 
ENDBRANCH  22   3
ENDBRANCH  20  22
ENDBRANCH  14   4
ENDBRANCH   8  14
BRANCH  10  15
ATOM     15  C   UNL     1      -2.826 -11.611  12.285  0.00  0.00    +0.103 C 
BRANCH  15  19
ATOM      1  O   UNL     1      -2.603 -13.129  14.156  0.00  0.00    -0.276 OA
ATOM      5  N   UNL     1      -2.588 -10.836  14.534  0.00  0.00    -0.311 N 
ATOM     19  C   UNL     1      -2.661 -11.974  13.744  0.00  0.00    +0.214 C 
ATOM     30  H   UNL     1      -2.642  -9.919  14.099  0.00  0.00    +0.149 HD
BRANCH   5  21
ATOM     21  C   UNL     1      -2.429 -10.881  15.970  0.00  0.00    +0.141 C 
BRANCH  21  23
ATOM      6  N   UNL     1      -6.022  -9.972  16.720  0.00  0.00    -0.263 NA
ATOM     23  C   UNL     1      -3.746 -10.786  16.685  0.00  0.00    -0.012 A 
ATOM     24  C   UNL     1      -3.932 -11.385  17.926  0.00  0.00    +0.008 A 
ATOM     25  C   UNL     1      -4.812 -10.098  16.130  0.00  0.00    +0.115 A 
ATOM     27  C   UNL     1      -5.162 -11.277  18.565  0.00  0.00    +0.020 A 
ATOM     28  C   UNL     1      -6.165 -10.567  17.926  0.00  0.00    +0.111 A 
ENDBRANCH  21  23
ENDBRANCH   5  21
ENDBRANCH  15  19
ENDBRANCH  10  15
TORSDOF 9
ENDMDL
MODEL 3
REMARK VINA RESULT:      -5.8     28.312     30.951
REMARK  Name = 38028556
REMARK  13 active torsions:
REMARK  status: ('A' for Active; 'I' for Inactive)
REMARK    1  A    between atoms: O_3  and  C_22
REMARK    2  A    between atoms: O_3  and  C_26
REMARK    3  A    between atoms: N_4  and  C_14
REMARK    4  A    between atoms: N_5  and  C_21
REMARK    5  A    between atoms: C_7  and  C_11
REMARK    6  A    between atoms: C_8  and  C_14
REMARK    7  A    between atoms: C_10  and  C_15
REMARK    8  A    between atoms: C_11  and  C_16
REMARK    9  A    between atoms: C_11  and  C_17
REMARK   10  A    between atoms: C_12  and  C_18
REMARK   11  A    between atoms: C_15  and  C_19
REMARK   12  A    between atoms: C_20  and  C_22
REMARK   13  A    between atoms: C_21  and  C_23
REMARK                            x       y       z     vdW  Elec       q    Type
REMARK                         _______ _______ _______ _____ _____    ______ ____
ROOT
ATOM      7  C   UNL     1      17.580   7.707  21.251  0.00  0.00    +0.000 C 
ATOM      8  C   UNL     1      19.129   7.734  21.278  0.00  0.00    +0.032 C 
ATOM      9  C   UNL     1      17.039   8.872  20.408  0.00  0.00    +0.012 C 
ATOM     10  C   UNL     1      17.495  10.242  20.946  0.00  0.00    +0.023 C 
ATOM     12  C   UNL     1      18.979  10.261  21.252  0.00  0.00    -0.073 C 
ATOM     13  C   UNL     1      19.695   9.130  21.384  0.00  0.00    -0.022 C 
ATOM     18  C   UNL     1      19.631  11.611  21.358  0.00  0.00    +0.039 C 
ENDROOT
BRANCH   7  11
ATOM     11  C   UNL     1      17.044   6.380  20.707  0.00  0.00    -0.013 C 
ATOM     16  C   UNL     1      15.530   6.451  20.529  0.00  0.00    +0.007 C 
ATOM     17  C   UNL     1      17.727   6.029  19.390  0.00  0.00    +0.007 C 
ENDBRANCH   7  11
BRANCH   8  14
ATOM     14  C   UNL     1      19.677   6.872  22.421  0.00  0.00    +0.112 C 
BRANCH  14   4
ATOM      2  O   UNL     1      21.146   6.175  24.813  0.00  0.00    -0.273 OA
ATOM      4  N   UNL     1      19.770   7.631  23.628  0.00  0.00    -0.313 N 
ATOM     20  C   UNL     1      20.504   7.220  24.740  0.00  0.00    +0.239 C 
ATOM     29  H   UNL     1      19.322   8.543  23.657  0.00  0.00    +0.149 HD
BRANCH  20  22
ATOM     22  C   UNL     1      20.429   8.216  25.878  0.00  0.00    +0.255 C 
BRANCH  22   3
ATOM      3  O   UNL     1      19.797   7.641  27.002  0.00  0.00    -0.374 OA
ATOM     26  C   UNL     1      20.053   8.383  28.191  0.00  0.00    +0.194 C 
ENDBRANCH  22   3
ENDBRANCH  20  22
ENDBRANCH  14   4
ENDBRANCH   8  14
BRANCH  10  15
ATOM     15  C   UNL     1      16.676  10.653  22.175  0.00  0.00    +0.103 C 
BRANCH  15  19
ATOM      1  O   UNL     1      14.634   9.499  22.772  0.00  0.00    -0.276 OA
ATOM      5  N   UNL     1      14.638  10.957  20.962  0.00  0.00    -0.311 N 
ATOM     19  C   UNL     1      15.215  10.288  22.032  0.00  0.00    +0.214 C 
ATOM     30  H   UNL     1      15.202  11.595  20.407  0.00  0.00    +0.149 HD
BRANCH   5  21
ATOM     21  C   UNL     1      13.251  10.801  20.589  0.00  0.00    +0.141 C 
BRANCH  21  23
ATOM      6  N   UNL     1      11.746   7.668  19.102  0.00  0.00    -0.263 NA
ATOM     23  C   UNL     1      13.042   9.625  19.680  0.00  0.00    -0.012 A 
ATOM     24  C   UNL     1      13.897   9.384  18.611  0.00  0.00    +0.008 A 
ATOM     25  C   UNL     1      11.990   8.746  19.881  0.00  0.00    +0.115 A 
ATOM     27  C   UNL     1      13.678   8.285  17.787  0.00  0.00    +0.020 A 
ATOM     28  C   UNL     1      12.599   7.465  18.073  0.00  0.00    +0.111 A 
ENDBRANCH  21  23
ENDBRANCH   5  21
ENDBRANCH  15  19
ENDBRANCH  10  15
TORSDOF 9
ENDMDL
MODEL 4
REMARK VINA RESULT:      -5.8     28.414     31.617
REMARK  Name = 38028556
REMARK  13 active torsions:
REMARK  status: ('A' for Active; 'I' for Inactive)
REMARK    1  A    between atoms: O_3  and  C_22
REMARK    2  A    between atoms: O_3  and  C_26
REMARK    3  A    between atoms: N_4  and  C_14
REMARK    4  A    between atoms: N_5  and  C_21
REMARK    5  A    between atoms: C_7  and  C_11
REMARK    6  A    between atoms: C_8  and  C_14
REMARK    7  A    between atoms: C_10  and  C_15
REMARK    8  A    between atoms: C_11  and  C_16
REMARK    9  A    between atoms: C_11  and  C_17
REMARK   10  A    between atoms: C_12  and  C_18
REMARK   11  A    between atoms: C_15  and  C_19
REMARK   12  A    between atoms: C_20  and  C_22
REMARK   13  A    between atoms: C_21  and  C_23
REMARK                            x       y       z     vdW  Elec       q    Type
REMARK                         _______ _______ _______ _____ _____    ______ ____
ROOT
ATOM      7  C   UNL     1      21.039   6.557  22.167  0.00  0.00    +0.000 C 
ATOM      8  C   UNL     1      21.128   5.435  21.103  0.00  0.00    +0.032 C 
ATOM      9  C   UNL     1      19.606   6.669  22.710  0.00  0.00    +0.012 C 
ATOM     10  C   UNL     1      18.583   6.968  21.598  0.00  0.00    +0.023 C 
ATOM     12  C   UNL     1      18.782   6.070  20.393  0.00  0.00    -0.073 C 
ATOM     13  C   UNL     1      19.921   5.383  20.197  0.00  0.00    -0.022 C 
ATOM     18  C   UNL     1      17.624   5.944  19.443  0.00  0.00    +0.039 C 
ENDROOT
BRANCH   7  11
ATOM     11  C   UNL     1      22.015   6.323  23.324  0.00  0.00    -0.013 C 
ATOM     16  C   UNL     1      23.246   7.211  23.170  0.00  0.00    +0.007 C 
ATOM     17  C   UNL     1      21.327   6.580  24.661  0.00  0.00    +0.007 C 
ENDBRANCH   7  11
BRANCH   8  14
ATOM     14  C   UNL     1      22.398   5.575  20.257  0.00  0.00    +0.112 C 
BRANCH  14   4
ATOM      2  O   UNL     1      25.251   5.106  20.204  0.00  0.00    -0.273 OA
ATOM      4  N   UNL     1      23.063   4.317  20.129  0.00  0.00    -0.313 N 
ATOM     20  C   UNL     1      24.451   4.179  20.112  0.00  0.00    +0.239 C 
ATOM     29  H   UNL     1      22.495   3.475  20.104  0.00  0.00    +0.149 HD
BRANCH  20  22
ATOM     22  C   UNL     1      24.882   2.735  19.967  0.00  0.00    +0.255 C 
BRANCH  22   3
ATOM      3  O   UNL     1      23.919   1.868  20.528  0.00  0.00    -0.374 OA
ATOM     26  C   UNL     1      24.465   1.078  21.580  0.00  0.00    +0.194 C 
ENDBRANCH  22   3
ENDBRANCH  20  22
ENDBRANCH  14   4
ENDBRANCH   8  14
BRANCH  10  15
ATOM     15  C   UNL     1      18.624   8.445  21.193  0.00  0.00    +0.103 C 
BRANCH  15  19
ATOM      1  O   UNL     1      17.026  10.237  20.885  0.00  0.00    -0.276 OA
ATOM      5  N   UNL     1      16.318   8.212  21.780  0.00  0.00    -0.311 N 
ATOM     19  C   UNL     1      17.256   9.089  21.254  0.00  0.00    +0.214 C 
ATOM     30  H   UNL     1      16.604   7.277  22.055  0.00  0.00    +0.149 HD
BRANCH   5  21
ATOM     21  C   UNL     1      14.926   8.558  21.956  0.00  0.00    +0.141 C 
BRANCH  21  23
ATOM      6  N   UNL     1      12.035   6.921  20.152  0.00  0.00    -0.263 NA
ATOM     23  C   UNL     1      14.069   8.030  20.842  0.00  0.00    -0.012 A 
ATOM     24  C   UNL     1      14.471   8.135  19.516  0.00  0.00    +0.008 A 
ATOM     25  C   UNL     1      12.853   7.419  21.105  0.00  0.00    +0.115 A 
ATOM     27  C   UNL     1      13.656   7.634  18.506  0.00  0.00    +0.020 A 
ATOM     28  C   UNL     1      12.459   7.041  18.874  0.00  0.00    +0.111 A 
ENDBRANCH  21  23
ENDBRANCH   5  21
ENDBRANCH  15  19
ENDBRANCH  10  15
TORSDOF 9
ENDMDL
MODEL 5
REMARK VINA RESULT:      -5.7     26.947     29.545
REMARK  Name = 38028556
REMARK  13 active torsions:
REMARK  status: ('A' for Active; 'I' for Inactive)
REMARK    1  A    between atoms: O_3  and  C_22
REMARK    2  A    between atoms: O_3  and  C_26
REMARK    3  A    between atoms: N_4  and  C_14
REMARK    4  A    between atoms: N_5  and  C_21
REMARK    5  A    between atoms: C_7  and  C_11
REMARK    6  A    between atoms: C_8  and  C_14
REMARK    7  A    between atoms: C_10  and  C_15
REMARK    8  A    between atoms: C_11  and  C_16
REMARK    9  A    between atoms: C_11  and  C_17
REMARK   10  A    between atoms: C_12  and  C_18
REMARK   11  A    between atoms: C_15  and  C_19
REMARK   12  A    between atoms: C_20  and  C_22
REMARK   13  A    between atoms: C_21  and  C_23
REMARK                            x       y       z     vdW  Elec       q    Type
REMARK                         _______ _______ _______ _____ _____    ______ ____
ROOT
ATOM      7  C   UNL     1      12.427   8.785  21.031  0.00  0.00    +0.000 C 
ATOM      8  C   UNL     1      12.108   7.950  19.765  0.00  0.00    +0.032 C 
ATOM      9  C   UNL     1      12.219  10.282  20.752  0.00  0.00    +0.012 C 
ATOM     10  C   UNL     1      13.104  10.788  19.597  0.00  0.00    +0.023 C 
ATOM     12  C   UNL     1      13.049   9.862  18.399  0.00  0.00    -0.073 C 
ATOM     13  C   UNL     1      12.588   8.602  18.491  0.00  0.00    -0.022 C 
ATOM     18  C   UNL     1      13.492  10.433  17.080  0.00  0.00    +0.039 C 
ENDROOT
BRANCH   7  11
ATOM     11  C   UNL     1      11.571   8.357  22.226  0.00  0.00    -0.013 C 
ATOM     16  C   UNL     1      11.055   9.580  22.977  0.00  0.00    +0.007 C 
ATOM     17  C   UNL     1      10.413   7.479  21.764  0.00  0.00    +0.007 C 
ENDBRANCH   7  11
BRANCH   8  14
ATOM     14  C   UNL     1      12.696   6.539  19.871  0.00  0.00    +0.112 C 
BRANCH  14   4
ATOM      2  O   UNL     1      15.435   6.652  18.949  0.00  0.00    -0.273 OA
ATOM      4  N   UNL     1      13.877   6.542  20.675  0.00  0.00    -0.313 N 
ATOM     20  C   UNL     1      15.167   6.599  20.146  0.00  0.00    +0.239 C 
ATOM     29  H   UNL     1      13.770   6.558  21.685  0.00  0.00    +0.149 HD
BRANCH  20  22
ATOM     22  C   UNL     1      16.230   6.588  21.224  0.00  0.00    +0.255 C 
BRANCH  22   3
ATOM      3  O   UNL     1      16.595   7.906  21.577  0.00  0.00    -0.374 OA
ATOM     26  C   UNL     1      17.995   8.126  21.430  0.00  0.00    +0.194 C 
ENDBRANCH  22   3
ENDBRANCH  20  22
ENDBRANCH  14   4
ENDBRANCH   8  14
BRANCH  10  15
ATOM     15  C   UNL     1      14.549  10.999  20.060  0.00  0.00    +0.103 C 
BRANCH  15  19
ATOM      1  O   UNL     1      15.119  10.978  22.413  0.00  0.00    -0.276 OA
ATOM      5  N   UNL     1      14.047  12.832  21.510  0.00  0.00    -0.311 N 
ATOM     19  C   UNL     1      14.620  11.569  21.459  0.00  0.00    +0.214 C 
ATOM     30  H   UNL     1      13.661  13.242  20.664  0.00  0.00    +0.149 HD
BRANCH   5  21
ATOM     21  C   UNL     1      13.973  13.617  22.721  0.00  0.00    +0.141 C 
BRANCH  21  23
ATOM      6  N   UNL     1      12.049  12.109  25.606  0.00  0.00    -0.263 NA
ATOM     23  C   UNL     1      12.823  13.200  23.593  0.00  0.00    -0.012 A 
ATOM     24  C   UNL     1      11.512  13.490  23.236  0.00  0.00    +0.008 A 
ATOM     25  C   UNL     1      13.037  12.514  24.777  0.00  0.00    +0.115 A 
ATOM     27  C   UNL     1      10.467  13.089  24.062  0.00  0.00    +0.020 A 
ATOM     28  C   UNL     1      10.786  12.408  25.225  0.00  0.00    +0.111 A 
ENDBRANCH  21  23
ENDBRANCH   5  21
ENDBRANCH  15  19
ENDBRANCH  10  15
TORSDOF 9
ENDMDL
MODEL 6
REMARK VINA RESULT:      -5.6      2.616      8.462
REMARK  Name = 38028556
REMARK  13 active torsions:
REMARK  status: ('A' for Active; 'I' for Inactive)
REMARK    1  A    between atoms: O_3  and  C_22
REMARK    2  A    between atoms: O_3  and  C_26
REMARK    3  A    between atoms: N_4  and  C_14
REMARK    4  A    between atoms: N_5  and  C_21
REMARK    5  A    between atoms: C_7  and  C_11
REMARK    6  A    between atoms: C_8  and  C_14
REMARK    7  A    between atoms: C_10  and  C_15
REMARK    8  A    between atoms: C_11  and  C_16
REMARK    9  A    between atoms: C_11  and  C_17
REMARK   10  A    between atoms: C_12  and  C_18
REMARK   11  A    between atoms: C_15  and  C_19
REMARK   12  A    between atoms: C_20  and  C_22
REMARK   13  A    between atoms: C_21  and  C_23
REMARK                            x       y       z     vdW  Elec       q    Type
REMARK                         _______ _______ _______ _____ _____    ______ ____
ROOT
ATOM      7  C   UNL     1      -7.464 -10.166  16.740  0.00  0.00    +0.000 C 
ATOM      8  C   UNL     1      -5.999  -9.763  16.437  0.00  0.00    +0.032 C 
ATOM      9  C   UNL     1      -7.677 -10.319  18.254  0.00  0.00    +0.012 C 
ATOM     10  C   UNL     1      -6.742 -11.378  18.869  0.00  0.00    +0.023 C 
ATOM     12  C   UNL     1      -5.311 -11.206  18.400  0.00  0.00    -0.073 C 
ATOM     13  C   UNL     1      -4.998 -10.470  17.319  0.00  0.00    -0.022 C 
ATOM     18  C   UNL     1      -4.242 -11.863  19.230  0.00  0.00    +0.039 C 
ENDROOT
BRANCH   7  11
ATOM     11  C   UNL     1      -8.462  -9.149  16.177  0.00  0.00    -0.013 C 
ATOM     16  C   UNL     1      -9.406  -9.823  15.187  0.00  0.00    +0.007 C 
ATOM     17  C   UNL     1      -9.244  -8.490  17.307  0.00  0.00    +0.007 C 
ENDBRANCH   7  11
BRANCH   8  14
ATOM     14  C   UNL     1      -5.650 -10.012  14.966  0.00  0.00    +0.112 C 
BRANCH  14   4
ATOM      2  O   UNL     1      -4.184 -10.368  12.499  0.00  0.00    -0.273 OA
ATOM      4  N   UNL     1      -4.272 -10.363  14.825  0.00  0.00    -0.313 N 
ATOM     20  C   UNL     1      -3.641 -10.515  13.591  0.00  0.00    +0.239 C 
ATOM     29  H   UNL     1      -3.711 -10.453  15.667  0.00  0.00    +0.149 HD
BRANCH  20  22
ATOM     22  C   UNL     1      -2.181 -10.888  13.735  0.00  0.00    +0.255 C 
BRANCH  22   3
ATOM      3  O   UNL     1      -1.485  -9.906  14.474  0.00  0.00    -0.374 OA
ATOM     26  C   UNL     1      -1.024 -10.410  15.724  0.00  0.00    +0.194 C 
ENDBRANCH  22   3
ENDBRANCH  20  22
ENDBRANCH  14   4
ENDBRANCH   8  14
BRANCH  10  15
ATOM     15  C   UNL     1      -7.247 -12.795  18.580  0.00  0.00    +0.103 C 
BRANCH  15  19
ATOM      1  O   UNL     1      -8.375 -13.436  20.623  0.00  0.00    -0.276 OA
ATOM      5  N   UNL     1      -9.612 -13.126  18.680  0.00  0.00    -0.311 N 
ATOM     19  C   UNL     1      -8.445 -13.155  19.430  0.00  0.00    +0.214 C 
ATOM     30  H   UNL     1      -9.570 -12.878  17.695  0.00  0.00    +0.149 HD
BRANCH   5  21
ATOM     21  C   UNL     1     -10.913 -13.428  19.232  0.00  0.00    +0.141 C 
BRANCH  21  23
ATOM      6  N   UNL     1     -13.234 -11.189  21.206  0.00  0.00    -0.263 NA
ATOM     23  C   UNL     1     -11.622 -12.194  19.711  0.00  0.00    -0.012 A 
ATOM     24  C   UNL     1     -11.361 -10.952  19.144  0.00  0.00    +0.008 A 
ATOM     25  C   UNL     1     -12.558 -12.259  20.730  0.00  0.00    +0.115 A 
ATOM     27  C   UNL     1     -12.036  -9.828  19.607  0.00  0.00    +0.020 A 
ATOM     28  C   UNL     1     -12.954  -9.998  20.630  0.00  0.00    +0.111 A 
ENDBRANCH  21  23
ENDBRANCH   5  21
ENDBRANCH  15  19
ENDBRANCH  10  15
TORSDOF 9
ENDMDL
MODEL 7
REMARK VINA RESULT:      -5.6      2.490      7.945
REMARK  Name = 38028556
REMARK  13 active torsions:
REMARK  status: ('A' for Active; 'I' for Inactive)
REMARK    1  A    between atoms: O_3  and  C_22
REMARK    2  A    between atoms: O_3  and  C_26
REMARK    3  A    between atoms: N_4  and  C_14
REMARK    4  A    between atoms: N_5  and  C_21
REMARK    5  A    between atoms: C_7  and  C_11
REMARK    6  A    between atoms: C_8  and  C_14
REMARK    7  A    between atoms: C_10  and  C_15
REMARK    8  A    between atoms: C_11  and  C_16
REMARK    9  A    between atoms: C_11  and  C_17
REMARK   10  A    between atoms: C_12  and  C_18
REMARK   11  A    between atoms: C_15  and  C_19
REMARK   12  A    between atoms: C_20  and  C_22
REMARK   13  A    between atoms: C_21  and  C_23
REMARK                            x       y       z     vdW  Elec       q    Type
REMARK                         _______ _______ _______ _____ _____    ______ ____
ROOT
ATOM      7  C   UNL     1      -7.313 -10.372  16.270  0.00  0.00    +0.000 C 
ATOM      8  C   UNL     1      -6.399 -10.088  15.051  0.00  0.00    +0.032 C 
ATOM      9  C   UNL     1      -6.646  -9.887  17.566  0.00  0.00    +0.012 C 
ATOM     10  C   UNL     1      -5.284 -10.565  17.809  0.00  0.00    +0.023 C 
ATOM     12  C   UNL     1      -4.423 -10.561  16.562  0.00  0.00    -0.073 C 
ATOM     13  C   UNL     1      -4.937 -10.333  15.340  0.00  0.00    -0.022 C 
ATOM     18  C   UNL     1      -2.948 -10.781  16.756  0.00  0.00    +0.039 C 
ENDROOT
BRANCH   7  11
ATOM     11  C   UNL     1      -8.687  -9.712  16.116  0.00  0.00    -0.013 C 
ATOM     16  C   UNL     1      -9.792 -10.761  16.193  0.00  0.00    +0.007 C 
ATOM     17  C   UNL     1      -8.884  -8.640  17.182  0.00  0.00    +0.007 C 
ENDBRANCH   7  11
BRANCH   8  14
ATOM     14  C   UNL     1      -6.826 -10.916  13.835  0.00  0.00    +0.112 C 
BRANCH  14   4
ATOM      2  O   UNL     1      -6.410  -8.956  11.748  0.00  0.00    -0.273 OA
ATOM      4  N   UNL     1      -5.800 -10.920  12.840  0.00  0.00    -0.313 N 
ATOM     20  C   UNL     1      -5.671  -9.930  11.865  0.00  0.00    +0.239 C 
ATOM     29  H   UNL     1      -5.097 -11.652  12.879  0.00  0.00    +0.149 HD
BRANCH  20  22
ATOM     22  C   UNL     1      -4.498 -10.184  10.942  0.00  0.00    +0.255 C 
BRANCH  22   3
ATOM      3  O   UNL     1      -3.976  -8.966  10.453  0.00  0.00    -0.374 OA
ATOM     26  C   UNL     1      -4.126  -8.854   9.041  0.00  0.00    +0.194 C 
ENDBRANCH  22   3
ENDBRANCH  20  22
ENDBRANCH  14   4
ENDBRANCH   8  14
BRANCH  10  15
ATOM     15  C   UNL     1      -5.463 -11.989  18.346  0.00  0.00    +0.103 C 
BRANCH  15  19
ATOM      1  O   UNL     1      -6.309 -11.407  20.538  0.00  0.00    -0.276 OA
ATOM      5  N   UNL     1      -7.500 -12.896  19.209  0.00  0.00    -0.311 N 
ATOM     19  C   UNL     1      -6.445 -12.042  19.496  0.00  0.00    +0.214 C 
ATOM     30  H   UNL     1      -7.527 -13.377  18.314  0.00  0.00    +0.149 HD
BRANCH   5  21
ATOM     21  C   UNL     1      -8.588 -13.143  20.127  0.00  0.00    +0.141 C 
BRANCH  21  23
ATOM      6  N   UNL     1     -12.045 -12.242  18.888  0.00  0.00    -0.263 NA
ATOM     23  C   UNL     1      -9.804 -12.328  19.791  0.00  0.00    -0.012 A 
ATOM     24  C   UNL     1      -9.844 -10.962  20.045  0.00  0.00    +0.008 A 
ATOM     25  C   UNL     1     -10.919 -12.916  19.217  0.00  0.00    +0.115 A 
ATOM     27  C   UNL     1     -10.984 -10.234  19.720  0.00  0.00    +0.020 A 
ATOM     28  C   UNL     1     -12.047 -10.915  19.149  0.00  0.00    +0.111 A 
ENDBRANCH  21  23
ENDBRANCH   5  21
ENDBRANCH  15  19
ENDBRANCH  10  15
TORSDOF 9
ENDMDL
MODEL 8
REMARK VINA RESULT:      -5.4     28.100     30.936
REMARK  Name = 38028556
REMARK  13 active torsions:
REMARK  status: ('A' for Active; 'I' for Inactive)
REMARK    1  A    between atoms: O_3  and  C_22
REMARK    2  A    between atoms: O_3  and  C_26
REMARK    3  A    between atoms: N_4  and  C_14
REMARK    4  A    between atoms: N_5  and  C_21
REMARK    5  A    between atoms: C_7  and  C_11
REMARK    6  A    between atoms: C_8  and  C_14
REMARK    7  A    between atoms: C_10  and  C_15
REMARK    8  A    between atoms: C_11  and  C_16
REMARK    9  A    between atoms: C_11  and  C_17
REMARK   10  A    between atoms: C_12  and  C_18
REMARK   11  A    between atoms: C_15  and  C_19
REMARK   12  A    between atoms: C_20  and  C_22
REMARK   13  A    between atoms: C_21  and  C_23
REMARK                            x       y       z     vdW  Elec       q    Type
REMARK                         _______ _______ _______ _____ _____    ______ ____
ROOT
ATOM      7  C   UNL     1      17.494   8.042  21.484  0.00  0.00    +0.000 C 
ATOM      8  C   UNL     1      19.032   8.195  21.592  0.00  0.00    +0.032 C 
ATOM      9  C   UNL     1      16.922   9.067  20.492  0.00  0.00    +0.012 C 
ATOM     10  C   UNL     1      17.241  10.517  20.903  0.00  0.00    +0.023 C 
ATOM     12  C   UNL     1      18.698  10.686  21.286  0.00  0.00    -0.073 C 
ATOM     13  C   UNL     1      19.486   9.636  21.577  0.00  0.00    -0.022 C 
ATOM     18  C   UNL     1      19.241  12.088  21.281  0.00  0.00    +0.039 C 
ENDROOT
BRANCH   7  11
ATOM     11  C   UNL     1      17.092   6.628  21.058  0.00  0.00    -0.013 C 
ATOM     16  C   UNL     1      15.585   6.549  20.830  0.00  0.00    +0.007 C 
ATOM     17  C   UNL     1      17.850   6.214  19.801  0.00  0.00    +0.007 C 
ENDBRANCH   7  11
BRANCH   8  14
ATOM     14  C   UNL     1      19.570   7.503  22.849  0.00  0.00    +0.112 C 
BRANCH  14   4
ATOM      2  O   UNL     1      22.215   7.065  23.933  0.00  0.00    -0.273 OA
ATOM      4  N   UNL     1      20.482   6.459  22.502  0.00  0.00    -0.313 N 
ATOM     20  C   UNL     1      21.745   6.320  23.077  0.00  0.00    +0.239 C 
ATOM     29  H   UNL     1      20.172   5.751  21.843  0.00  0.00    +0.149 HD
BRANCH  20  22
ATOM     22  C   UNL     1      22.498   5.129  22.525  0.00  0.00    +0.255 C 
BRANCH  22   3
ATOM      3  O   UNL     1      21.666   3.989  22.481  0.00  0.00    -0.374 OA
ATOM     26  C   UNL     1      21.717   3.344  21.212  0.00  0.00    +0.194 C 
ENDBRANCH  22   3
ENDBRANCH  20  22
ENDBRANCH  14   4
ENDBRANCH   8  14
BRANCH  10  15
ATOM     15  C   UNL     1      16.319  10.986  22.034  0.00  0.00    +0.103 C 
BRANCH  15  19
ATOM      1  O   UNL     1      14.276   9.789  22.534  0.00  0.00    -0.276 OA
ATOM      5  N   UNL     1      14.362  11.180  20.675  0.00  0.00    -0.311 N 
ATOM     19  C   UNL     1      14.883  10.569  21.806  0.00  0.00    +0.214 C 
ATOM     30  H   UNL     1      14.944  11.815  20.135  0.00  0.00    +0.149 HD
BRANCH   5  21
ATOM     21  C   UNL     1      13.010  10.966  20.214  0.00  0.00    +0.141 C 
BRANCH  21  23
ATOM      6  N   UNL     1      11.604   7.689  18.955  0.00  0.00    -0.263 NA
ATOM     23  C   UNL     1      12.875   9.688  19.437  0.00  0.00    -0.012 A 
ATOM     24  C   UNL     1      13.841   9.306  18.513  0.00  0.00    +0.008 A 
ATOM     25  C   UNL     1      11.785   8.853  19.620  0.00  0.00    +0.115 A 
ATOM     27  C   UNL     1      13.690   8.116  17.810  0.00  0.00    +0.020 A 
ATOM     28  C   UNL     1      12.564   7.350  18.065  0.00  0.00    +0.111 A 
ENDBRANCH  21  23
ENDBRANCH   5  21
ENDBRANCH  15  19
ENDBRANCH  10  15
TORSDOF 9
ENDMDL
MODEL 9
REMARK VINA RESULT:      -5.4      1.882      2.612
REMARK  Name = 38028556
REMARK  13 active torsions:
REMARK  status: ('A' for Active; 'I' for Inactive)
REMARK    1  A    between atoms: O_3  and  C_22
REMARK    2  A    between atoms: O_3  and  C_26
REMARK    3  A    between atoms: N_4  and  C_14
REMARK    4  A    between atoms: N_5  and  C_21
REMARK    5  A    between atoms: C_7  and  C_11
REMARK    6  A    between atoms: C_8  and  C_14
REMARK    7  A    between atoms: C_10  and  C_15
REMARK    8  A    between atoms: C_11  and  C_16
REMARK    9  A    between atoms: C_11  and  C_17
REMARK   10  A    between atoms: C_12  and  C_18
REMARK   11  A    between atoms: C_15  and  C_19
REMARK   12  A    between atoms: C_20  and  C_22
REMARK   13  A    between atoms: C_21  and  C_23
REMARK                            x       y       z     vdW  Elec       q    Type
REMARK                         _______ _______ _______ _____ _____    ______ ____
ROOT
ATOM      7  C   UNL     1      -7.669 -12.274  17.268  0.00  0.00    +0.000 C 
ATOM      8  C   UNL     1      -7.655 -12.212  18.816  0.00  0.00    +0.032 C 
ATOM      9  C   UNL     1      -6.471 -13.087  16.753  0.00  0.00    +0.012 C 
ATOM     10  C   UNL     1      -5.125 -12.492  17.207  0.00  0.00    +0.023 C 
ATOM     12  C   UNL     1      -5.128 -12.153  18.684  0.00  0.00    -0.073 C 
ATOM     13  C   UNL     1      -6.268 -12.046  19.389  0.00  0.00    -0.022 C 
ATOM     18  C   UNL     1      -3.787 -11.986  19.344  0.00  0.00    +0.039 C 
ENDROOT
BRANCH   7  11
ATOM     11  C   UNL     1      -8.972 -12.875  16.734  0.00  0.00    -0.013 C 
ATOM     16  C   UNL     1      -9.351 -12.229  15.405  0.00  0.00    +0.007 C 
ATOM     17  C   UNL     1      -8.838 -14.386  16.582  0.00  0.00    +0.007 C 
ENDBRANCH   7  11
BRANCH   8  14
ATOM     14  C   UNL     1      -8.560 -11.088  19.333  0.00  0.00    +0.112 C 
BRANCH  14   4
ATOM      2  O   UNL     1     -10.833  -9.761  18.133  0.00  0.00    -0.273 OA
ATOM      4  N   UNL     1      -8.535  -9.969  18.445  0.00  0.00    -0.313 N 
ATOM     20  C   UNL     1      -9.684  -9.387  17.910  0.00  0.00    +0.239 C 
ATOM     29  H   UNL     1      -7.637  -9.542  18.237  0.00  0.00    +0.149 HD
BRANCH  20  22
ATOM     22  C   UNL     1      -9.366  -8.218  17.002  0.00  0.00    +0.255 C 
BRANCH  22   3
ATOM      3  O   UNL     1     -10.438  -7.301  16.975  0.00  0.00    -0.374 OA
ATOM     26  C   UNL     1     -10.485  -6.574  15.751  0.00  0.00    +0.194 C 
ENDBRANCH  22   3
ENDBRANCH  20  22
ENDBRANCH  14   4
ENDBRANCH   8  14
BRANCH  10  15
ATOM     15  C   UNL     1      -4.750 -11.268  16.364  0.00  0.00    +0.103 C 
BRANCH  15  19
ATOM      1  O   UNL     1      -3.414 -12.762  15.007  0.00  0.00    -0.276 OA
ATOM      5  N   UNL     1      -3.609 -10.527  14.399  0.00  0.00    -0.311 N 
ATOM     19  C   UNL     1      -3.856 -11.633  15.200  0.00  0.00    +0.214 C 
ATOM     30  H   UNL     1      -4.023  -9.631  14.639  0.00  0.00    +0.149 HD
BRANCH   5  21
ATOM     21  C   UNL     1      -2.785 -10.580  13.213  0.00  0.00    +0.141 C 
BRANCH  21  23
ATOM      6  N   UNL     1      -5.616  -9.556  10.926  0.00  0.00    -0.263 NA
ATOM     23  C   UNL     1      -3.515 -10.090  11.997  0.00  0.00    -0.012 A 
ATOM     24  C   UNL     1      -2.827  -9.727  10.845  0.00  0.00    +0.008 A 
ATOM     25  C   UNL     1      -4.897  -9.987  11.987  0.00  0.00    +0.115 A 
ATOM     27  C   UNL     1      -3.532  -9.279   9.733  0.00  0.00    +0.020 A 
ATOM     28  C   UNL     1      -4.913  -9.213   9.824  0.00  0.00    +0.111 A 
ENDBRANCH  21  23
ENDBRANCH   5  21
ENDBRANCH  15  19
ENDBRANCH  10  15
TORSDOF 9
ENDMDL
MODEL 10
REMARK VINA RESULT:      -5.4      2.085      3.381
REMARK  Name = 38028556
REMARK  13 active torsions:
REMARK  status: ('A' for Active; 'I' for Inactive)
REMARK    1  A    between atoms: O_3  and  C_22
REMARK    2  A    between atoms: O_3  and  C_26
REMARK    3  A    between atoms: N_4  and  C_14
REMARK    4  A    between atoms: N_5  and  C_21
REMARK    5  A    between atoms: C_7  and  C_11
REMARK    6  A    between atoms: C_8  and  C_14
REMARK    7  A    between atoms: C_10  and  C_15
REMARK    8  A    between atoms: C_11  and  C_16
REMARK    9  A    between atoms: C_11  and  C_17
REMARK   10  A    between atoms: C_12  and  C_18
REMARK   11  A    between atoms: C_15  and  C_19
REMARK   12  A    between atoms: C_20  and  C_22
REMARK   13  A    between atoms: C_21  and  C_23
REMARK                            x       y       z     vdW  Elec       q    Type
REMARK                         _______ _______ _______ _____ _____    ______ ____
ROOT
ATOM      7  C   UNL     1      -4.847 -12.348  16.171  0.00  0.00    +0.000 C 
ATOM      8  C   UNL     1      -4.050 -11.777  17.370  0.00  0.00    +0.032 C 
ATOM      9  C   UNL     1      -3.892 -12.768  15.043  0.00  0.00    +0.012 C 
ATOM     10  C   UNL     1      -3.030 -11.595  14.542  0.00  0.00    +0.023 C 
ATOM     12  C   UNL     1      -2.421 -10.813  15.689  0.00  0.00    -0.073 C 
ATOM     13  C   UNL     1      -2.881 -10.918  16.948  0.00  0.00    -0.022 C 
ATOM     18  C   UNL     1      -1.239  -9.943  15.363  0.00  0.00    +0.039 C 
ENDROOT
BRANCH   7  11
ATOM     11  C   UNL     1      -5.719 -13.538  16.583  0.00  0.00    -0.013 C 
ATOM     16  C   UNL     1      -7.144 -13.356  16.069  0.00  0.00    +0.007 C 
ATOM     17  C   UNL     1      -5.120 -14.841  16.065  0.00  0.00    +0.007 C 
ENDBRANCH   7  11
BRANCH   8  14
ATOM     14  C   UNL     1      -4.960 -10.976  18.309  0.00  0.00    +0.112 C 
BRANCH  14   4
ATOM      2  O   UNL     1      -7.767 -10.555  18.861  0.00  0.00    -0.273 OA
ATOM      4  N   UNL     1      -5.874 -10.171  17.562  0.00  0.00    -0.313 N 
ATOM     20  C   UNL     1      -7.219 -10.021  17.900  0.00  0.00    +0.239 C 
ATOM     29  H   UNL     1      -5.512  -9.636  16.778  0.00  0.00    +0.149 HD
BRANCH  20  22
ATOM     22  C   UNL     1      -7.954  -9.112  16.939  0.00  0.00    +0.255 C 
BRANCH  22   3
ATOM      3  O   UNL     1      -9.347  -9.332  17.011  0.00  0.00    -0.374 OA
ATOM     26  C   UNL     1     -10.052  -8.152  17.387  0.00  0.00    +0.194 C 
ENDBRANCH  22   3
ENDBRANCH  20  22
ENDBRANCH  14   4
ENDBRANCH   8  14
BRANCH  10  15
ATOM     15  C   UNL     1      -3.834 -10.674  13.618  0.00  0.00    +0.103 C 
BRANCH  15  19
ATOM      1  O   UNL     1      -2.074 -10.968  11.983  0.00  0.00    -0.276 OA
ATOM      5  N   UNL     1      -4.010  -9.828  11.389  0.00  0.00    -0.311 N 
ATOM     19  C   UNL     1      -3.185 -10.525  12.260  0.00  0.00    +0.214 C 
ATOM     30  H   UNL     1      -4.918  -9.502  11.710  0.00  0.00    +0.149 HD
BRANCH   5  21
ATOM     21  C   UNL     1      -3.647  -9.536  10.021  0.00  0.00    +0.141 C 
BRANCH  21  23
ATOM      6  N   UNL     1      -6.038  -9.754   7.100  0.00  0.00    -0.263 NA
ATOM     23  C   UNL     1      -4.851  -9.299   9.157  0.00  0.00    -0.012 A 
ATOM     24  C   UNL     1      -5.869  -8.444   9.564  0.00  0.00    +0.008 A 
ATOM     25  C   UNL     1      -4.982  -9.924   7.928  0.00  0.00    +0.115 A 
ATOM     27  C   UNL     1      -6.971  -8.243   8.741  0.00  0.00    +0.020 A 
ATOM     28  C   UNL     1      -7.007  -8.915   7.530  0.00  0.00    +0.111 A 
ENDBRANCH  21  23
ENDBRANCH   5  21
ENDBRANCH  15  19
ENDBRANCH  10  15
TORSDOF 9
ENDMDL
