MODEL 1
REMARK VINA RESULT:      -7.3      0.000      0.000
REMARK  Name = 75536243
REMARK  10 active torsions:
REMARK  status: ('A' for Active; 'I' for Inactive)
REMARK    1  A    between atoms: O_3  and  C_9
REMARK    2  A    between atoms: N_6  and  C_13
REMARK    3  A    between atoms: C_8  and  C_13
REMARK    4  A    between atoms: C_10  and  C_14
REMARK    5  A    between atoms: C_14  and  C_15
REMARK    6  A    between atoms: C_16  and  C_17
REMARK    7  A    between atoms: C_16  and  C_19
REMARK    8  A    between atoms: C_16  and  C_20
REMARK    9  A    between atoms: C_16  and  C_21
REMARK   10  A    between atoms: C_22  and  C_23
REMARK                            x       y       z     vdW  Elec       q    Type
REMARK                         _______ _______ _______ _____ _____    ______ ____
ROOT
ATOM      2  O   UNL     1      13.134   9.001  19.654  0.00  0.00    -0.369 OA
ATOM      8  C   UNL     1      12.244   9.403  20.703  0.00  0.00    +0.164 C 
ATOM      9  C   UNL     1      11.110   8.388  20.893  0.00  0.00    +0.145 C 
ATOM     10  C   UNL     1      13.702   7.697  19.804  0.00  0.00    +0.125 C 
ATOM     11  C   UNL     1      11.625   6.956  21.005  0.00  0.00    +0.036 C 
ATOM     12  C   UNL     1      12.604   6.638  19.879  0.00  0.00    +0.034 C 
ENDROOT
BRANCH   9   3
ATOM      3  O   UNL     1      10.240   8.451  19.758  0.00  0.00    -0.389 OA
ATOM     30  H   UNL     1      10.799   8.491  18.963  0.00  0.00    +0.210 HD
ENDBRANCH   9   3
BRANCH   8  13
ATOM     13  C   UNL     1      13.009   9.691  21.993  0.00  0.00    +0.138 C 
BRANCH  13   6
ATOM      5  O   UNL     1      10.917  10.311  23.826  0.00  0.00    -0.275 OA
ATOM      6  N   UNL     1      12.686  10.989  22.504  0.00  0.00    -0.312 N 
ATOM     17  C   UNL     1      11.643  11.210  23.401  0.00  0.00    +0.218 C 
ATOM     29  H   UNL     1      13.276  11.764  22.219  0.00  0.00    +0.149 HD
BRANCH  17  16
ATOM     16  C   UNL     1      11.466  12.682  23.830  0.00  0.00    +0.039 C 
ATOM     19  C   UNL     1      12.836  13.384  23.828  0.00  0.00    +0.020 C 
ATOM     20  C   UNL     1      10.882  12.752  25.249  0.00  0.00    +0.020 C 
ATOM     21  C   UNL     1      10.543  13.411  22.842  0.00  0.00    +0.020 C 
ENDBRANCH  17  16
ENDBRANCH  13   6
ENDBRANCH   8  13
BRANCH  10  14
ATOM     14  C   UNL     1      14.612   7.453  18.606  0.00  0.00    +0.090 C 
BRANCH  14  15
ATOM      4  O   UNL     1      17.620   5.499  18.946  0.00  0.00    -0.354 OA
ATOM      7  N   UNL     1      16.434   5.827  18.302  0.00  0.00    -0.083 NA
ATOM     15  C   UNL     1      15.920   6.831  19.017  0.00  0.00    +0.087 A 
ATOM     18  C   UNL     1      16.730   7.178  20.112  0.00  0.00    +0.076 A 
ATOM     22  C   UNL     1      17.786   6.310  20.023  0.00  0.00    +0.167 A 
BRANCH  22  23
ATOM      1  F   UNL     1      22.407   5.459  23.002  0.00  0.00    -0.205 F 
ATOM     23  C   UNL     1      18.976   6.090  20.791  0.00  0.00    +0.020 A 
ATOM     24  C   UNL     1      19.184   6.799  21.974  0.00  0.00    +0.014 A 
ATOM     25  C   UNL     1      19.927   5.168  20.355  0.00  0.00    +0.014 A 
ATOM     26  C   UNL     1      20.343   6.586  22.721  0.00  0.00    +0.039 A 
ATOM     27  C   UNL     1      21.087   4.955  21.102  0.00  0.00    +0.039 A 
ATOM     28  C   UNL     1      21.294   5.663  22.284  0.00  0.00    +0.123 A 
ENDBRANCH  22  23
ENDBRANCH  14  15
ENDBRANCH  10  14
TORSDOF 7
ENDMDL
MODEL 2
REMARK VINA RESULT:      -6.9     28.697     31.692
REMARK  Name = 75536243
REMARK  10 active torsions:
REMARK  status: ('A' for Active; 'I' for Inactive)
REMARK    1  A    between atoms: O_3  and  C_9
REMARK    2  A    between atoms: N_6  and  C_13
REMARK    3  A    between atoms: C_8  and  C_13
REMARK    4  A    between atoms: C_10  and  C_14
REMARK    5  A    between atoms: C_14  and  C_15
REMARK    6  A    between atoms: C_16  and  C_17
REMARK    7  A    between atoms: C_16  and  C_19
REMARK    8  A    between atoms: C_16  and  C_20
REMARK    9  A    between atoms: C_16  and  C_21
REMARK   10  A    between atoms: C_22  and  C_23
REMARK                            x       y       z     vdW  Elec       q    Type
REMARK                         _______ _______ _______ _____ _____    ______ ____
ROOT
ATOM      2  O   UNL     1     -16.202   3.560  26.881  0.00  0.00    -0.369 OA
ATOM      8  C   UNL     1     -16.725   4.205  28.050  0.00  0.00    +0.164 C 
ATOM      9  C   UNL     1     -17.783   5.254  27.682  0.00  0.00    +0.145 C 
ATOM     10  C   UNL     1     -17.179   2.952  26.033  0.00  0.00    +0.125 C 
ATOM     11  C   UNL     1     -18.840   4.702  26.728  0.00  0.00    +0.036 C 
ATOM     12  C   UNL     1     -18.190   3.989  25.547  0.00  0.00    +0.034 C 
ENDROOT
BRANCH   9   3
ATOM      3  O   UNL     1     -17.137   6.351  27.030  0.00  0.00    -0.389 OA
ATOM     30  H   UNL     1     -16.217   6.088  26.855  0.00  0.00    +0.210 HD
ENDBRANCH   9   3
BRANCH   8  13
ATOM     13  C   UNL     1     -17.228   3.181  29.065  0.00  0.00    +0.138 C 
BRANCH  13   6
ATOM      5  O   UNL     1     -16.262   0.548  28.557  0.00  0.00    -0.275 OA
ATOM      6  N   UNL     1     -16.135   2.536  29.728  0.00  0.00    -0.312 N 
ATOM     17  C   UNL     1     -15.722   1.241  29.421  0.00  0.00    +0.218 C 
ATOM     29  H   UNL     1     -15.626   3.073  30.423  0.00  0.00    +0.149 HD
BRANCH  17  16
ATOM     16  C   UNL     1     -14.523   0.735  30.250  0.00  0.00    +0.039 C 
ATOM     19  C   UNL     1     -15.020   0.248  31.623  0.00  0.00    +0.020 C 
ATOM     20  C   UNL     1     -13.515   1.874  30.469  0.00  0.00    +0.020 C 
ATOM     21  C   UNL     1     -13.844  -0.440  29.531  0.00  0.00    +0.020 C 
ENDBRANCH  17  16
ENDBRANCH  13   6
ENDBRANCH   8  13
BRANCH  10  14
ATOM     14  C   UNL     1     -16.439   2.322  24.859  0.00  0.00    +0.090 C 
BRANCH  14  15
ATOM      4  O   UNL     1     -15.911   4.474  22.017  0.00  0.00    -0.354 OA
ATOM      7  N   UNL     1     -16.558   3.429  22.665  0.00  0.00    -0.083 NA
ATOM     15  C   UNL     1     -15.982   3.359  23.868  0.00  0.00    +0.087 A 
ATOM     18  C   UNL     1     -14.976   4.326  24.036  0.00  0.00    +0.076 A 
ATOM     22  C   UNL     1     -14.971   5.000  22.844  0.00  0.00    +0.167 A 
BRANCH  22  23
ATOM      1  F   UNL     1     -12.046   9.254  20.770  0.00  0.00    -0.205 F 
ATOM     23  C   UNL     1     -14.216   6.097  22.311  0.00  0.00    +0.020 A 
ATOM     24  C   UNL     1     -14.644   7.407  22.525  0.00  0.00    +0.014 A 
ATOM     25  C   UNL     1     -13.056   5.853  21.577  0.00  0.00    +0.014 A 
ATOM     26  C   UNL     1     -13.911   8.474  22.004  0.00  0.00    +0.039 A 
ATOM     27  C   UNL     1     -12.323   6.920  21.056  0.00  0.00    +0.039 A 
ATOM     28  C   UNL     1     -12.749   8.230  21.270  0.00  0.00    +0.123 A 
ENDBRANCH  22  23
ENDBRANCH  14  15
ENDBRANCH  10  14
TORSDOF 7
ENDMDL
MODEL 3
REMARK VINA RESULT:      -6.8      3.953      7.181
REMARK  Name = 75536243
REMARK  10 active torsions:
REMARK  status: ('A' for Active; 'I' for Inactive)
REMARK    1  A    between atoms: O_3  and  C_9
REMARK    2  A    between atoms: N_6  and  C_13
REMARK    3  A    between atoms: C_8  and  C_13
REMARK    4  A    between atoms: C_10  and  C_14
REMARK    5  A    between atoms: C_14  and  C_15
REMARK    6  A    between atoms: C_16  and  C_17
REMARK    7  A    between atoms: C_16  and  C_19
REMARK    8  A    between atoms: C_16  and  C_20
REMARK    9  A    between atoms: C_16  and  C_21
REMARK   10  A    between atoms: C_22  and  C_23
REMARK                            x       y       z     vdW  Elec       q    Type
REMARK                         _______ _______ _______ _____ _____    ______ ____
ROOT
ATOM      2  O   UNL     1      19.269   7.490  22.226  0.00  0.00    -0.369 OA
ATOM      8  C   UNL     1      19.720   8.711  22.826  0.00  0.00    +0.164 C 
ATOM      9  C   UNL     1      21.249   8.741  22.949  0.00  0.00    +0.145 C 
ATOM     10  C   UNL     1      19.840   7.191  20.950  0.00  0.00    +0.125 C 
ATOM     11  C   UNL     1      21.944   8.376  21.640  0.00  0.00    +0.036 C 
ATOM     12  C   UNL     1      21.361   7.094  21.051  0.00  0.00    +0.034 C 
ENDROOT
BRANCH   9   3
ATOM      3  O   UNL     1      21.650   7.787  23.937  0.00  0.00    -0.389 OA
ATOM     30  H   UNL     1      22.323   8.211  24.497  0.00  0.00    +0.210 HD
ENDBRANCH   9   3
BRANCH   8  13
ATOM     13  C   UNL     1      19.157   9.926  22.090  0.00  0.00    +0.138 C 
BRANCH  13   6
ATOM      5  O   UNL     1      17.333  11.109  20.247  0.00  0.00    -0.275 OA
ATOM      6  N   UNL     1      17.734   9.999  22.233  0.00  0.00    -0.312 N 
ATOM     17  C   UNL     1      16.908  10.596  21.283  0.00  0.00    +0.218 C 
ATOM     29  H   UNL     1      17.323   9.558  23.049  0.00  0.00    +0.149 HD
BRANCH  17  16
ATOM     16  C   UNL     1      15.404  10.564  21.628  0.00  0.00    +0.039 C 
ATOM     19  C   UNL     1      14.580  10.634  20.329  0.00  0.00    +0.020 C 
ATOM     20  C   UNL     1      15.038  11.771  22.505  0.00  0.00    +0.020 C 
ATOM     21  C   UNL     1      15.058   9.257  22.356  0.00  0.00    +0.020 C 
ENDBRANCH  17  16
ENDBRANCH  13   6
ENDBRANCH   8  13
BRANCH  10  14
ATOM     14  C   UNL     1      19.243   5.871  20.478  0.00  0.00    +0.090 C 
BRANCH  14  15
ATOM      4  O   UNL     1      16.351   5.843  18.328  0.00  0.00    -0.354 OA
ATOM      7  N   UNL     1      17.639   5.444  18.661  0.00  0.00    -0.083 NA
ATOM     15  C   UNL     1      17.909   6.071  19.809  0.00  0.00    +0.087 A 
ATOM     18  C   UNL     1      16.839   6.870  20.246  0.00  0.00    +0.076 A 
ATOM     22  C   UNL     1      15.884   6.692  19.279  0.00  0.00    +0.167 A 
BRANCH  22  23
ATOM      1  F   UNL     1      10.731   8.631  18.477  0.00  0.00    -0.205 F 
ATOM     23  C   UNL     1      14.556   7.190  19.071  0.00  0.00    +0.020 A 
ATOM     24  C   UNL     1      14.254   7.911  17.916  0.00  0.00    +0.014 A 
ATOM     25  C   UNL     1      13.566   6.956  20.025  0.00  0.00    +0.014 A 
ATOM     26  C   UNL     1      12.962   8.398  17.715  0.00  0.00    +0.039 A 
ATOM     27  C   UNL     1      12.274   7.443  19.825  0.00  0.00    +0.039 A 
ATOM     28  C   UNL     1      11.972   8.163  18.670  0.00  0.00    +0.123 A 
ENDBRANCH  22  23
ENDBRANCH  14  15
ENDBRANCH  10  14
TORSDOF 7
ENDMDL
MODEL 4
REMARK VINA RESULT:      -6.8     27.512     29.337
REMARK  Name = 75536243
REMARK  10 active torsions:
REMARK  status: ('A' for Active; 'I' for Inactive)
REMARK    1  A    between atoms: O_3  and  C_9
REMARK    2  A    between atoms: N_6  and  C_13
REMARK    3  A    between atoms: C_8  and  C_13
REMARK    4  A    between atoms: C_10  and  C_14
REMARK    5  A    between atoms: C_14  and  C_15
REMARK    6  A    between atoms: C_16  and  C_17
REMARK    7  A    between atoms: C_16  and  C_19
REMARK    8  A    between atoms: C_16  and  C_20
REMARK    9  A    between atoms: C_16  and  C_21
REMARK   10  A    between atoms: C_22  and  C_23
REMARK                            x       y       z     vdW  Elec       q    Type
REMARK                         _______ _______ _______ _____ _____    ______ ____
ROOT
ATOM      2  O   UNL     1      -3.497  -9.557   9.785  0.00  0.00    -0.369 OA
ATOM      8  C   UNL     1      -4.583  -9.161   8.938  0.00  0.00    +0.164 C 
ATOM      9  C   UNL     1      -5.307 -10.380   8.352  0.00  0.00    +0.145 C 
ATOM     10  C   UNL     1      -3.847 -10.442  10.851  0.00  0.00    +0.125 C 
ATOM     11  C   UNL     1      -5.670 -11.408   9.419  0.00  0.00    +0.036 C 
ATOM     12  C   UNL     1      -4.467 -11.726  10.302  0.00  0.00    +0.034 C 
ENDROOT
BRANCH   9   3
ATOM      3  O   UNL     1      -4.443 -11.018   7.406  0.00  0.00    -0.389 OA
ATOM     30  H   UNL     1      -3.779 -10.364   7.128  0.00  0.00    +0.210 HD
ENDBRANCH   9   3
BRANCH   8  13
ATOM     13  C   UNL     1      -5.524  -8.200   9.663  0.00  0.00    +0.138 C 
BRANCH  13   6
ATOM      5  O   UNL     1      -8.333  -8.631   9.869  0.00  0.00    -0.275 OA
ATOM      6  N   UNL     1      -6.526  -7.695   8.776  0.00  0.00    -0.312 N 
ATOM     17  C   UNL     1      -7.886  -7.950   8.945  0.00  0.00    +0.218 C 
ATOM     29  H   UNL     1      -6.220  -7.094   8.017  0.00  0.00    +0.149 HD
BRANCH  17  16
ATOM     16  C   UNL     1      -8.799  -7.309   7.879  0.00  0.00    +0.039 C 
ATOM     19  C   UNL     1      -9.074  -5.842   8.257  0.00  0.00    +0.020 C 
ATOM     20  C   UNL     1     -10.139  -8.057   7.813  0.00  0.00    +0.020 C 
ATOM     21  C   UNL     1      -8.108  -7.339   6.507  0.00  0.00    +0.020 C 
ENDBRANCH  17  16
ENDBRANCH  13   6
ENDBRANCH   8  13
BRANCH  10  14
ATOM     14  C   UNL     1      -2.575 -10.745  11.633  0.00  0.00    +0.090 C 
BRANCH  14  15
ATOM      4  O   UNL     1      -2.330 -10.437  15.216  0.00  0.00    -0.354 OA
ATOM      7  N   UNL     1      -1.777 -10.441  13.941  0.00  0.00    -0.083 NA
ATOM     15  C   UNL     1      -2.804 -10.672  13.120  0.00  0.00    +0.087 A 
ATOM     18  C   UNL     1      -4.019 -10.820  13.811  0.00  0.00    +0.076 A 
ATOM     22  C   UNL     1      -3.666 -10.664  15.125  0.00  0.00    +0.167 A 
BRANCH  22  23
ATOM      1  F   UNL     1      -6.430 -10.749  19.953  0.00  0.00    -0.205 F 
ATOM     23  C   UNL     1      -4.379 -10.687  16.369  0.00  0.00    +0.020 A 
ATOM     24  C   UNL     1      -5.603 -10.026  16.484  0.00  0.00    +0.014 A 
ATOM     25  C   UNL     1      -3.849 -11.368  17.464  0.00  0.00    +0.014 A 
ATOM     26  C   UNL     1      -6.295 -10.047  17.695  0.00  0.00    +0.039 A 
ATOM     27  C   UNL     1      -4.542 -11.389  18.675  0.00  0.00    +0.039 A 
ATOM     28  C   UNL     1      -5.765 -10.729  18.790  0.00  0.00    +0.123 A 
ENDBRANCH  22  23
ENDBRANCH  14  15
ENDBRANCH  10  14
TORSDOF 7
ENDMDL
MODEL 5
REMARK VINA RESULT:      -6.8     26.734     29.528
REMARK  Name = 75536243
REMARK  10 active torsions:
REMARK  status: ('A' for Active; 'I' for Inactive)
REMARK    1  A    between atoms: O_3  and  C_9
REMARK    2  A    between atoms: N_6  and  C_13
REMARK    3  A    between atoms: C_8  and  C_13
REMARK    4  A    between atoms: C_10  and  C_14
REMARK    5  A    between atoms: C_14  and  C_15
REMARK    6  A    between atoms: C_16  and  C_17
REMARK    7  A    between atoms: C_16  and  C_19
REMARK    8  A    between atoms: C_16  and  C_20
REMARK    9  A    between atoms: C_16  and  C_21
REMARK   10  A    between atoms: C_22  and  C_23
REMARK                            x       y       z     vdW  Elec       q    Type
REMARK                         _______ _______ _______ _____ _____    ______ ____
ROOT
ATOM      2  O   UNL     1      -6.377 -10.724  17.330  0.00  0.00    -0.369 OA
ATOM      8  C   UNL     1      -5.395 -10.976  18.343  0.00  0.00    +0.164 C 
ATOM      9  C   UNL     1      -6.048 -11.170  19.718  0.00  0.00    +0.145 C 
ATOM     10  C   UNL     1      -7.404 -11.712  17.217  0.00  0.00    +0.125 C 
ATOM     11  C   UNL     1      -7.199 -12.172  19.678  0.00  0.00    +0.036 C 
ATOM     12  C   UNL     1      -8.161 -11.853  18.537  0.00  0.00    +0.034 C 
ENDROOT
BRANCH   9   3
ATOM      3  O   UNL     1      -6.577  -9.915  20.157  0.00  0.00    -0.389 OA
ATOM     30  H   UNL     1      -6.395  -9.837  21.109  0.00  0.00    +0.210 HD
ENDBRANCH   9   3
BRANCH   8  13
ATOM     13  C   UNL     1      -4.482 -12.136  17.948  0.00  0.00    +0.138 C 
BRANCH  13   6
ATOM      5  O   UNL     1      -4.384 -12.696  15.156  0.00  0.00    -0.275 OA
ATOM      6  N   UNL     1      -3.471 -11.704  17.032  0.00  0.00    -0.312 N 
ATOM     17  C   UNL     1      -3.495 -12.020  15.675  0.00  0.00    +0.218 C 
ATOM     29  H   UNL     1      -2.732 -11.111  17.395  0.00  0.00    +0.149 HD
BRANCH  17  16
ATOM     16  C   UNL     1      -2.312 -11.453  14.861  0.00  0.00    +0.039 C 
ATOM     19  C   UNL     1      -2.841 -10.444  13.826  0.00  0.00    +0.020 C 
ATOM     20  C   UNL     1      -1.593 -12.588  14.116  0.00  0.00    +0.020 C 
ATOM     21  C   UNL     1      -1.331 -10.728  15.794  0.00  0.00    +0.020 C 
ENDBRANCH  17  16
ENDBRANCH  13   6
ENDBRANCH   8  13
BRANCH  10  14
ATOM     14  C   UNL     1      -8.341 -11.275  16.098  0.00  0.00    +0.090 C 
BRANCH  14  15
ATOM      4  O   UNL     1      -6.891 -11.996  12.878  0.00  0.00    -0.354 OA
ATOM      7  N   UNL     1      -7.593 -12.361  14.020  0.00  0.00    -0.083 NA
ATOM     15  C   UNL     1      -7.643 -11.253  14.764  0.00  0.00    +0.087 A 
ATOM     18  C   UNL     1      -6.998 -10.167  14.149  0.00  0.00    +0.076 A 
ATOM     22  C   UNL     1      -6.542 -10.687  12.966  0.00  0.00    +0.167 A 
BRANCH  22  23
ATOM      1  F   UNL     1      -3.701  -8.652   8.637  0.00  0.00    -0.205 F 
ATOM     23  C   UNL     1      -5.809 -10.162  11.851  0.00  0.00    +0.020 A 
ATOM     24  C   UNL     1      -5.792  -8.788  11.612  0.00  0.00    +0.014 A 
ATOM     25  C   UNL     1      -5.114 -11.026  11.005  0.00  0.00    +0.014 A 
ATOM     26  C   UNL     1      -5.080  -8.278  10.526  0.00  0.00    +0.039 A 
ATOM     27  C   UNL     1      -4.402 -10.516   9.919  0.00  0.00    +0.039 A 
ATOM     28  C   UNL     1      -4.384  -9.142   9.680  0.00  0.00    +0.123 A 
ENDBRANCH  22  23
ENDBRANCH  14  15
ENDBRANCH  10  14
TORSDOF 7
ENDMDL
MODEL 6
REMARK VINA RESULT:      -6.7     27.013     30.755
REMARK  Name = 75536243
REMARK  10 active torsions:
REMARK  status: ('A' for Active; 'I' for Inactive)
REMARK    1  A    between atoms: O_3  and  C_9
REMARK    2  A    between atoms: N_6  and  C_13
REMARK    3  A    between atoms: C_8  and  C_13
REMARK    4  A    between atoms: C_10  and  C_14
REMARK    5  A    between atoms: C_14  and  C_15
REMARK    6  A    between atoms: C_16  and  C_17
REMARK    7  A    between atoms: C_16  and  C_19
REMARK    8  A    between atoms: C_16  and  C_20
REMARK    9  A    between atoms: C_16  and  C_21
REMARK   10  A    between atoms: C_22  and  C_23
REMARK                            x       y       z     vdW  Elec       q    Type
REMARK                         _______ _______ _______ _____ _____    ______ ____
ROOT
ATOM      2  O   UNL     1      -5.871 -11.660  18.938  0.00  0.00    -0.369 OA
ATOM      8  C   UNL     1      -4.733 -11.748  18.070  0.00  0.00    +0.164 C 
ATOM      9  C   UNL     1      -4.731 -13.066  17.284  0.00  0.00    +0.145 C 
ATOM     10  C   UNL     1      -7.139 -11.817  18.297  0.00  0.00    +0.125 C 
ATOM     11  C   UNL     1      -6.072 -13.343  16.611  0.00  0.00    +0.036 C 
ATOM     12  C   UNL     1      -7.224 -13.173  17.597  0.00  0.00    +0.034 C 
ENDROOT
BRANCH   9   3
ATOM      3  O   UNL     1      -4.467 -14.142  18.190  0.00  0.00    -0.389 OA
ATOM     30  H   UNL     1      -5.079 -14.865  17.973  0.00  0.00    +0.210 HD
ENDBRANCH   9   3
BRANCH   8  13
ATOM     13  C   UNL     1      -4.630 -10.517  17.171  0.00  0.00    +0.138 C 
BRANCH  13   6
ATOM      5  O   UNL     1      -4.549 -10.699  14.328  0.00  0.00    -0.275 OA
ATOM      6  N   UNL     1      -3.453 -10.572  16.358  0.00  0.00    -0.312 N 
ATOM     17  C   UNL     1      -3.497 -10.660  14.968  0.00  0.00    +0.218 C 
ATOM     29  H   UNL     1      -2.556 -10.504  16.828  0.00  0.00    +0.149 HD
BRANCH  17  16
ATOM     16  C   UNL     1      -2.115 -10.704  14.283  0.00  0.00    +0.039 C 
ATOM     19  C   UNL     1      -1.537 -12.127  14.388  0.00  0.00    +0.020 C 
ATOM     20  C   UNL     1      -1.151  -9.731  14.977  0.00  0.00    +0.020 C 
ATOM     21  C   UNL     1      -2.253 -10.340  12.797  0.00  0.00    +0.020 C 
ENDBRANCH  17  16
ENDBRANCH  13   6
ENDBRANCH   8  13
BRANCH  10  14
ATOM     14  C   UNL     1      -8.214 -11.691  19.369  0.00  0.00    +0.090 C 
BRANCH  14  15
ATOM      4  O   UNL     1     -11.170  -9.652  19.062  0.00  0.00    -0.354 OA
ATOM      7  N   UNL     1     -10.392 -10.600  19.716  0.00  0.00    -0.083 NA
ATOM     15  C   UNL     1      -9.299 -10.730  18.960  0.00  0.00    +0.087 A 
ATOM     18  C   UNL     1      -9.328  -9.897  17.829  0.00  0.00    +0.076 A 
ATOM     22  C   UNL     1     -10.526  -9.241  17.940  0.00  0.00    +0.167 A 
BRANCH  22  23
ATOM      1  F   UNL     1     -13.179  -5.415  14.893  0.00  0.00    -0.205 F 
ATOM     23  C   UNL     1     -11.210  -8.254  17.156  0.00  0.00    +0.020 A 
ATOM     24  C   UNL     1     -12.556  -8.429  16.835  0.00  0.00    +0.014 A 
ATOM     25  C   UNL     1     -10.529  -7.121  16.713  0.00  0.00    +0.014 A 
ATOM     26  C   UNL     1     -13.221  -7.470  16.070  0.00  0.00    +0.039 A 
ATOM     27  C   UNL     1     -11.194  -6.161  15.949  0.00  0.00    +0.039 A 
ATOM     28  C   UNL     1     -12.540  -6.336  15.628  0.00  0.00    +0.123 A 
ENDBRANCH  22  23
ENDBRANCH  14  15
ENDBRANCH  10  14
TORSDOF 7
ENDMDL
MODEL 7
REMARK VINA RESULT:      -6.6     27.458     29.974
REMARK  Name = 75536243
REMARK  10 active torsions:
REMARK  status: ('A' for Active; 'I' for Inactive)
REMARK    1  A    between atoms: O_3  and  C_9
REMARK    2  A    between atoms: N_6  and  C_13
REMARK    3  A    between atoms: C_8  and  C_13
REMARK    4  A    between atoms: C_10  and  C_14
REMARK    5  A    between atoms: C_14  and  C_15
REMARK    6  A    between atoms: C_16  and  C_17
REMARK    7  A    between atoms: C_16  and  C_19
REMARK    8  A    between atoms: C_16  and  C_20
REMARK    9  A    between atoms: C_16  and  C_21
REMARK   10  A    between atoms: C_22  and  C_23
REMARK                            x       y       z     vdW  Elec       q    Type
REMARK                         _______ _______ _______ _____ _____    ______ ____
ROOT
ATOM      2  O   UNL     1      -3.931 -12.138  14.163  0.00  0.00    -0.369 OA
ATOM      8  C   UNL     1      -2.592 -11.909  14.622  0.00  0.00    +0.164 C 
ATOM      9  C   UNL     1      -1.668 -11.502  13.467  0.00  0.00    +0.145 C 
ATOM     10  C   UNL     1      -4.528 -11.048  13.457  0.00  0.00    +0.125 C 
ATOM     11  C   UNL     1      -2.257 -10.375  12.622  0.00  0.00    +0.036 C 
ATOM     12  C   UNL     1      -3.698 -10.685  12.227  0.00  0.00    +0.034 C 
ENDROOT
BRANCH   9   3
ATOM      3  O   UNL     1      -1.473 -12.633  12.613  0.00  0.00    -0.389 OA
ATOM     30  H   UNL     1      -0.832 -13.221  13.047  0.00  0.00    +0.210 HD
ENDBRANCH   9   3
BRANCH   8  13
ATOM     13  C   UNL     1      -2.571 -10.915  15.782  0.00  0.00    +0.138 C 
BRANCH  13   6
ATOM      5  O   UNL     1      -4.946  -9.863  16.956  0.00  0.00    -0.275 OA
ATOM      6  N   UNL     1      -3.259 -11.441  16.922  0.00  0.00    -0.312 N 
ATOM     17  C   UNL     1      -4.419 -10.867  17.437  0.00  0.00    +0.218 C 
ATOM     29  H   UNL     1      -2.893 -12.292  17.338  0.00  0.00    +0.149 HD
BRANCH  17  16
ATOM     16  C   UNL     1      -5.004 -11.592  18.668  0.00  0.00    +0.039 C 
ATOM     19  C   UNL     1      -5.859 -12.785  18.200  0.00  0.00    +0.020 C 
ATOM     20  C   UNL     1      -5.897 -10.634  19.470  0.00  0.00    +0.020 C 
ATOM     21  C   UNL     1      -3.868 -12.123  19.555  0.00  0.00    +0.020 C 
ENDBRANCH  17  16
ENDBRANCH  13   6
ENDBRANCH   8  13
BRANCH  10  14
ATOM     14  C   UNL     1      -5.934 -11.476  13.056  0.00  0.00    +0.090 C 
BRANCH  14  15
ATOM      4  O   UNL     1      -8.504  -9.470  14.592  0.00  0.00    -0.354 OA
ATOM      7  N   UNL     1      -7.630  -9.764  13.553  0.00  0.00    -0.083 NA
ATOM     15  C   UNL     1      -6.979 -10.861  13.948  0.00  0.00    +0.087 A 
ATOM     18  C   UNL     1      -7.397 -11.303  15.215  0.00  0.00    +0.076 A 
ATOM     22  C   UNL     1      -8.357 -10.394  15.577  0.00  0.00    +0.167 A 
BRANCH  22  23
ATOM      1  F   UNL     1     -11.625  -9.725  20.029  0.00  0.00    -0.205 F 
ATOM     23  C   UNL     1      -9.200 -10.222  16.723  0.00  0.00    +0.020 A 
ATOM     24  C   UNL     1     -10.081  -9.143  16.785  0.00  0.00    +0.014 A 
ATOM     25  C   UNL     1      -9.138 -11.133  17.777  0.00  0.00    +0.014 A 
ATOM     26  C   UNL     1     -10.900  -8.975  17.903  0.00  0.00    +0.039 A 
ATOM     27  C   UNL     1      -9.957 -10.965  18.894  0.00  0.00    +0.039 A 
ATOM     28  C   UNL     1     -10.839  -9.887  18.956  0.00  0.00    +0.123 A 
ENDBRANCH  22  23
ENDBRANCH  14  15
ENDBRANCH  10  14
TORSDOF 7
ENDMDL
MODEL 8
REMARK VINA RESULT:      -6.5     27.953     30.517
REMARK  Name = 75536243
REMARK  10 active torsions:
REMARK  status: ('A' for Active; 'I' for Inactive)
REMARK    1  A    between atoms: O_3  and  C_9
REMARK    2  A    between atoms: N_6  and  C_13
REMARK    3  A    between atoms: C_8  and  C_13
REMARK    4  A    between atoms: C_10  and  C_14
REMARK    5  A    between atoms: C_14  and  C_15
REMARK    6  A    between atoms: C_16  and  C_17
REMARK    7  A    between atoms: C_16  and  C_19
REMARK    8  A    between atoms: C_16  and  C_20
REMARK    9  A    between atoms: C_16  and  C_21
REMARK   10  A    between atoms: C_22  and  C_23
REMARK                            x       y       z     vdW  Elec       q    Type
REMARK                         _______ _______ _______ _____ _____    ______ ____
ROOT
ATOM      2  O   UNL     1      -5.042 -10.072  16.653  0.00  0.00    -0.369 OA
ATOM      8  C   UNL     1      -4.334 -10.314  15.430  0.00  0.00    +0.164 C 
ATOM      9  C   UNL     1      -3.519 -11.612  15.503  0.00  0.00    +0.145 C 
ATOM     10  C   UNL     1      -5.900 -11.132  17.079  0.00  0.00    +0.125 C 
ATOM     11  C   UNL     1      -4.348 -12.790  16.007  0.00  0.00    +0.036 C 
ATOM     12  C   UNL     1      -5.105 -12.421  17.279  0.00  0.00    +0.034 C 
ENDROOT
BRANCH   9   3
ATOM      3  O   UNL     1      -2.432 -11.421  16.414  0.00  0.00    -0.389 OA
ATOM     30  H   UNL     1      -2.782 -11.530  17.315  0.00  0.00    +0.210 HD
ENDBRANCH   9   3
BRANCH   8  13
ATOM     13  C   UNL     1      -5.278 -10.270  14.230  0.00  0.00    +0.138 C 
BRANCH  13   6
ATOM      5  O   UNL     1      -5.778  -8.800  11.840  0.00  0.00    -0.275 OA
ATOM      6  N   UNL     1      -4.553 -10.377  13.001  0.00  0.00    -0.312 N 
ATOM     17  C   UNL     1      -4.859  -9.620  11.872  0.00  0.00    +0.218 C 
ATOM     29  H   UNL     1      -3.759 -11.010  12.979  0.00  0.00    +0.149 HD
BRANCH  17  16
ATOM     16  C   UNL     1      -3.952  -9.886  10.653  0.00  0.00    +0.039 C 
ATOM     19  C   UNL     1      -4.313 -11.249  10.034  0.00  0.00    +0.020 C 
ATOM     20  C   UNL     1      -2.479  -9.922  11.088  0.00  0.00    +0.020 C 
ATOM     21  C   UNL     1      -4.163  -8.797   9.591  0.00  0.00    +0.020 C 
ENDBRANCH  17  16
ENDBRANCH  13   6
ENDBRANCH   8  13
BRANCH  10  14
ATOM     14  C   UNL     1      -6.560 -10.693  18.381  0.00  0.00    +0.090 C 
BRANCH  14  15
ATOM      4  O   UNL     1     -10.087  -9.952  18.386  0.00  0.00    -0.354 OA
ATOM      7  N   UNL     1      -8.978 -10.658  18.836  0.00  0.00    -0.083 NA
ATOM     15  C   UNL     1      -7.948 -10.158  18.149  0.00  0.00    +0.087 A 
ATOM     18  C   UNL     1      -8.340  -9.142  17.261  0.00  0.00    +0.076 A 
ATOM     22  C   UNL     1      -9.695  -9.052  17.448  0.00  0.00    +0.167 A 
BRANCH  22  23
ATOM      1  F   UNL     1     -13.741  -5.908  15.281  0.00  0.00    -0.205 F 
ATOM     23  C   UNL     1     -10.737  -8.243  16.888  0.00  0.00    +0.020 A 
ATOM     24  C   UNL     1     -10.449  -6.960  16.420  0.00  0.00    +0.014 A 
ATOM     25  C   UNL     1     -12.039  -8.736  16.814  0.00  0.00    +0.014 A 
ATOM     26  C   UNL     1     -11.464  -6.172  15.877  0.00  0.00    +0.039 A 
ATOM     27  C   UNL     1     -13.054  -7.947  16.271  0.00  0.00    +0.039 A 
ATOM     28  C   UNL     1     -12.767  -6.666  15.802  0.00  0.00    +0.123 A 
ENDBRANCH  22  23
ENDBRANCH  14  15
ENDBRANCH  10  14
TORSDOF 7
ENDMDL
MODEL 9
REMARK VINA RESULT:      -6.5     28.055     29.149
REMARK  Name = 75536243
REMARK  10 active torsions:
REMARK  status: ('A' for Active; 'I' for Inactive)
REMARK    1  A    between atoms: O_3  and  C_9
REMARK    2  A    between atoms: N_6  and  C_13
REMARK    3  A    between atoms: C_8  and  C_13
REMARK    4  A    between atoms: C_10  and  C_14
REMARK    5  A    between atoms: C_14  and  C_15
REMARK    6  A    between atoms: C_16  and  C_17
REMARK    7  A    between atoms: C_16  and  C_19
REMARK    8  A    between atoms: C_16  and  C_20
REMARK    9  A    between atoms: C_16  and  C_21
REMARK   10  A    between atoms: C_22  and  C_23
REMARK                            x       y       z     vdW  Elec       q    Type
REMARK                         _______ _______ _______ _____ _____    ______ ____
ROOT
ATOM      2  O   UNL     1      -6.420 -11.444  16.996  0.00  0.00    -0.369 OA
ATOM      8  C   UNL     1      -7.536 -10.645  17.411  0.00  0.00    +0.164 C 
ATOM      9  C   UNL     1      -7.720 -10.691  18.933  0.00  0.00    +0.145 C 
ATOM     10  C   UNL     1      -5.175 -11.123  17.621  0.00  0.00    +0.125 C 
ATOM     11  C   UNL     1      -6.420 -10.414  19.684  0.00  0.00    +0.036 C 
ATOM     12  C   UNL     1      -5.281 -11.270  19.138  0.00  0.00    +0.034 C 
ENDROOT
BRANCH   9   3
ATOM      3  O   UNL     1      -8.168 -11.998  19.304  0.00  0.00    -0.389 OA
ATOM     30  H   UNL     1      -7.986 -12.113  20.252  0.00  0.00    +0.210 HD
ENDBRANCH   9   3
BRANCH   8  13
ATOM     13  C   UNL     1      -7.426  -9.222  16.866  0.00  0.00    +0.138 C 
BRANCH  13   6
ATOM      5  O   UNL     1      -9.665  -7.788  17.890  0.00  0.00    -0.275 OA
ATOM      6  N   UNL     1      -8.604  -8.858  16.139  0.00  0.00    -0.312 N 
ATOM     17  C   UNL     1      -9.660  -8.154  16.714  0.00  0.00    +0.218 C 
ATOM     29  H   UNL     1      -8.640  -9.099  15.154  0.00  0.00    +0.149 HD
BRANCH  17  16
ATOM     16  C   UNL     1     -10.834  -7.859  15.756  0.00  0.00    +0.039 C 
ATOM     19  C   UNL     1     -12.157  -8.274  16.426  0.00  0.00    +0.020 C 
ATOM     20  C   UNL     1     -10.670  -8.663  14.458  0.00  0.00    +0.020 C 
ATOM     21  C   UNL     1     -10.894  -6.357  15.444  0.00  0.00    +0.020 C 
ENDBRANCH  17  16
ENDBRANCH  13   6
ENDBRANCH   8  13
BRANCH  10  14
ATOM     14  C   UNL     1      -4.121 -12.067  17.056  0.00  0.00    +0.090 C 
BRANCH  14  15
ATOM      4  O   UNL     1      -3.169 -12.186  13.583  0.00  0.00    -0.354 OA
ATOM      7  N   UNL     1      -3.213 -12.720  14.865  0.00  0.00    -0.083 NA
ATOM     15  C   UNL     1      -3.878 -11.819  15.591  0.00  0.00    +0.087 A 
ATOM     18  C   UNL     1      -4.276 -10.706  14.830  0.00  0.00    +0.076 A 
ATOM     22  C   UNL     1      -3.805 -10.987  13.574  0.00  0.00    +0.167 A 
BRANCH  22  23
ATOM      1  F   UNL     1      -3.953  -8.359   8.673  0.00  0.00    -0.205 F 
ATOM     23  C   UNL     1      -3.844 -10.311  12.311  0.00  0.00    +0.020 A 
ATOM     24  C   UNL     1      -2.679 -10.180  11.554  0.00  0.00    +0.014 A 
ATOM     25  C   UNL     1      -5.045  -9.784  11.838  0.00  0.00    +0.014 A 
ATOM     26  C   UNL     1      -2.716  -9.520  10.326  0.00  0.00    +0.039 A 
ATOM     27  C   UNL     1      -5.082  -9.124  10.609  0.00  0.00    +0.039 A 
ATOM     28  C   UNL     1      -3.918  -8.993   9.853  0.00  0.00    +0.123 A 
ENDBRANCH  22  23
ENDBRANCH  14  15
ENDBRANCH  10  14
TORSDOF 7
ENDMDL
MODEL 10
REMARK VINA RESULT:      -6.5     20.216     23.258
REMARK  Name = 75536243
REMARK  10 active torsions:
REMARK  status: ('A' for Active; 'I' for Inactive)
REMARK    1  A    between atoms: O_3  and  C_9
REMARK    2  A    between atoms: N_6  and  C_13
REMARK    3  A    between atoms: C_8  and  C_13
REMARK    4  A    between atoms: C_10  and  C_14
REMARK    5  A    between atoms: C_14  and  C_15
REMARK    6  A    between atoms: C_16  and  C_17
REMARK    7  A    between atoms: C_16  and  C_19
REMARK    8  A    between atoms: C_16  and  C_20
REMARK    9  A    between atoms: C_16  and  C_21
REMARK   10  A    between atoms: C_22  and  C_23
REMARK                            x       y       z     vdW  Elec       q    Type
REMARK                         _______ _______ _______ _____ _____    ______ ____
ROOT
ATOM      2  O   UNL     1      12.906   3.379   0.705  0.00  0.00    -0.369 OA
ATOM      8  C   UNL     1      13.422   4.208   1.755  0.00  0.00    +0.164 C 
ATOM      9  C   UNL     1      14.943   4.370   1.642  0.00  0.00    +0.145 C 
ATOM     10  C   UNL     1      13.228   3.804  -0.621  0.00  0.00    +0.125 C 
ATOM     11  C   UNL     1      15.382   4.770   0.236  0.00  0.00    +0.036 C 
ATOM     12  C   UNL     1      14.742   3.866  -0.813  0.00  0.00    +0.034 C 
ENDROOT
BRANCH   9   3
ATOM      3  O   UNL     1      15.563   3.119   1.954  0.00  0.00    -0.389 OA
ATOM     30  H   UNL     1      16.094   2.854   1.183  0.00  0.00    +0.210 HD
ENDBRANCH   9   3
BRANCH   8  13
ATOM     13  C   UNL     1      12.682   5.544   1.814  0.00  0.00    +0.138 C 
BRANCH  13   6
ATOM      5  O   UNL     1      10.096   4.639   2.596  0.00  0.00    -0.275 OA
ATOM      6  N   UNL     1      12.068   5.735   3.092  0.00  0.00    -0.312 N 
ATOM     17  C   UNL     1      10.794   5.260   3.398  0.00  0.00    +0.218 C 
ATOM     29  H   UNL     1      12.613   6.206   3.808  0.00  0.00    +0.149 HD
BRANCH  17  16
ATOM     16  C   UNL     1      10.320   5.569   4.834  0.00  0.00    +0.039 C 
ATOM     19  C   UNL     1       9.086   6.489   4.777  0.00  0.00    +0.020 C 
ATOM     20  C   UNL     1      11.431   6.288   5.613  0.00  0.00    +0.020 C 
ATOM     21  C   UNL     1       9.928   4.269   5.551  0.00  0.00    +0.020 C 
ENDBRANCH  17  16
ENDBRANCH  13   6
ENDBRANCH   8  13
BRANCH  10  14
ATOM     14  C   UNL     1      12.598   2.810  -1.588  0.00  0.00    +0.090 C 
BRANCH  14  15
ATOM      4  O   UNL     1       9.367   3.273  -3.116  0.00  0.00    -0.354 OA
ATOM      7  N   UNL     1      10.430   2.479  -2.704  0.00  0.00    -0.083 NA
ATOM     15  C   UNL     1      11.302   3.327  -2.154  0.00  0.00    +0.087 A 
ATOM     18  C   UNL     1      10.849   4.657  -2.188  0.00  0.00    +0.076 A 
ATOM     22  C   UNL     1       9.628   4.569  -2.804  0.00  0.00    +0.167 A 
BRANCH  22  23
ATOM      1  F   UNL     1       5.696   8.240  -4.224  0.00  0.00    -0.205 F 
ATOM     23  C   UNL     1       8.614   5.514  -3.169  0.00  0.00    +0.020 A 
ATOM     24  C   UNL     1       7.827   5.291  -4.299  0.00  0.00    +0.014 A 
ATOM     25  C   UNL     1       8.415   6.657  -2.395  0.00  0.00    +0.014 A 
ATOM     26  C   UNL     1       6.842   6.213  -4.656  0.00  0.00    +0.039 A 
ATOM     27  C   UNL     1       7.429   7.578  -2.751  0.00  0.00    +0.039 A 
ATOM     28  C   UNL     1       6.642   7.355  -3.881  0.00  0.00    +0.123 A 
ENDBRANCH  22  23
ENDBRANCH  14  15
ENDBRANCH  10  14
TORSDOF 7
ENDMDL
