MODEL 1
REMARK VINA RESULT:      -7.8      0.000      0.000
REMARK  Name = 40780660
REMARK  8 active torsions:
REMARK  status: ('A' for Active; 'I' for Inactive)
REMARK    1  A    between atoms: O_3  and  C_13
REMARK    2  A    between atoms: O_4  and  C_14
REMARK    3  A    between atoms: N_10  and  C_23
REMARK    4  A    between atoms: N_11  and  C_17
REMARK    5  A    between atoms: C_12  and  C_16
REMARK    6  A    between atoms: C_15  and  C_17
REMARK    7  A    between atoms: C_16  and  C_18
REMARK    8  A    between atoms: C_24  and  C_27
REMARK                            x       y       z     vdW  Elec       q    Type
REMARK                         _______ _______ _______ _____ _____    ______ ____
ROOT
ATOM      2  O   UNL     1      -8.567 -12.269  19.121  0.00  0.00    -0.366 OA
ATOM     12  C   UNL     1      -7.125 -12.176  19.070  0.00  0.00    +0.159 C 
ATOM     13  C   UNL     1      -6.800 -10.709  18.810  0.00  0.00    +0.175 C 
ATOM     14  C   UNL     1      -8.019 -10.246  18.041  0.00  0.00    +0.176 C 
ATOM     15  C   UNL     1      -9.131 -10.999  18.754  0.00  0.00    +0.167 C 
ENDROOT
BRANCH  13   3
ATOM      3  O   UNL     1      -6.725 -10.042  20.070  0.00  0.00    -0.387 OA
ATOM     37  H   UNL     1      -7.375 -10.461  20.659  0.00  0.00    +0.210 HD
ENDBRANCH  13   3
BRANCH  14   4
ATOM      4  O   UNL     1      -8.213  -8.848  18.087  0.00  0.00    -0.387 OA
ATOM     38  H   UNL     1      -8.866  -8.667  18.784  0.00  0.00    +0.210 HD
ENDBRANCH  14   4
BRANCH  12  16
ATOM     16  C   UNL     1      -6.638 -13.100  17.963  0.00  0.00    +0.130 C 
BRANCH  16  18
ATOM      5  O   UNL     1      -4.314 -12.915  18.412  0.00  0.00    -0.276 OA
ATOM      9  N   UNL     1      -5.023 -12.253  16.300  0.00  0.00    -0.298 N 
ATOM     10  N   UNL     1      -4.537 -11.007  13.733  0.00  0.00    -0.327 N 
ATOM     18  C   UNL     1      -5.218 -12.750  17.590  0.00  0.00    +0.218 C 
ATOM     19  C   UNL     1      -3.677 -11.896  15.863  0.00  0.00    +0.126 C 
ATOM     20  C   UNL     1      -6.101 -12.047  15.330  0.00  0.00    +0.126 C 
ATOM     21  C   UNL     1      -3.686 -10.717  14.891  0.00  0.00    +0.124 C 
ATOM     22  C   UNL     1      -5.598 -12.007  13.887  0.00  0.00    +0.124 C 
BRANCH  10  23
ATOM      1  F   UNL     1      -3.661  -8.498   8.894  0.00  0.00    -0.205 F 
ATOM     23  C   UNL     1      -4.317 -10.374  12.513  0.00  0.00    +0.030 A 
ATOM     25  C   UNL     1      -3.053 -10.421  11.921  0.00  0.00    +0.026 A 
ATOM     26  C   UNL     1      -5.357  -9.693  11.881  0.00  0.00    +0.026 A 
ATOM     28  C   UNL     1      -2.832  -9.788  10.699  0.00  0.00    +0.040 A 
ATOM     29  C   UNL     1      -5.135  -9.060  10.658  0.00  0.00    +0.040 A 
ATOM     31  C   UNL     1      -3.873  -9.107  10.068  0.00  0.00    +0.124 A 
ENDBRANCH  10  23
ENDBRANCH  16  18
ENDBRANCH  12  16
BRANCH  15  17
ATOM     17  C   UNL     1     -10.361 -11.215  17.890  0.00  0.00    +0.138 C 
BRANCH  17  11
ATOM      6  O   UNL     1     -12.292  -9.190  18.530  0.00  0.00    -0.270 OA
ATOM     11  N   UNL     1     -10.664 -10.047  17.117  0.00  0.00    -0.309 N 
ATOM     24  C   UNL     1     -11.620  -9.113  17.504  0.00  0.00    +0.244 C 
ATOM     39  H   UNL     1     -10.105  -9.893  16.284  0.00  0.00    +0.149 HD
BRANCH  24  27
ATOM      7  O   UNL     1     -14.337  -6.443  14.373  0.00  0.00    -0.453 OA
ATOM      8  O   UNL     1     -12.561  -4.856  14.006  0.00  0.00    -0.453 OA
ATOM     27  C   UNL     1     -11.835  -7.970  16.580  0.00  0.00    +0.040 A 
ATOM     30  C   UNL     1     -13.064  -7.824  15.934  0.00  0.00    +0.062 A 
ATOM     32  C   UNL     1     -10.799  -7.044  16.366  0.00  0.00    +0.017 A 
ATOM     33  C   UNL     1     -13.217  -6.745  15.086  0.00  0.00    +0.167 A 
ATOM     34  C   UNL     1     -10.980  -5.961  15.503  0.00  0.00    +0.050 A 
ATOM     35  C   UNL     1     -12.203  -5.839  14.876  0.00  0.00    +0.166 A 
ATOM     36  C   UNL     1     -13.913  -5.245  13.691  0.00  0.00    +0.466 C 
ENDBRANCH  24  27
ENDBRANCH  17  11
ENDBRANCH  15  17
TORSDOF 8
ENDMDL
MODEL 2
REMARK VINA RESULT:      -7.8     18.000     20.702
REMARK  Name = 40780660
REMARK  8 active torsions:
REMARK  status: ('A' for Active; 'I' for Inactive)
REMARK    1  A    between atoms: O_3  and  C_13
REMARK    2  A    between atoms: O_4  and  C_14
REMARK    3  A    between atoms: N_10  and  C_23
REMARK    4  A    between atoms: N_11  and  C_17
REMARK    5  A    between atoms: C_12  and  C_16
REMARK    6  A    between atoms: C_15  and  C_17
REMARK    7  A    between atoms: C_16  and  C_18
REMARK    8  A    between atoms: C_24  and  C_27
REMARK                            x       y       z     vdW  Elec       q    Type
REMARK                         _______ _______ _______ _____ _____    ______ ____
ROOT
ATOM      2  O   UNL     1     -15.538   2.918  24.511  0.00  0.00    -0.366 OA
ATOM     12  C   UNL     1     -16.733   2.113  24.619  0.00  0.00    +0.159 C 
ATOM     13  C   UNL     1     -17.609   2.483  23.427  0.00  0.00    +0.175 C 
ATOM     14  C   UNL     1     -17.196   3.916  23.165  0.00  0.00    +0.176 C 
ATOM     15  C   UNL     1     -15.701   3.856  23.434  0.00  0.00    +0.167 C 
ENDROOT
BRANCH  13   3
ATOM      3  O   UNL     1     -17.236   1.651  22.329  0.00  0.00    -0.387 OA
ATOM     37  H   UNL     1     -16.270   1.712  22.233  0.00  0.00    +0.210 HD
ENDBRANCH  13   3
BRANCH  14   4
ATOM      4  O   UNL     1     -17.481   4.350  21.852  0.00  0.00    -0.387 OA
ATOM     38  H   UNL     1     -17.874   3.598  21.376  0.00  0.00    +0.210 HD
ENDBRANCH  14   4
BRANCH  12  16
ATOM     16  C   UNL     1     -17.387   2.427  25.958  0.00  0.00    +0.130 C 
BRANCH  16  18
ATOM      5  O   UNL     1     -16.943   0.263  26.829  0.00  0.00    -0.276 OA
ATOM      9  N   UNL     1     -16.337   2.067  28.162  0.00  0.00    -0.298 N 
ATOM     10  N   UNL     1     -15.410   3.172  30.671  0.00  0.00    -0.327 N 
ATOM     18  C   UNL     1     -16.873   1.479  27.015  0.00  0.00    +0.218 C 
ATOM     19  C   UNL     1     -15.815   1.218  29.229  0.00  0.00    +0.126 C 
ATOM     20  C   UNL     1     -16.266   3.513  28.385  0.00  0.00    +0.126 C 
ATOM     21  C   UNL     1     -16.022   1.842  30.608  0.00  0.00    +0.124 C 
ATOM     22  C   UNL     1     -15.206   3.901  29.417  0.00  0.00    +0.124 C 
BRANCH  10  23
ATOM      1  F   UNL     1     -13.787   5.300  35.501  0.00  0.00    -0.205 F 
ATOM     23  C   UNL     1     -15.000   3.708  31.889  0.00  0.00    +0.030 A 
ATOM     25  C   UNL     1     -14.621   5.050  31.969  0.00  0.00    +0.026 A 
ATOM     26  C   UNL     1     -14.969   2.907  33.031  0.00  0.00    +0.026 A 
ATOM     28  C   UNL     1     -14.212   5.587  33.188  0.00  0.00    +0.040 A 
ATOM     29  C   UNL     1     -14.559   3.445  34.250  0.00  0.00    +0.040 A 
ATOM     31  C   UNL     1     -14.181   4.785  34.329  0.00  0.00    +0.124 A 
ENDBRANCH  10  23
ENDBRANCH  16  18
ENDBRANCH  12  16
BRANCH  15  17
ATOM     17  C   UNL     1     -15.106   5.196  23.827  0.00  0.00    +0.138 C 
BRANCH  17  11
ATOM      6  O   UNL     1     -15.861   7.024  21.746  0.00  0.00    -0.270 OA
ATOM     11  N   UNL     1     -14.259   5.711  22.792  0.00  0.00    -0.309 N 
ATOM     24  C   UNL     1     -14.711   6.597  21.819  0.00  0.00    +0.244 C 
ATOM     39  H   UNL     1     -13.281   5.441  22.826  0.00  0.00    +0.149 HD
BRANCH  24  27
ATOM      7  O   UNL     1     -13.423   8.345  17.391  0.00  0.00    -0.453 OA
ATOM      8  O   UNL     1     -11.070   8.213  17.896  0.00  0.00    -0.453 OA
ATOM     27  C   UNL     1     -13.715   7.017  20.799  0.00  0.00    +0.040 A 
ATOM     30  C   UNL     1     -14.151   7.486  19.558  0.00  0.00    +0.062 A 
ATOM     32  C   UNL     1     -12.342   6.940  21.093  0.00  0.00    +0.017 A 
ATOM     33  C   UNL     1     -13.189   7.867  18.644  0.00  0.00    +0.167 A 
ATOM     34  C   UNL     1     -11.390   7.331  20.150  0.00  0.00    +0.050 A 
ATOM     35  C   UNL     1     -11.846   7.791  18.932  0.00  0.00    +0.166 A 
ATOM     36  C   UNL     1     -12.076   8.562  16.923  0.00  0.00    +0.466 C 
ENDBRANCH  24  27
ENDBRANCH  17  11
ENDBRANCH  15  17
TORSDOF 8
ENDMDL
MODEL 3
REMARK VINA RESULT:      -7.8     24.978     27.929
REMARK  Name = 40780660
REMARK  8 active torsions:
REMARK  status: ('A' for Active; 'I' for Inactive)
REMARK    1  A    between atoms: O_3  and  C_13
REMARK    2  A    between atoms: O_4  and  C_14
REMARK    3  A    between atoms: N_10  and  C_23
REMARK    4  A    between atoms: N_11  and  C_17
REMARK    5  A    between atoms: C_12  and  C_16
REMARK    6  A    between atoms: C_15  and  C_17
REMARK    7  A    between atoms: C_16  and  C_18
REMARK    8  A    between atoms: C_24  and  C_27
REMARK                            x       y       z     vdW  Elec       q    Type
REMARK                         _______ _______ _______ _____ _____    ______ ____
ROOT
ATOM      2  O   UNL     1      11.074   6.785   7.494  0.00  0.00    -0.366 OA
ATOM     12  C   UNL     1      10.059   6.245   8.371  0.00  0.00    +0.159 C 
ATOM     13  C   UNL     1       9.706   4.867   7.822  0.00  0.00    +0.175 C 
ATOM     14  C   UNL     1       9.991   5.034   6.344  0.00  0.00    +0.176 C 
ATOM     15  C   UNL     1      11.240   5.901   6.372  0.00  0.00    +0.167 C 
ENDROOT
BRANCH  13   3
ATOM      3  O   UNL     1      10.604   3.919   8.397  0.00  0.00    -0.387 OA
ATOM     37  H   UNL     1      10.930   4.296   9.232  0.00  0.00    +0.210 HD
ENDBRANCH  13   3
BRANCH  14   4
ATOM      4  O   UNL     1      10.213   3.810   5.676  0.00  0.00    -0.387 OA
ATOM     38  H   UNL     1      11.083   3.478   5.956  0.00  0.00    +0.210 HD
ENDBRANCH  14   4
BRANCH  12  16
ATOM     16  C   UNL     1       8.880   7.208   8.367  0.00  0.00    +0.130 C 
BRANCH  16  18
ATOM      5  O   UNL     1       9.980   9.310   8.273  0.00  0.00    -0.276 OA
ATOM      9  N   UNL     1       8.787   8.674   6.384  0.00  0.00    -0.298 N 
ATOM     10  N   UNL     1       7.658   9.247   3.781  0.00  0.00    -0.327 N 
ATOM     18  C   UNL     1       9.270   8.495   7.681  0.00  0.00    +0.218 C 
ATOM     19  C   UNL     1       9.124   9.891   5.651  0.00  0.00    +0.126 C 
ATOM     20  C   UNL     1       7.933   7.709   5.687  0.00  0.00    +0.126 C 
ATOM     21  C   UNL     1       7.997  10.325   4.715  0.00  0.00    +0.124 C 
ATOM     22  C   UNL     1       7.976   7.870   4.167  0.00  0.00    +0.124 C 
BRANCH  10  23
ATOM      1  F   UNL     1       5.371  10.380  -1.116  0.00  0.00    -0.205 F 
ATOM     23  C   UNL     1       7.082   9.532   2.546  0.00  0.00    +0.030 A 
ATOM     25  C   UNL     1       5.778  10.028   2.482  0.00  0.00    +0.026 A 
ATOM     26  C   UNL     1       7.806   9.325   1.372  0.00  0.00    +0.026 A 
ATOM     28  C   UNL     1       5.201  10.314   1.246  0.00  0.00    +0.040 A 
ATOM     29  C   UNL     1       7.228   9.611   0.136  0.00  0.00    +0.040 A 
ATOM     31  C   UNL     1       5.926  10.106   0.073  0.00  0.00    +0.124 A 
ENDBRANCH  10  23
ENDBRANCH  16  18
ENDBRANCH  12  16
BRANCH  15  17
ATOM     17  C   UNL     1      11.435   6.714   5.105  0.00  0.00    +0.138 C 
BRANCH  17  11
ATOM      6  O   UNL     1      10.784   7.232   2.356  0.00  0.00    -0.270 OA
ATOM     11  N   UNL     1      11.719   5.867   3.984  0.00  0.00    -0.309 N 
ATOM     24  C   UNL     1      11.365   6.198   2.679  0.00  0.00    +0.244 C 
ATOM     39  H   UNL     1      12.247   5.021   4.173  0.00  0.00    +0.149 HD
BRANCH  24  27
ATOM      7  O   UNL     1      10.519   3.788  -1.538  0.00  0.00    -0.453 OA
ATOM      8  O   UNL     1      12.535   2.484  -1.331  0.00  0.00    -0.453 OA
ATOM     27  C   UNL     1      11.707   5.201   1.632  0.00  0.00    +0.040 A 
ATOM     30  C   UNL     1      10.858   5.029   0.537  0.00  0.00    +0.062 A 
ATOM     32  C   UNL     1      12.883   4.440   1.753  0.00  0.00    +0.017 A 
ATOM     33  C   UNL     1      11.218   4.092  -0.411  0.00  0.00    +0.167 A 
ATOM     34  C   UNL     1      13.224   3.499   0.779  0.00  0.00    +0.050 A 
ATOM     35  C   UNL     1      12.369   3.348  -0.293  0.00  0.00    +0.166 A 
ATOM     36  C   UNL     1      11.359   2.768  -2.117  0.00  0.00    +0.466 C 
ENDBRANCH  24  27
ENDBRANCH  17  11
ENDBRANCH  15  17
TORSDOF 8
ENDMDL
MODEL 4
REMARK VINA RESULT:      -7.6      1.924      2.363
REMARK  Name = 40780660
REMARK  8 active torsions:
REMARK  status: ('A' for Active; 'I' for Inactive)
REMARK    1  A    between atoms: O_3  and  C_13
REMARK    2  A    between atoms: O_4  and  C_14
REMARK    3  A    between atoms: N_10  and  C_23
REMARK    4  A    between atoms: N_11  and  C_17
REMARK    5  A    between atoms: C_12  and  C_16
REMARK    6  A    between atoms: C_15  and  C_17
REMARK    7  A    between atoms: C_16  and  C_18
REMARK    8  A    between atoms: C_24  and  C_27
REMARK                            x       y       z     vdW  Elec       q    Type
REMARK                         _______ _______ _______ _____ _____    ______ ____
ROOT
ATOM      2  O   UNL     1      -6.174 -12.132  17.822  0.00  0.00    -0.366 OA
ATOM     12  C   UNL     1      -5.334 -11.138  18.450  0.00  0.00    +0.159 C 
ATOM     13  C   UNL     1      -6.157 -10.534  19.583  0.00  0.00    +0.175 C 
ATOM     14  C   UNL     1      -7.572 -10.699  19.067  0.00  0.00    +0.176 C 
ATOM     15  C   UNL     1      -7.492 -12.058  18.391  0.00  0.00    +0.167 C 
ENDROOT
BRANCH  13   3
ATOM      3  O   UNL     1      -5.957 -11.333  20.748  0.00  0.00    -0.387 OA
ATOM     37  H   UNL     1      -5.830 -12.251  20.454  0.00  0.00    +0.210 HD
ENDBRANCH  13   3
BRANCH  14   4
ATOM      4  O   UNL     1      -8.546 -10.672  20.089  0.00  0.00    -0.387 OA
ATOM     38  H   UNL     1      -8.484  -9.806  20.528  0.00  0.00    +0.210 HD
ENDBRANCH  14   4
BRANCH  12  16
ATOM     16  C   UNL     1      -4.945 -10.119  17.388  0.00  0.00    +0.130 C 
BRANCH  16  18
ATOM      5  O   UNL     1      -2.782 -11.047  17.077  0.00  0.00    -0.276 OA
ATOM      9  N   UNL     1      -4.051 -10.699  15.162  0.00  0.00    -0.298 N 
ATOM     10  N   UNL     1      -4.332 -10.610  12.283  0.00  0.00    -0.327 N 
ATOM     18  C   UNL     1      -3.823 -10.664  16.539  0.00  0.00    +0.218 C 
ATOM     19  C   UNL     1      -3.015 -11.217  14.273  0.00  0.00    +0.126 C 
ATOM     20  C   UNL     1      -5.284 -10.231  14.524  0.00  0.00    +0.126 C 
ATOM     21  C   UNL     1      -3.016 -10.506  12.921  0.00  0.00    +0.124 C 
ATOM     22  C   UNL     1      -5.500 -10.838  13.137  0.00  0.00    +0.124 C 
BRANCH  10  23
ATOM      1  F   UNL     1      -4.833 -10.292   6.793  0.00  0.00    -0.205 F 
ATOM     23  C   UNL     1      -4.458 -10.529  10.898  0.00  0.00    +0.030 A 
ATOM     25  C   UNL     1      -4.549 -11.696  10.137  0.00  0.00    +0.026 A 
ATOM     26  C   UNL     1      -4.495  -9.284  10.271  0.00  0.00    +0.026 A 
ATOM     28  C   UNL     1      -4.676 -11.616   8.751  0.00  0.00    +0.040 A 
ATOM     29  C   UNL     1      -4.622  -9.204   8.885  0.00  0.00    +0.040 A 
ATOM     31  C   UNL     1      -4.712 -10.370   8.125  0.00  0.00    +0.124 A 
ENDBRANCH  10  23
ENDBRANCH  16  18
ENDBRANCH  12  16
BRANCH  15  17
ATOM     17  C   UNL     1      -8.532 -12.250  17.302  0.00  0.00    +0.138 C 
BRANCH  17  11
ATOM      6  O   UNL     1      -8.649 -10.804  14.824  0.00  0.00    -0.270 OA
ATOM     11  N   UNL     1      -9.251 -11.035  17.053  0.00  0.00    -0.309 N 
ATOM     24  C   UNL     1      -9.252 -10.400  15.815  0.00  0.00    +0.244 C 
ATOM     39  H   UNL     1      -9.817 -10.675  17.814  0.00  0.00    +0.149 HD
BRANCH  24  27
ATOM      7  O   UNL     1     -12.334  -7.281  13.558  0.00  0.00    -0.453 OA
ATOM      8  O   UNL     1     -12.216  -5.682  15.357  0.00  0.00    -0.453 OA
ATOM     27  C   UNL     1     -10.026  -9.134  15.726  0.00  0.00    +0.040 A 
ATOM     30  C   UNL     1     -10.816  -8.883  14.602  0.00  0.00    +0.062 A 
ATOM     32  C   UNL     1      -9.957  -8.201  16.775  0.00  0.00    +0.017 A 
ATOM     33  C   UNL     1     -11.518  -7.696  14.566  0.00  0.00    +0.167 A 
ATOM     34  C   UNL     1     -10.678  -7.006  16.713  0.00  0.00    +0.050 A 
ATOM     35  C   UNL     1     -11.450  -6.782  15.593  0.00  0.00    +0.166 A 
ATOM     36  C   UNL     1     -12.773  -6.005  14.066  0.00  0.00    +0.466 C 
ENDBRANCH  24  27
ENDBRANCH  17  11
ENDBRANCH  15  17
TORSDOF 8
ENDMDL
MODEL 5
REMARK VINA RESULT:      -7.5      3.157      8.898
REMARK  Name = 40780660
REMARK  8 active torsions:
REMARK  status: ('A' for Active; 'I' for Inactive)
REMARK    1  A    between atoms: O_3  and  C_13
REMARK    2  A    between atoms: O_4  and  C_14
REMARK    3  A    between atoms: N_10  and  C_23
REMARK    4  A    between atoms: N_11  and  C_17
REMARK    5  A    between atoms: C_12  and  C_16
REMARK    6  A    between atoms: C_15  and  C_17
REMARK    7  A    between atoms: C_16  and  C_18
REMARK    8  A    between atoms: C_24  and  C_27
REMARK                            x       y       z     vdW  Elec       q    Type
REMARK                         _______ _______ _______ _____ _____    ______ ____
ROOT
ATOM      2  O   UNL     1      -8.822 -10.626  18.965  0.00  0.00    -0.366 OA
ATOM     12  C   UNL     1      -9.945 -10.576  18.055  0.00  0.00    +0.159 C 
ATOM     13  C   UNL     1      -9.573 -11.456  16.866  0.00  0.00    +0.175 C 
ATOM     14  C   UNL     1      -8.062 -11.344  16.852  0.00  0.00    +0.176 C 
ATOM     15  C   UNL     1      -7.744 -11.341  18.338  0.00  0.00    +0.167 C 
ENDROOT
BRANCH  13   3
ATOM      3  O   UNL     1      -9.968 -12.794  17.165  0.00  0.00    -0.387 OA
ATOM     37  H   UNL     1     -10.797 -12.966  16.687  0.00  0.00    +0.210 HD
ENDBRANCH  13   3
BRANCH  14   4
ATOM      4  O   UNL     1      -7.429 -12.411  16.177  0.00  0.00    -0.387 OA
ATOM     38  H   UNL     1      -7.488 -12.229  15.224  0.00  0.00    +0.210 HD
ENDBRANCH  14   4
BRANCH  12  16
ATOM     16  C   UNL     1     -10.169  -9.120  17.671  0.00  0.00    +0.130 C 
BRANCH  16  18
ATOM      5  O   UNL     1     -12.458  -9.498  18.174  0.00  0.00    -0.276 OA
ATOM      9  N   UNL     1     -11.996  -7.862  16.590  0.00  0.00    -0.298 N 
ATOM     10  N   UNL     1     -12.841  -5.987  14.554  0.00  0.00    -0.327 N 
ATOM     18  C   UNL     1     -11.645  -8.853  17.509  0.00  0.00    +0.218 C 
ATOM     19  C   UNL     1     -13.404  -7.541  16.379  0.00  0.00    +0.126 C 
ATOM     20  C   UNL     1     -11.027  -7.105  15.792  0.00  0.00    +0.126 C 
ATOM     21  C   UNL     1     -13.684  -7.124  14.936  0.00  0.00    +0.124 C 
ATOM     22  C   UNL     1     -11.589  -5.777  15.284  0.00  0.00    +0.124 C 
BRANCH  10  23
ATOM      1  F   UNL     1     -14.430  -2.518  10.562  0.00  0.00    -0.205 F 
ATOM     23  C   UNL     1     -13.242  -5.112  13.547  0.00  0.00    +0.030 A 
ATOM     25  C   UNL     1     -12.311  -4.259  12.953  0.00  0.00    +0.026 A 
ATOM     26  C   UNL     1     -14.574  -5.089  13.132  0.00  0.00    +0.026 A 
ATOM     28  C   UNL     1     -12.712  -3.383  11.945  0.00  0.00    +0.040 A 
ATOM     29  C   UNL     1     -14.974  -4.212  12.123  0.00  0.00    +0.040 A 
ATOM     31  C   UNL     1     -14.044  -3.360  11.530  0.00  0.00    +0.124 A 
ENDBRANCH  10  23
ENDBRANCH  16  18
ENDBRANCH  12  16
BRANCH  15  17
ATOM     17  C   UNL     1      -6.424 -10.667  18.669  0.00  0.00    +0.138 C 
BRANCH  17  11
ATOM      6  O   UNL     1      -3.746 -11.655  18.359  0.00  0.00    -0.270 OA
ATOM     11  N   UNL     1      -5.597 -10.548  17.504  0.00  0.00    -0.309 N 
ATOM     24  C   UNL     1      -4.304 -11.059  17.441  0.00  0.00    +0.244 C 
ATOM     39  H   UNL     1      -6.017 -10.113  16.689  0.00  0.00    +0.149 HD
BRANCH  24  27
ATOM      7  O   UNL     1      -4.041 -10.538  12.544  0.00  0.00    -0.453 OA
ATOM      8  O   UNL     1      -1.655 -10.203  12.594  0.00  0.00    -0.453 OA
ATOM     27  C   UNL     1      -3.568 -10.829  16.171  0.00  0.00    +0.040 A 
ATOM     30  C   UNL     1      -4.264 -10.809  14.961  0.00  0.00    +0.062 A 
ATOM     32  C   UNL     1      -2.176 -10.634  16.199  0.00  0.00    +0.017 A 
ATOM     33  C   UNL     1      -3.538 -10.590  13.808  0.00  0.00    +0.167 A 
ATOM     34  C   UNL     1      -1.464 -10.416  15.018  0.00  0.00    +0.050 A 
ATOM     35  C   UNL     1      -2.175 -10.400  13.836  0.00  0.00    +0.166 A 
ATOM     36  C   UNL     1      -2.843 -10.292  11.780  0.00  0.00    +0.466 C 
ENDBRANCH  24  27
ENDBRANCH  17  11
ENDBRANCH  15  17
TORSDOF 8
ENDMDL
MODEL 6
REMARK VINA RESULT:      -7.5      3.529      8.264
REMARK  Name = 40780660
REMARK  8 active torsions:
REMARK  status: ('A' for Active; 'I' for Inactive)
REMARK    1  A    between atoms: O_3  and  C_13
REMARK    2  A    between atoms: O_4  and  C_14
REMARK    3  A    between atoms: N_10  and  C_23
REMARK    4  A    between atoms: N_11  and  C_17
REMARK    5  A    between atoms: C_12  and  C_16
REMARK    6  A    between atoms: C_15  and  C_17
REMARK    7  A    between atoms: C_16  and  C_18
REMARK    8  A    between atoms: C_24  and  C_27
REMARK                            x       y       z     vdW  Elec       q    Type
REMARK                         _______ _______ _______ _____ _____    ______ ____
ROOT
ATOM      2  O   UNL     1      -3.240 -11.207  16.953  0.00  0.00    -0.366 OA
ATOM     12  C   UNL     1      -4.540 -11.702  17.349  0.00  0.00    +0.159 C 
ATOM     13  C   UNL     1      -4.942 -12.735  16.302  0.00  0.00    +0.175 C 
ATOM     14  C   UNL     1      -4.218 -12.234  15.069  0.00  0.00    +0.176 C 
ATOM     15  C   UNL     1      -2.905 -11.749  15.665  0.00  0.00    +0.167 C 
ENDROOT
BRANCH  13   3
ATOM      3  O   UNL     1      -4.418 -14.000  16.704  0.00  0.00    -0.387 OA
ATOM     37  H   UNL     1      -3.560 -14.114  16.262  0.00  0.00    +0.210 HD
ENDBRANCH  13   3
BRANCH  14   4
ATOM      4  O   UNL     1      -4.018 -13.233  14.092  0.00  0.00    -0.387 OA
ATOM     38  H   UNL     1      -3.203 -13.710  14.326  0.00  0.00    +0.210 HD
ENDBRANCH  14   4
BRANCH  12  16
ATOM     16  C   UNL     1      -5.491 -10.515  17.410  0.00  0.00    +0.130 C 
BRANCH  16  18
ATOM      5  O   UNL     1      -6.641 -11.754  19.077  0.00  0.00    -0.276 OA
ATOM      9  N   UNL     1      -7.884 -10.178  17.907  0.00  0.00    -0.298 N 
ATOM     10  N   UNL     1     -10.407  -8.943  17.207  0.00  0.00    -0.327 N 
ATOM     18  C   UNL     1      -6.717 -10.880  18.211  0.00  0.00    +0.218 C 
ATOM     19  C   UNL     1      -9.112 -10.470  18.641  0.00  0.00    +0.126 C 
ATOM     20  C   UNL     1      -7.974  -9.148  16.870  0.00  0.00    +0.126 C 
ATOM     21  C   UNL     1     -10.354 -10.296  17.768  0.00  0.00    +0.124 C 
ATOM     22  C   UNL     1      -9.152  -8.197  17.080  0.00  0.00    +0.124 C 
BRANCH  10  23
ATOM      1  F   UNL     1     -15.231  -6.684  15.754  0.00  0.00    -0.205 F 
ATOM     23  C   UNL     1     -11.623  -8.373  16.841  0.00  0.00    +0.030 A 
ATOM     25  C   UNL     1     -12.814  -9.063  17.073  0.00  0.00    +0.026 A 
ATOM     26  C   UNL     1     -11.652  -7.113  16.242  0.00  0.00    +0.026 A 
ATOM     28  C   UNL     1     -14.033  -8.492  16.706  0.00  0.00    +0.040 A 
ATOM     29  C   UNL     1     -12.871  -6.544  15.875  0.00  0.00    +0.040 A 
ATOM     31  C   UNL     1     -14.061  -7.233  16.107  0.00  0.00    +0.124 A 
ENDBRANCH  10  23
ENDBRANCH  16  18
ENDBRANCH  12  16
BRANCH  15  17
ATOM     17  C   UNL     1      -2.220 -10.686  14.825  0.00  0.00    +0.138 C 
BRANCH  17  11
ATOM      6  O   UNL     1      -1.696 -10.920  12.011  0.00  0.00    -0.270 OA
ATOM     11  N   UNL     1      -3.067 -10.244  13.757  0.00  0.00    -0.309 N 
ATOM     24  C   UNL     1      -2.733 -10.398  12.415  0.00  0.00    +0.244 C 
ATOM     39  H   UNL     1      -3.966  -9.852  14.019  0.00  0.00    +0.149 HD
BRANCH  24  27
ATOM      7  O   UNL     1      -7.272  -9.133  10.961  0.00  0.00    -0.453 OA
ATOM      8  O   UNL     1      -6.500  -8.401   8.799  0.00  0.00    -0.453 OA
ATOM     27  C   UNL     1      -3.707  -9.863  11.429  0.00  0.00    +0.040 A 
ATOM     30  C   UNL     1      -5.061  -9.787  11.763  0.00  0.00    +0.062 A 
ATOM     32  C   UNL     1      -3.257  -9.436  10.167  0.00  0.00    +0.017 A 
ATOM     33  C   UNL     1      -5.927  -9.281  10.816  0.00  0.00    +0.167 A 
ATOM     34  C   UNL     1      -4.155  -8.928   9.226  0.00  0.00    +0.050 A 
ATOM     35  C   UNL     1      -5.486  -8.863   9.580  0.00  0.00    +0.166 A 
ATOM     36  C   UNL     1      -7.629  -8.575   9.680  0.00  0.00    +0.466 C 
ENDBRANCH  24  27
ENDBRANCH  17  11
ENDBRANCH  15  17
TORSDOF 8
ENDMDL
MODEL 7
REMARK VINA RESULT:      -7.4     24.415     28.325
REMARK  Name = 40780660
REMARK  8 active torsions:
REMARK  status: ('A' for Active; 'I' for Inactive)
REMARK    1  A    between atoms: O_3  and  C_13
REMARK    2  A    between atoms: O_4  and  C_14
REMARK    3  A    between atoms: N_10  and  C_23
REMARK    4  A    between atoms: N_11  and  C_17
REMARK    5  A    between atoms: C_12  and  C_16
REMARK    6  A    between atoms: C_15  and  C_17
REMARK    7  A    between atoms: C_16  and  C_18
REMARK    8  A    between atoms: C_24  and  C_27
REMARK                            x       y       z     vdW  Elec       q    Type
REMARK                         _______ _______ _______ _____ _____    ______ ____
ROOT
ATOM      2  O   UNL     1      12.650   3.202   0.670  0.00  0.00    -0.366 OA
ATOM     12  C   UNL     1      13.896   3.641   0.082  0.00  0.00    +0.159 C 
ATOM     13  C   UNL     1      14.520   4.613   1.077  0.00  0.00    +0.175 C 
ATOM     14  C   UNL     1      13.300   5.184   1.769  0.00  0.00    +0.176 C 
ATOM     15  C   UNL     1      12.406   3.958   1.868  0.00  0.00    +0.167 C 
ENDROOT
BRANCH  13   3
ATOM      3  O   UNL     1      15.306   3.859   1.999  0.00  0.00    -0.387 OA
ATOM     37  H   UNL     1      16.190   3.752   1.608  0.00  0.00    +0.210 HD
ENDBRANCH  13   3
BRANCH  14   4
ATOM      4  O   UNL     1      13.583   5.736   3.037  0.00  0.00    -0.387 OA
ATOM     38  H   UNL     1      14.518   6.002   3.037  0.00  0.00    +0.210 HD
ENDBRANCH  14   4
BRANCH  12  16
ATOM     16  C   UNL     1      13.575   4.285  -1.260  0.00  0.00    +0.130 C 
BRANCH  16  18
ATOM      5  O   UNL     1      12.778   2.315  -2.318  0.00  0.00    -0.276 OA
ATOM      9  N   UNL     1      11.310   4.114  -2.223  0.00  0.00    -0.298 N 
ATOM     10  N   UNL     1       8.834   5.414  -2.969  0.00  0.00    -0.327 N 
ATOM     18  C   UNL     1      12.527   3.475  -1.982  0.00  0.00    +0.218 C 
ATOM     19  C   UNL     1      10.243   3.395  -2.912  0.00  0.00    +0.126 C 
ATOM     20  C   UNL     1      11.019   5.496  -1.833  0.00  0.00    +0.126 C 
ATOM     21  C   UNL     1       9.393   4.325  -3.777  0.00  0.00    +0.124 C 
ATOM     22  C   UNL     1       9.520   5.779  -1.727  0.00  0.00    +0.124 C 
BRANCH  10  23
ATOM      1  F   UNL     1       4.183   7.959  -4.512  0.00  0.00    -0.205 F 
ATOM     23  C   UNL     1       7.661   6.056  -3.358  0.00  0.00    +0.030 A 
ATOM     25  C   UNL     1       6.922   5.566  -4.436  0.00  0.00    +0.026 A 
ATOM     26  C   UNL     1       7.223   7.189  -2.670  0.00  0.00    +0.026 A 
ATOM     28  C   UNL     1       5.748   6.209  -4.826  0.00  0.00    +0.040 A 
ATOM     29  C   UNL     1       6.049   7.831  -3.060  0.00  0.00    +0.040 A 
ATOM     31  C   UNL     1       5.311   7.341  -4.138  0.00  0.00    +0.124 A 
ENDBRANCH  10  23
ENDBRANCH  16  18
ENDBRANCH  12  16
BRANCH  15  17
ATOM     17  C   UNL     1      10.929   4.297   1.967  0.00  0.00    +0.138 C 
BRANCH  17  11
ATOM      6  O   UNL     1       9.762   6.714   2.986  0.00  0.00    -0.270 OA
ATOM     11  N   UNL     1      10.547   4.557   3.324  0.00  0.00    -0.309 N 
ATOM     24  C   UNL     1       9.986   5.763   3.732  0.00  0.00    +0.244 C 
ATOM     39  H   UNL     1      10.654   3.792   3.983  0.00  0.00    +0.149 HD
BRANCH  24  27
ATOM      7  O   UNL     1      10.077   4.179   8.401  0.00  0.00    -0.453 OA
ATOM      8  O   UNL     1       8.862   6.102   9.197  0.00  0.00    -0.453 OA
ATOM     27  C   UNL     1       9.669   5.885   5.178  0.00  0.00    +0.040 A 
ATOM     30  C   UNL     1      10.079   4.886   6.064  0.00  0.00    +0.062 A 
ATOM     32  C   UNL     1       8.960   7.007   5.643  0.00  0.00    +0.017 A 
ATOM     33  C   UNL     1       9.763   5.045   7.398  0.00  0.00    +0.167 A 
ATOM     34  C   UNL     1       8.653   7.142   6.998  0.00  0.00    +0.050 A 
ATOM     35  C   UNL     1       9.069   6.142   7.853  0.00  0.00    +0.166 A 
ATOM     36  C   UNL     1       9.503   4.856   9.538  0.00  0.00    +0.466 C 
ENDBRANCH  24  27
ENDBRANCH  17  11
ENDBRANCH  15  17
TORSDOF 8
ENDMDL
MODEL 8
REMARK VINA RESULT:      -7.3      3.324      8.250
REMARK  Name = 40780660
REMARK  8 active torsions:
REMARK  status: ('A' for Active; 'I' for Inactive)
REMARK    1  A    between atoms: O_3  and  C_13
REMARK    2  A    between atoms: O_4  and  C_14
REMARK    3  A    between atoms: N_10  and  C_23
REMARK    4  A    between atoms: N_11  and  C_17
REMARK    5  A    between atoms: C_12  and  C_16
REMARK    6  A    between atoms: C_15  and  C_17
REMARK    7  A    between atoms: C_16  and  C_18
REMARK    8  A    between atoms: C_24  and  C_27
REMARK                            x       y       z     vdW  Elec       q    Type
REMARK                         _______ _______ _______ _____ _____    ______ ____
ROOT
ATOM      2  O   UNL     1      -4.782 -10.610  17.935  0.00  0.00    -0.366 OA
ATOM     12  C   UNL     1      -6.124 -11.148  17.903  0.00  0.00    +0.159 C 
ATOM     13  C   UNL     1      -6.026 -12.502  17.207  0.00  0.00    +0.175 C 
ATOM     14  C   UNL     1      -4.834 -12.302  16.294  0.00  0.00    +0.176 C 
ATOM     15  C   UNL     1      -3.916 -11.466  17.171  0.00  0.00    +0.167 C 
ENDROOT
BRANCH  13   3
ATOM      3  O   UNL     1      -5.733 -13.487  18.197  0.00  0.00    -0.387 OA
ATOM     37  H   UNL     1      -5.450 -13.018  19.000  0.00  0.00    +0.210 HD
ENDBRANCH  13   3
BRANCH  14   4
ATOM      4  O   UNL     1      -4.227 -13.512  15.894  0.00  0.00    -0.387 OA
ATOM     38  H   UNL     1      -3.926 -13.398  14.976  0.00  0.00    +0.210 HD
ENDBRANCH  14   4
BRANCH  12  16
ATOM     16  C   UNL     1      -7.005 -10.157  17.155  0.00  0.00    +0.130 C 
BRANCH  16  18
ATOM      5  O   UNL     1      -8.553 -10.671  18.880  0.00  0.00    -0.276 OA
ATOM      9  N   UNL     1      -9.272  -9.187  17.244  0.00  0.00    -0.298 N 
ATOM     10  N   UNL     1     -11.349  -7.629  15.964  0.00  0.00    -0.327 N 
ATOM     18  C   UNL     1      -8.342 -10.037  17.845  0.00  0.00    +0.218 C 
ATOM     19  C   UNL     1     -10.588  -9.014  17.853  0.00  0.00    +0.126 C 
ATOM     20  C   UNL     1      -9.023  -8.444  16.007  0.00  0.00    +0.126 C 
ATOM     21  C   UNL     1     -11.676  -8.784  16.805  0.00  0.00    +0.124 C 
ATOM     22  C   UNL     1      -9.943  -7.233  15.848  0.00  0.00    +0.124 C 
BRANCH  10  23
ATOM      1  F   UNL     1     -15.334  -4.772  13.426  0.00  0.00    -0.205 F 
ATOM     23  C   UNL     1     -12.354  -6.909  15.324  0.00  0.00    +0.030 A 
ATOM     25  C   UNL     1     -12.024  -5.827  14.506  0.00  0.00    +0.026 A 
ATOM     26  C   UNL     1     -13.691  -7.267  15.500  0.00  0.00    +0.026 A 
ATOM     28  C   UNL     1     -13.031  -5.106  13.865  0.00  0.00    +0.040 A 
ATOM     29  C   UNL     1     -14.697  -6.546  14.859  0.00  0.00    +0.040 A 
ATOM     31  C   UNL     1     -14.367  -5.465  14.041  0.00  0.00    +0.124 A 
ENDBRANCH  10  23
ENDBRANCH  16  18
ENDBRANCH  12  16
BRANCH  15  17
ATOM     17  C   UNL     1      -2.931 -10.624  16.380  0.00  0.00    +0.138 C 
BRANCH  17  11
ATOM      6  O   UNL     1      -1.865 -11.451  13.846  0.00  0.00    -0.270 OA
ATOM     11  N   UNL     1      -3.452 -10.297  15.086  0.00  0.00    -0.309 N 
ATOM     24  C   UNL     1      -2.868 -10.743  13.903  0.00  0.00    +0.244 C 
ATOM     39  H   UNL     1      -4.313  -9.761  15.061  0.00  0.00    +0.149 HD
BRANCH  24  27
ATOM      7  O   UNL     1      -6.736  -9.249  11.234  0.00  0.00    -0.453 OA
ATOM      8  O   UNL     1      -5.417  -9.047   9.227  0.00  0.00    -0.453 OA
ATOM     27  C   UNL     1      -3.514 -10.296  12.642  0.00  0.00    +0.040 A 
ATOM     30  C   UNL     1      -4.877  -9.995  12.630  0.00  0.00    +0.062 A 
ATOM     32  C   UNL     1      -2.745 -10.178  11.471  0.00  0.00    +0.017 A 
ATOM     33  C   UNL     1      -5.432  -9.582  11.436  0.00  0.00    +0.167 A 
ATOM     34  C   UNL     1      -3.331  -9.758  10.275  0.00  0.00    +0.050 A 
ATOM     35  C   UNL     1      -4.679  -9.467  10.290  0.00  0.00    +0.166 A 
ATOM     36  C   UNL     1      -6.720  -8.911   9.832  0.00  0.00    +0.466 C 
ENDBRANCH  24  27
ENDBRANCH  17  11
ENDBRANCH  15  17
TORSDOF 8
ENDMDL
MODEL 9
REMARK VINA RESULT:      -7.2      3.648      5.782
REMARK  Name = 40780660
REMARK  8 active torsions:
REMARK  status: ('A' for Active; 'I' for Inactive)
REMARK    1  A    between atoms: O_3  and  C_13
REMARK    2  A    between atoms: O_4  and  C_14
REMARK    3  A    between atoms: N_10  and  C_23
REMARK    4  A    between atoms: N_11  and  C_17
REMARK    5  A    between atoms: C_12  and  C_16
REMARK    6  A    between atoms: C_15  and  C_17
REMARK    7  A    between atoms: C_16  and  C_18
REMARK    8  A    between atoms: C_24  and  C_27
REMARK                            x       y       z     vdW  Elec       q    Type
REMARK                         _______ _______ _______ _____ _____    ______ ____
ROOT
ATOM      2  O   UNL     1      -4.556 -11.473  15.061  0.00  0.00    -0.366 OA
ATOM     12  C   UNL     1      -3.650 -11.544  13.937  0.00  0.00    +0.159 C 
ATOM     13  C   UNL     1      -2.241 -11.560  14.522  0.00  0.00    +0.175 C 
ATOM     14  C   UNL     1      -2.428 -10.794  15.815  0.00  0.00    +0.176 C 
ATOM     15  C   UNL     1      -3.794 -11.287  16.266  0.00  0.00    +0.167 C 
ENDROOT
BRANCH  13   3
ATOM      3  O   UNL     1      -1.892 -12.916  14.795  0.00  0.00    -0.387 OA
ATOM     37  H   UNL     1      -1.952 -13.407  13.958  0.00  0.00    +0.210 HD
ENDBRANCH  13   3
BRANCH  14   4
ATOM      4  O   UNL     1      -1.427 -11.062  16.774  0.00  0.00    -0.387 OA
ATOM     38  H   UNL     1      -0.663 -11.433  16.301  0.00  0.00    +0.210 HD
ENDBRANCH  14   4
BRANCH  12  16
ATOM     16  C   UNL     1      -3.912 -10.334  13.051  0.00  0.00    +0.130 C 
BRANCH  16  18
ATOM      5  O   UNL     1      -2.707 -11.379  11.293  0.00  0.00    -0.276 OA
ATOM      9  N   UNL     1      -4.633 -10.226  10.693  0.00  0.00    -0.298 N 
ATOM     10  N   UNL     1      -6.410  -9.114   8.698  0.00  0.00    -0.327 N 
ATOM     18  C   UNL     1      -3.686 -10.698  11.604  0.00  0.00    +0.218 C 
ATOM     19  C   UNL     1      -4.487 -10.540   9.275  0.00  0.00    +0.126 C 
ATOM     20  C   UNL     1      -5.789  -9.407  11.065  0.00  0.00    +0.126 C 
ATOM     21  C   UNL     1      -5.009  -9.413   8.385  0.00  0.00    +0.124 C 
ATOM     22  C   UNL     1      -6.912  -9.464  10.029  0.00  0.00    +0.124 C 
BRANCH  10  23
ATOM      1  F   UNL     1      -9.724  -6.860   4.900  0.00  0.00    -0.205 F 
ATOM     23  C   UNL     1      -7.245  -8.545   7.740  0.00  0.00    +0.030 A 
ATOM     25  C   UNL     1      -7.403  -9.161   6.497  0.00  0.00    +0.026 A 
ATOM     26  C   UNL     1      -7.926  -7.360   8.022  0.00  0.00    +0.026 A 
ATOM     28  C   UNL     1      -8.240  -8.592   5.538  0.00  0.00    +0.040 A 
ATOM     29  C   UNL     1      -8.763  -6.791   7.062  0.00  0.00    +0.040 A 
ATOM     31  C   UNL     1      -8.920  -7.407   5.821  0.00  0.00    +0.124 A 
ENDBRANCH  10  23
ENDBRANCH  16  18
ENDBRANCH  12  16
BRANCH  15  17
ATOM     17  C   UNL     1      -4.514 -10.312  17.180  0.00  0.00    +0.138 C 
BRANCH  17  11
ATOM      6  O   UNL     1      -7.064 -10.098  18.483  0.00  0.00    -0.270 OA
ATOM     11  N   UNL     1      -5.740  -9.859  16.592  0.00  0.00    -0.309 N 
ATOM     24  C   UNL     1      -6.936  -9.787  17.301  0.00  0.00    +0.244 C 
ATOM     39  H   UNL     1      -5.694  -9.534  15.632  0.00  0.00    +0.149 HD
BRANCH  24  27
ATOM      7  O   UNL     1      -9.911  -9.777  13.368  0.00  0.00    -0.453 OA
ATOM      8  O   UNL     1     -11.374  -8.125  14.337  0.00  0.00    -0.453 OA
ATOM     27  C   UNL     1      -8.124  -9.322  16.541  0.00  0.00    +0.040 A 
ATOM     30  C   UNL     1      -8.384  -9.846  15.273  0.00  0.00    +0.062 A 
ATOM     32  C   UNL     1      -8.978  -8.358  17.106  0.00  0.00    +0.017 A 
ATOM     33  C   UNL     1      -9.501  -9.385  14.605  0.00  0.00    +0.167 A 
ATOM     34  C   UNL     1     -10.102  -7.908  16.409  0.00  0.00    +0.050 A 
ATOM     35  C   UNL     1     -10.336  -8.441  15.159  0.00  0.00    +0.166 A 
ATOM     36  C   UNL     1     -11.098  -8.975  13.204  0.00  0.00    +0.466 C 
ENDBRANCH  24  27
ENDBRANCH  17  11
ENDBRANCH  15  17
TORSDOF 8
ENDMDL
MODEL 10
REMARK VINA RESULT:      -7.1      3.990      7.629
REMARK  Name = 40780660
REMARK  8 active torsions:
REMARK  status: ('A' for Active; 'I' for Inactive)
REMARK    1  A    between atoms: O_3  and  C_13
REMARK    2  A    between atoms: O_4  and  C_14
REMARK    3  A    between atoms: N_10  and  C_23
REMARK    4  A    between atoms: N_11  and  C_17
REMARK    5  A    between atoms: C_12  and  C_16
REMARK    6  A    between atoms: C_15  and  C_17
REMARK    7  A    between atoms: C_16  and  C_18
REMARK    8  A    between atoms: C_24  and  C_27
REMARK                            x       y       z     vdW  Elec       q    Type
REMARK                         _______ _______ _______ _____ _____    ______ ____
ROOT
ATOM      2  O   UNL     1      -7.517 -11.382  16.311  0.00  0.00    -0.366 OA
ATOM     12  C   UNL     1      -7.460  -9.986  15.942  0.00  0.00    +0.159 C 
ATOM     13  C   UNL     1      -6.026  -9.533  16.197  0.00  0.00    +0.175 C 
ATOM     14  C   UNL     1      -5.601 -10.453  17.323  0.00  0.00    +0.176 C 
ATOM     15  C   UNL     1      -6.269 -11.757  16.917  0.00  0.00    +0.167 C 
ENDROOT
BRANCH  13   3
ATOM      3  O   UNL     1      -5.262  -9.800  15.022  0.00  0.00    -0.387 OA
ATOM     37  H   UNL     1      -4.660  -9.047  14.890  0.00  0.00    +0.210 HD
ENDBRANCH  13   3
BRANCH  14   4
ATOM      4  O   UNL     1      -4.200 -10.589  17.435  0.00  0.00    -0.387 OA
ATOM     38  H   UNL     1      -3.908 -11.190  16.728  0.00  0.00    +0.210 HD
ENDBRANCH  14   4
BRANCH  12  16
ATOM     16  C   UNL     1      -8.481  -9.238  16.788  0.00  0.00    +0.130 C 
BRANCH  16  18
ATOM      5  O   UNL     1     -10.302 -10.720  16.437  0.00  0.00    -0.276 OA
ATOM      9  N   UNL     1     -10.611  -8.514  15.775  0.00  0.00    -0.298 N 
ATOM     10  N   UNL     1     -12.136  -6.457  14.427  0.00  0.00    -0.327 N 
ATOM     18  C   UNL     1      -9.877  -9.569  16.321  0.00  0.00    +0.218 C 
ATOM     19  C   UNL     1     -11.972  -8.752  15.304  0.00  0.00    +0.126 C 
ATOM     20  C   UNL     1     -10.098  -7.150  15.627  0.00  0.00    +0.126 C 
ATOM     21  C   UNL     1     -12.322  -7.875  14.103  0.00  0.00    +0.124 C 
ATOM     22  C   UNL     1     -11.212  -6.109  15.509  0.00  0.00    +0.124 C 
BRANCH  10  23
ATOM      1  F   UNL     1     -14.964  -2.557  11.726  0.00  0.00    -0.205 F 
ATOM     23  C   UNL     1     -12.850  -5.473  13.746  0.00  0.00    +0.030 A 
ATOM     25  C   UNL     1     -12.170  -4.507  13.003  0.00  0.00    +0.026 A 
ATOM     26  C   UNL     1     -14.244  -5.454  13.806  0.00  0.00    +0.026 A 
ATOM     28  C   UNL     1     -12.884  -3.522  12.321  0.00  0.00    +0.040 A 
ATOM     29  C   UNL     1     -14.957  -4.469  13.123  0.00  0.00    +0.040 A 
ATOM     31  C   UNL     1     -14.277  -3.503  12.381  0.00  0.00    +0.124 A 
ENDBRANCH  10  23
ENDBRANCH  16  18
ENDBRANCH  12  16
BRANCH  15  17
ATOM     17  C   UNL     1      -6.528 -12.690  18.087  0.00  0.00    +0.138 C 
BRANCH  17  11
ATOM      6  O   UNL     1      -7.509 -10.926  20.130  0.00  0.00    -0.270 OA
ATOM     11  N   UNL     1      -7.881 -12.581  18.546  0.00  0.00    -0.309 N 
ATOM     24  C   UNL     1      -8.270 -11.695  19.546  0.00  0.00    +0.244 C 
ATOM     39  H   UNL     1      -8.573 -13.149  18.067  0.00  0.00    +0.149 HD
BRANCH  24  27
ATOM      7  O   UNL     1     -12.648  -9.568  20.340  0.00  0.00    -0.453 OA
ATOM      8  O   UNL     1     -13.679 -11.658  20.955  0.00  0.00    -0.453 OA
ATOM     27  C   UNL     1      -9.706 -11.722  19.927  0.00  0.00    +0.040 A 
ATOM     30  C   UNL     1     -10.445 -10.537  19.924  0.00  0.00    +0.062 A 
ATOM     32  C   UNL     1     -10.308 -12.940  20.287  0.00  0.00    +0.017 A 
ATOM     33  C   UNL     1     -11.776 -10.612  20.284  0.00  0.00    +0.167 A 
ATOM     34  C   UNL     1     -11.656 -12.989  20.646  0.00  0.00    +0.050 A 
ATOM     35  C   UNL     1     -12.365 -11.805  20.635  0.00  0.00    +0.166 A 
ATOM     36  C   UNL     1     -13.852 -10.238  20.766  0.00  0.00    +0.466 C 
ENDBRANCH  24  27
ENDBRANCH  17  11
ENDBRANCH  15  17
TORSDOF 8
ENDMDL
