MODEL 1
REMARK VINA RESULT:      -5.9      0.000      0.000
REMARK  Name = 75536539
REMARK  7 active torsions:
REMARK  status: ('A' for Active; 'I' for Inactive)
REMARK    1  A    between atoms: O_2  and  C_10
REMARK    2  A    between atoms: N_4  and  C_12
REMARK    3  A    between atoms: N_5  and  C_11
REMARK    4  A    between atoms: N_5  and  C_15
REMARK    5  A    between atoms: C_6  and  C_14
REMARK    6  A    between atoms: C_9  and  C_12
REMARK    7  A    between atoms: C_15  and  C_16
REMARK                            x       y       z     vdW  Elec       q    Type
REMARK                         _______ _______ _______ _____ _____    ______ ____
ROOT
ATOM      1  O   UNL     1      -1.856 -10.839  12.733  0.00  0.00    -0.371 OA
ATOM      9  C   UNL     1      -2.046 -12.262  12.790  0.00  0.00    +0.165 C 
ATOM     10  C   UNL     1      -2.514 -12.568  14.207  0.00  0.00    +0.164 C 
ATOM     11  C   UNL     1      -1.734 -11.535  15.001  0.00  0.00    +0.111 C 
ATOM     13  C   UNL     1      -1.805 -10.330  14.077  0.00  0.00    +0.181 C 
ENDROOT
BRANCH  10   2
ATOM      2  O   UNL     1      -2.208 -13.894  14.589  0.00  0.00    -0.388 OA
ATOM     24  H   UNL     1      -2.866 -14.184  15.243  0.00  0.00    +0.210 HD
ENDBRANCH  10   2
BRANCH  11   5
ATOM      5  N   UNL     1      -2.289 -11.271  16.319  0.00  0.00    -0.305 NA
ATOM     23  H   UNL     1      -1.634 -10.690  16.844  0.00  0.00    +0.123 HD
BRANCH   5  15
ATOM     15  C   UNL     1      -3.566 -10.574  16.221  0.00  0.00    +0.116 C 
BRANCH  15  16
ATOM     16  C   UNL     1      -4.444 -10.845  17.415  0.00  0.00    -0.034 A 
ATOM     17  C   UNL     1      -3.972 -11.633  18.464  0.00  0.00    +0.005 A 
ATOM     18  C   UNL     1      -5.730 -10.306  17.470  0.00  0.00    +0.005 A 
ATOM     19  C   UNL     1      -4.786 -11.885  19.568  0.00  0.00    +0.000 A 
ATOM     20  C   UNL     1      -6.543 -10.556  18.575  0.00  0.00    +0.000 A 
ATOM     21  C   UNL     1      -6.072 -11.346  19.624  0.00  0.00    +0.000 A 
ENDBRANCH  15  16
ENDBRANCH   5  15
ENDBRANCH  11   5
BRANCH   9  12
ATOM     12  C   UNL     1      -3.040 -12.691  11.725  0.00  0.00    +0.138 C 
BRANCH  12   4
ATOM      3  O   UNL     1      -5.656 -11.451  11.451  0.00  0.00    -0.276 OA
ATOM      4  N   UNL     1      -3.402 -11.592  10.878  0.00  0.00    -0.313 N 
ATOM     14  C   UNL     1      -4.683 -11.063  10.813  0.00  0.00    +0.216 C 
ATOM     22  H   UNL     1      -2.672 -11.173  10.309  0.00  0.00    +0.149 HD
BRANCH  14   6
ATOM      6  C   UNL     1      -4.832  -9.919   9.866  0.00  0.00    +0.075 C 
ATOM      7  C   UNL     1      -4.772  -8.531  10.411  0.00  0.00    +0.013 C 
ATOM      8  C   UNL     1      -3.639  -9.067   9.587  0.00  0.00    +0.013 C 
ENDBRANCH  14   6
ENDBRANCH  12   4
ENDBRANCH   9  12
TORSDOF 7
ENDMDL
MODEL 2
REMARK VINA RESULT:      -5.8      4.255      7.243
REMARK  Name = 75536539
REMARK  7 active torsions:
REMARK  status: ('A' for Active; 'I' for Inactive)
REMARK    1  A    between atoms: O_2  and  C_10
REMARK    2  A    between atoms: N_4  and  C_12
REMARK    3  A    between atoms: N_5  and  C_11
REMARK    4  A    between atoms: N_5  and  C_15
REMARK    5  A    between atoms: C_6  and  C_14
REMARK    6  A    between atoms: C_9  and  C_12
REMARK    7  A    between atoms: C_15  and  C_16
REMARK                            x       y       z     vdW  Elec       q    Type
REMARK                         _______ _______ _______ _____ _____    ______ ____
ROOT
ATOM      1  O   UNL     1      -7.666 -12.965  18.477  0.00  0.00    -0.371 OA
ATOM      9  C   UNL     1      -7.941 -11.832  19.318  0.00  0.00    +0.165 C 
ATOM     10  C   UNL     1      -6.787 -10.861  19.107  0.00  0.00    +0.164 C 
ATOM     11  C   UNL     1      -5.629 -11.822  18.910  0.00  0.00    +0.111 C 
ATOM     13  C   UNL     1      -6.284 -12.916  18.082  0.00  0.00    +0.181 C 
ENDROOT
BRANCH  10   2
ATOM      2  O   UNL     1      -6.604 -10.009  20.220  0.00  0.00    -0.388 OA
ATOM     24  H   UNL     1      -5.669 -10.044  20.483  0.00  0.00    +0.210 HD
ENDBRANCH  10   2
BRANCH  11   5
ATOM      5  N   UNL     1      -4.479 -11.225  18.250  0.00  0.00    -0.305 NA
ATOM     23  H   UNL     1      -3.848 -11.968  17.945  0.00  0.00    +0.123 HD
BRANCH   5  15
ATOM     15  C   UNL     1      -4.888 -10.445  17.088  0.00  0.00    +0.116 C 
BRANCH  15  16
ATOM     16  C   UNL     1      -3.894 -10.554  15.962  0.00  0.00    -0.034 A 
ATOM     17  C   UNL     1      -4.338 -10.595  14.640  0.00  0.00    +0.005 A 
ATOM     18  C   UNL     1      -2.529 -10.616  16.241  0.00  0.00    +0.005 A 
ATOM     19  C   UNL     1      -3.418 -10.697  13.597  0.00  0.00    +0.000 A 
ATOM     20  C   UNL     1      -1.608 -10.717  15.198  0.00  0.00    +0.000 A 
ATOM     21  C   UNL     1      -2.052 -10.758  13.876  0.00  0.00    +0.000 A 
ENDBRANCH  15  16
ENDBRANCH   5  15
ENDBRANCH  11   5
BRANCH   9  12
ATOM     12  C   UNL     1      -9.294 -11.243  18.960  0.00  0.00    +0.138 C 
BRANCH  12   4
ATOM      3  O   UNL     1     -11.411  -9.411  18.172  0.00  0.00    -0.276 OA
ATOM      4  N   UNL     1      -9.153  -9.965  18.322  0.00  0.00    -0.313 N 
ATOM     14  C   UNL     1     -10.227  -9.156  17.982  0.00  0.00    +0.216 C 
ATOM     22  H   UNL     1      -8.212  -9.636  18.127  0.00  0.00    +0.149 HD
BRANCH  14   6
ATOM      6  C   UNL     1      -9.847  -7.868  17.329  0.00  0.00    +0.075 C 
ATOM      7  C   UNL     1      -9.938  -7.770  15.842  0.00  0.00    +0.013 C 
ATOM      8  C   UNL     1     -10.923  -7.042  16.707  0.00  0.00    +0.013 C 
ENDBRANCH  14   6
ENDBRANCH  12   4
ENDBRANCH   9  12
TORSDOF 7
ENDMDL
MODEL 3
REMARK VINA RESULT:      -5.8     20.905     23.274
REMARK  Name = 75536539
REMARK  7 active torsions:
REMARK  status: ('A' for Active; 'I' for Inactive)
REMARK    1  A    between atoms: O_2  and  C_10
REMARK    2  A    between atoms: N_4  and  C_12
REMARK    3  A    between atoms: N_5  and  C_11
REMARK    4  A    between atoms: N_5  and  C_15
REMARK    5  A    between atoms: C_6  and  C_14
REMARK    6  A    between atoms: C_9  and  C_12
REMARK    7  A    between atoms: C_15  and  C_16
REMARK                            x       y       z     vdW  Elec       q    Type
REMARK                         _______ _______ _______ _____ _____    ______ ____
ROOT
ATOM      1  O   UNL     1     -17.623   5.292  24.570  0.00  0.00    -0.371 OA
ATOM      9  C   UNL     1     -17.055   4.175  25.273  0.00  0.00    +0.165 C 
ATOM     10  C   UNL     1     -15.770   3.823  24.536  0.00  0.00    +0.164 C 
ATOM     11  C   UNL     1     -16.163   4.130  23.102  0.00  0.00    +0.111 C 
ATOM     13  C   UNL     1     -16.994   5.389  23.281  0.00  0.00    +0.181 C 
ENDROOT
BRANCH  10   2
ATOM      2  O   UNL     1     -15.407   2.470  24.724  0.00  0.00    -0.388 OA
ATOM     24  H   UNL     1     -16.169   1.913  24.494  0.00  0.00    +0.210 HD
ENDBRANCH  10   2
BRANCH  11   5
ATOM      5  N   UNL     1     -15.028   4.322  22.214  0.00  0.00    -0.305 NA
ATOM     23  H   UNL     1     -15.372   4.570  21.285  0.00  0.00    +0.123 HD
BRANCH   5  15
ATOM     15  C   UNL     1     -14.159   5.389  22.696  0.00  0.00    +0.116 C 
BRANCH  15  16
ATOM     16  C   UNL     1     -13.586   6.200  21.563  0.00  0.00    -0.034 A 
ATOM     17  C   UNL     1     -14.432   6.934  20.733  0.00  0.00    +0.005 A 
ATOM     18  C   UNL     1     -12.208   6.216  21.345  0.00  0.00    +0.005 A 
ATOM     19  C   UNL     1     -13.901   7.684  19.683  0.00  0.00    +0.000 A 
ATOM     20  C   UNL     1     -11.677   6.966  20.296  0.00  0.00    +0.000 A 
ATOM     21  C   UNL     1     -12.523   7.700  19.465  0.00  0.00    +0.000 A 
ENDBRANCH  15  16
ENDBRANCH   5  15
ENDBRANCH  11   5
BRANCH   9  12
ATOM     12  C   UNL     1     -16.830   4.543  26.729  0.00  0.00    +0.138 C 
BRANCH  12   4
ATOM      3  O   UNL     1     -15.869   4.588  29.474  0.00  0.00    -0.276 OA
ATOM      4  N   UNL     1     -16.114   3.511  27.422  0.00  0.00    -0.313 N 
ATOM     14  C   UNL     1     -15.694   3.622  28.740  0.00  0.00    +0.216 C 
ATOM     22  H   UNL     1     -15.923   2.649  26.919  0.00  0.00    +0.149 HD
BRANCH  14   6
ATOM      6  C   UNL     1     -14.969   2.424  29.259  0.00  0.00    +0.075 C 
ATOM      7  C   UNL     1     -14.592   2.392  30.703  0.00  0.00    +0.013 C 
ATOM      8  C   UNL     1     -15.689   1.507  30.191  0.00  0.00    +0.013 C 
ENDBRANCH  14   6
ENDBRANCH  12   4
ENDBRANCH   9  12
TORSDOF 7
ENDMDL
MODEL 4
REMARK VINA RESULT:      -5.8      6.898      8.679
REMARK  Name = 75536539
REMARK  7 active torsions:
REMARK  status: ('A' for Active; 'I' for Inactive)
REMARK    1  A    between atoms: O_2  and  C_10
REMARK    2  A    between atoms: N_4  and  C_12
REMARK    3  A    between atoms: N_5  and  C_11
REMARK    4  A    between atoms: N_5  and  C_15
REMARK    5  A    between atoms: C_6  and  C_14
REMARK    6  A    between atoms: C_9  and  C_12
REMARK    7  A    between atoms: C_15  and  C_16
REMARK                            x       y       z     vdW  Elec       q    Type
REMARK                         _______ _______ _______ _____ _____    ______ ____
ROOT
ATOM      1  O   UNL     1     -12.176  -7.882  16.896  0.00  0.00    -0.371 OA
ATOM      9  C   UNL     1     -11.814  -6.702  16.158  0.00  0.00    +0.165 C 
ATOM     10  C   UNL     1     -10.396  -6.940  15.654  0.00  0.00    +0.164 C 
ATOM     11  C   UNL     1      -9.807  -7.736  16.804  0.00  0.00    +0.111 C 
ATOM     13  C   UNL     1     -10.979  -8.624  17.187  0.00  0.00    +0.181 C 
ENDROOT
BRANCH  10   2
ATOM      2  O   UNL     1      -9.709  -5.727  15.422  0.00  0.00    -0.388 OA
ATOM     24  H   UNL     1      -8.785  -5.935  15.202  0.00  0.00    +0.210 HD
ENDBRANCH  10   2
BRANCH  11   5
ATOM      5  N   UNL     1      -8.619  -8.492  16.443  0.00  0.00    -0.305 NA
ATOM     23  H   UNL     1      -7.830  -7.849  16.358  0.00  0.00    +0.123 HD
BRANCH   5  15
ATOM     15  C   UNL     1      -8.306  -9.494  17.454  0.00  0.00    +0.116 C 
BRANCH  15  16
ATOM     16  C   UNL     1      -6.874  -9.952  17.365  0.00  0.00    -0.034 A 
ATOM     17  C   UNL     1      -6.263 -10.550  18.466  0.00  0.00    +0.005 A 
ATOM     18  C   UNL     1      -6.159  -9.777  16.180  0.00  0.00    +0.005 A 
ATOM     19  C   UNL     1      -4.936 -10.974  18.384  0.00  0.00    +0.000 A 
ATOM     20  C   UNL     1      -4.833 -10.202  16.096  0.00  0.00    +0.000 A 
ATOM     21  C   UNL     1      -4.222 -10.800  17.199  0.00  0.00    +0.000 A 
ENDBRANCH  15  16
ENDBRANCH   5  15
ENDBRANCH  11   5
BRANCH   9  12
ATOM     12  C   UNL     1     -12.816  -6.465  15.042  0.00  0.00    +0.138 C 
BRANCH  12   4
ATOM      3  O   UNL     1     -14.149  -5.478  12.654  0.00  0.00    -0.276 OA
ATOM      4  N   UNL     1     -12.410  -5.376  14.201  0.00  0.00    -0.313 N 
ATOM     14  C   UNL     1     -13.114  -4.974  13.075  0.00  0.00    +0.216 C 
ATOM     22  H   UNL     1     -11.570  -4.867  14.460  0.00  0.00    +0.149 HD
BRANCH  14   6
ATOM      6  C   UNL     1     -12.510  -3.816  12.351  0.00  0.00    +0.075 C 
ATOM      7  C   UNL     1     -12.005  -4.030  10.963  0.00  0.00    +0.013 C 
ATOM      8  C   UNL     1     -13.255  -3.234  11.196  0.00  0.00    +0.013 C 
ENDBRANCH  14   6
ENDBRANCH  12   4
ENDBRANCH   9  12
TORSDOF 7
ENDMDL
MODEL 5
REMARK VINA RESULT:      -5.8     22.502     25.980
REMARK  Name = 75536539
REMARK  7 active torsions:
REMARK  status: ('A' for Active; 'I' for Inactive)
REMARK    1  A    between atoms: O_2  and  C_10
REMARK    2  A    between atoms: N_4  and  C_12
REMARK    3  A    between atoms: N_5  and  C_11
REMARK    4  A    between atoms: N_5  and  C_15
REMARK    5  A    between atoms: C_6  and  C_14
REMARK    6  A    between atoms: C_9  and  C_12
REMARK    7  A    between atoms: C_15  and  C_16
REMARK                            x       y       z     vdW  Elec       q    Type
REMARK                         _______ _______ _______ _____ _____    ______ ____
ROOT
ATOM      1  O   UNL     1      10.971   7.967   3.630  0.00  0.00    -0.371 OA
ATOM      9  C   UNL     1      10.100   7.159   4.438  0.00  0.00    +0.165 C 
ATOM     10  C   UNL     1      10.693   5.756   4.423  0.00  0.00    +0.164 C 
ATOM     11  C   UNL     1      11.251   5.691   3.013  0.00  0.00    +0.111 C 
ATOM     13  C   UNL     1      11.801   7.097   2.842  0.00  0.00    +0.181 C 
ENDROOT
BRANCH  10   2
ATOM      2  O   UNL     1       9.713   4.767   4.668  0.00  0.00    -0.388 OA
ATOM     24  H   UNL     1       8.863   5.085   4.322  0.00  0.00    +0.210 HD
ENDBRANCH  10   2
BRANCH  11   5
ATOM      5  N   UNL     1      12.262   4.661   2.832  0.00  0.00    -0.305 NA
ATOM     23  H   UNL     1      12.203   3.998   3.607  0.00  0.00    +0.123 HD
BRANCH   5  15
ATOM     15  C   UNL     1      12.063   3.943   1.579  0.00  0.00    +0.116 C 
BRANCH  15  16
ATOM     16  C   UNL     1      13.280   4.011   0.695  0.00  0.00    -0.034 A 
ATOM     17  C   UNL     1      14.555   3.952   1.257  0.00  0.00    +0.005 A 
ATOM     18  C   UNL     1      13.132   4.133  -0.687  0.00  0.00    +0.005 A 
ATOM     19  C   UNL     1      15.682   4.016   0.438  0.00  0.00    +0.000 A 
ATOM     20  C   UNL     1      14.259   4.195  -1.506  0.00  0.00    +0.000 A 
ATOM     21  C   UNL     1      15.534   4.138  -0.943  0.00  0.00    +0.000 A 
ENDBRANCH  15  16
ENDBRANCH   5  15
ENDBRANCH  11   5
BRANCH   9  12
ATOM     12  C   UNL     1       9.996   7.751   5.833  0.00  0.00    +0.138 C 
BRANCH  12   4
ATOM      3  O   UNL     1       8.564   7.258   8.316  0.00  0.00    -0.276 OA
ATOM      4  N   UNL     1      10.299   6.773   6.838  0.00  0.00    -0.313 N 
ATOM     14  C   UNL     1       9.554   6.609   7.997  0.00  0.00    +0.216 C 
ATOM     22  H   UNL     1      11.093   6.161   6.676  0.00  0.00    +0.149 HD
BRANCH  14   6
ATOM      6  C   UNL     1      10.049   5.529   8.901  0.00  0.00    +0.075 C 
ATOM      7  C   UNL     1       9.067   4.838   9.788  0.00  0.00    +0.013 C 
ATOM      8  C   UNL     1       9.651   4.120   8.609  0.00  0.00    +0.013 C 
ENDBRANCH  14   6
ENDBRANCH  12   4
ENDBRANCH   9  12
TORSDOF 7
ENDMDL
MODEL 6
REMARK VINA RESULT:      -5.6      3.536      6.994
REMARK  Name = 75536539
REMARK  7 active torsions:
REMARK  status: ('A' for Active; 'I' for Inactive)
REMARK    1  A    between atoms: O_2  and  C_10
REMARK    2  A    between atoms: N_4  and  C_12
REMARK    3  A    between atoms: N_5  and  C_11
REMARK    4  A    between atoms: N_5  and  C_15
REMARK    5  A    between atoms: C_6  and  C_14
REMARK    6  A    between atoms: C_9  and  C_12
REMARK    7  A    between atoms: C_15  and  C_16
REMARK                            x       y       z     vdW  Elec       q    Type
REMARK                         _______ _______ _______ _____ _____    ______ ____
ROOT
ATOM      1  O   UNL     1      -5.329 -11.635  18.321  0.00  0.00    -0.371 OA
ATOM      9  C   UNL     1      -6.105 -10.514  17.865  0.00  0.00    +0.165 C 
ATOM     10  C   UNL     1      -5.518 -10.116  16.518  0.00  0.00    +0.164 C 
ATOM     11  C   UNL     1      -4.046 -10.409  16.743  0.00  0.00    +0.111 C 
ATOM     13  C   UNL     1      -4.115 -11.693  17.553  0.00  0.00    +0.181 C 
ENDROOT
BRANCH  10   2
ATOM      2  O   UNL     1      -5.764  -8.757  16.216  0.00  0.00    -0.388 OA
ATOM     24  H   UNL     1      -5.994  -8.297  17.040  0.00  0.00    +0.210 HD
ENDBRANCH  10   2
BRANCH  11   5
ATOM      5  N   UNL     1      -3.285 -10.556  15.513  0.00  0.00    -0.305 NA
ATOM     23  H   UNL     1      -2.490 -11.174  15.686  0.00  0.00    +0.123 HD
BRANCH   5  15
ATOM     15  C   UNL     1      -4.106 -11.127  14.452  0.00  0.00    +0.116 C 
BRANCH  15  16
ATOM     16  C   UNL     1      -3.724 -10.591  13.098  0.00  0.00    -0.034 A 
ATOM     17  C   UNL     1      -4.708 -10.107  12.236  0.00  0.00    +0.005 A 
ATOM     18  C   UNL     1      -2.385 -10.578  12.705  0.00  0.00    +0.005 A 
ATOM     19  C   UNL     1      -4.355  -9.611  10.981  0.00  0.00    +0.000 A 
ATOM     20  C   UNL     1      -2.031 -10.081  11.450  0.00  0.00    +0.000 A 
ATOM     21  C   UNL     1      -3.016  -9.598  10.589  0.00  0.00    +0.000 A 
ENDBRANCH  15  16
ENDBRANCH   5  15
ENDBRANCH  11   5
BRANCH   9  12
ATOM     12  C   UNL     1      -7.572 -10.901  17.790  0.00  0.00    +0.138 C 
BRANCH  12   4
ATOM      3  O   UNL     1      -9.148  -9.561  15.746  0.00  0.00    -0.276 OA
ATOM      4  N   UNL     1      -8.421  -9.756  17.951  0.00  0.00    -0.313 N 
ATOM     14  C   UNL     1      -9.139  -9.182  16.911  0.00  0.00    +0.216 C 
ATOM     22  H   UNL     1      -8.508  -9.359  18.882  0.00  0.00    +0.149 HD
BRANCH  14   6
ATOM      6  C   UNL     1      -9.960  -8.000  17.307  0.00  0.00    +0.075 C 
ATOM      7  C   UNL     1     -10.390  -7.044  16.245  0.00  0.00    +0.013 C 
ATOM      8  C   UNL     1     -11.392  -7.956  16.887  0.00  0.00    +0.013 C 
ENDBRANCH  14   6
ENDBRANCH  12   4
ENDBRANCH   9  12
TORSDOF 7
ENDMDL
MODEL 7
REMARK VINA RESULT:      -5.6      2.037      7.039
REMARK  Name = 75536539
REMARK  7 active torsions:
REMARK  status: ('A' for Active; 'I' for Inactive)
REMARK    1  A    between atoms: O_2  and  C_10
REMARK    2  A    between atoms: N_4  and  C_12
REMARK    3  A    between atoms: N_5  and  C_11
REMARK    4  A    between atoms: N_5  and  C_15
REMARK    5  A    between atoms: C_6  and  C_14
REMARK    6  A    between atoms: C_9  and  C_12
REMARK    7  A    between atoms: C_15  and  C_16
REMARK                            x       y       z     vdW  Elec       q    Type
REMARK                         _______ _______ _______ _____ _____    ______ ____
ROOT
ATOM      1  O   UNL     1      -4.494 -12.233  15.309  0.00  0.00    -0.371 OA
ATOM      9  C   UNL     1      -3.414 -11.618  16.031  0.00  0.00    +0.165 C 
ATOM     10  C   UNL     1      -2.309 -11.379  15.011  0.00  0.00    +0.164 C 
ATOM     11  C   UNL     1      -2.475 -12.589  14.110  0.00  0.00    +0.111 C 
ATOM     13  C   UNL     1      -3.988 -12.715  14.052  0.00  0.00    +0.181 C 
ENDROOT
BRANCH  10   2
ATOM      2  O   UNL     1      -1.033 -11.322  15.618  0.00  0.00    -0.388 OA
ATOM     24  H   UNL     1      -0.364 -11.538  14.947  0.00  0.00    +0.210 HD
ENDBRANCH  10   2
BRANCH  11   5
ATOM      5  N   UNL     1      -1.870 -12.428  12.798  0.00  0.00    -0.305 NA
ATOM     23  H   UNL     1      -2.405 -12.970  12.117  0.00  0.00    +0.123 HD
BRANCH   5  15
ATOM     15  C   UNL     1      -1.864 -11.029  12.390  0.00  0.00    +0.116 C 
BRANCH  15  16
ATOM     16  C   UNL     1      -2.744 -10.791  11.191  0.00  0.00    -0.034 A 
ATOM     17  C   UNL     1      -2.884  -9.504  10.672  0.00  0.00    +0.005 A 
ATOM     18  C   UNL     1      -3.420 -11.859  10.600  0.00  0.00    +0.005 A 
ATOM     19  C   UNL     1      -3.699  -9.284   9.562  0.00  0.00    +0.000 A 
ATOM     20  C   UNL     1      -4.235 -11.639   9.489  0.00  0.00    +0.000 A 
ATOM     21  C   UNL     1      -4.375 -10.351   8.971  0.00  0.00    +0.000 A 
ENDBRANCH  15  16
ENDBRANCH   5  15
ENDBRANCH  11   5
BRANCH   9  12
ATOM     12  C   UNL     1      -3.900 -10.345  16.699  0.00  0.00    +0.138 C 
BRANCH  12   4
ATOM      3  O   UNL     1      -6.746  -9.792  16.939  0.00  0.00    -0.276 OA
ATOM      4  N   UNL     1      -4.757 -10.635  17.813  0.00  0.00    -0.313 N 
ATOM     14  C   UNL     1      -6.111 -10.334  17.837  0.00  0.00    +0.216 C 
ATOM     22  H   UNL     1      -4.346 -11.101  18.616  0.00  0.00    +0.149 HD
BRANCH  14   6
ATOM      6  C   UNL     1      -6.809 -10.729  19.096  0.00  0.00    +0.075 C 
ATOM      7  C   UNL     1      -7.039 -12.180  19.357  0.00  0.00    +0.013 C 
ATOM      8  C   UNL     1      -6.022 -11.424  20.157  0.00  0.00    +0.013 C 
ENDBRANCH  14   6
ENDBRANCH  12   4
ENDBRANCH   9  12
TORSDOF 7
ENDMDL
MODEL 8
REMARK VINA RESULT:      -5.5     21.245     24.608
REMARK  Name = 75536539
REMARK  7 active torsions:
REMARK  status: ('A' for Active; 'I' for Inactive)
REMARK    1  A    between atoms: O_2  and  C_10
REMARK    2  A    between atoms: N_4  and  C_12
REMARK    3  A    between atoms: N_5  and  C_11
REMARK    4  A    between atoms: N_5  and  C_15
REMARK    5  A    between atoms: C_6  and  C_14
REMARK    6  A    between atoms: C_9  and  C_12
REMARK    7  A    between atoms: C_15  and  C_16
REMARK                            x       y       z     vdW  Elec       q    Type
REMARK                         _______ _______ _______ _____ _____    ______ ____
ROOT
ATOM      1  O   UNL     1       9.696  -6.370  35.817  0.00  0.00    -0.371 OA
ATOM      9  C   UNL     1       9.396  -5.058  35.313  0.00  0.00    +0.165 C 
ATOM     10  C   UNL     1       7.992  -5.141  34.730  0.00  0.00    +0.164 C 
ATOM     11  C   UNL     1       7.989  -6.554  34.176  0.00  0.00    +0.111 C 
ATOM     13  C   UNL     1       8.756  -7.301  35.254  0.00  0.00    +0.181 C 
ENDROOT
BRANCH  10   2
ATOM      2  O   UNL     1       7.775  -4.163  33.733  0.00  0.00    -0.388 OA
ATOM     24  H   UNL     1       8.487  -4.234  33.074  0.00  0.00    +0.210 HD
ENDBRANCH  10   2
BRANCH  11   5
ATOM      5  N   UNL     1       6.657  -7.092  33.953  0.00  0.00    -0.305 NA
ATOM     23  H   UNL     1       5.972  -6.472  34.389  0.00  0.00    +0.123 HD
BRANCH   5  15
ATOM     15  C   UNL     1       6.363  -7.195  32.529  0.00  0.00    +0.116 C 
BRANCH  15  16
ATOM     16  C   UNL     1       6.524  -8.605  32.025  0.00  0.00    -0.034 A 
ATOM     17  C   UNL     1       6.722  -8.841  30.665  0.00  0.00    +0.005 A 
ATOM     18  C   UNL     1       6.475  -9.675  32.919  0.00  0.00    +0.005 A 
ATOM     19  C   UNL     1       6.871 -10.147  30.197  0.00  0.00    +0.000 A 
ATOM     20  C   UNL     1       6.625 -10.981  32.452  0.00  0.00    +0.000 A 
ATOM     21  C   UNL     1       6.822 -11.217  31.091  0.00  0.00    +0.000 A 
ENDBRANCH  15  16
ENDBRANCH   5  15
ENDBRANCH  11   5
BRANCH   9  12
ATOM     12  C   UNL     1       9.523  -4.036  36.429  0.00  0.00    +0.138 C 
BRANCH  12   4
ATOM      3  O   UNL     1       8.290  -4.201  39.058  0.00  0.00    -0.276 OA
ATOM      4  N   UNL     1       8.239  -3.536  36.825  0.00  0.00    -0.313 N 
ATOM     14  C   UNL     1       7.730  -3.661  38.110  0.00  0.00    +0.216 C 
ATOM     22  H   UNL     1       7.685  -3.050  36.125  0.00  0.00    +0.149 HD
BRANCH  14   6
ATOM      6  C   UNL     1       6.375  -3.063  38.298  0.00  0.00    +0.075 C 
ATOM      7  C   UNL     1       5.429  -3.067  37.144  0.00  0.00    +0.013 C 
ATOM      8  C   UNL     1       5.193  -3.973  38.315  0.00  0.00    +0.013 C 
ENDBRANCH  14   6
ENDBRANCH  12   4
ENDBRANCH   9  12
TORSDOF 7
ENDMDL
MODEL 9
REMARK VINA RESULT:      -5.5     28.675     30.660
REMARK  Name = 75536539
REMARK  7 active torsions:
REMARK  status: ('A' for Active; 'I' for Inactive)
REMARK    1  A    between atoms: O_2  and  C_10
REMARK    2  A    between atoms: N_4  and  C_12
REMARK    3  A    between atoms: N_5  and  C_11
REMARK    4  A    between atoms: N_5  and  C_15
REMARK    5  A    between atoms: C_6  and  C_14
REMARK    6  A    between atoms: C_9  and  C_12
REMARK    7  A    between atoms: C_15  and  C_16
REMARK                            x       y       z     vdW  Elec       q    Type
REMARK                         _______ _______ _______ _____ _____    ______ ____
ROOT
ATOM      1  O   UNL     1      21.892   7.438  21.818  0.00  0.00    -0.371 OA
ATOM      9  C   UNL     1      20.594   7.152  21.270  0.00  0.00    +0.165 C 
ATOM     10  C   UNL     1      20.633   5.693  20.835  0.00  0.00    +0.164 C 
ATOM     11  C   UNL     1      22.071   5.567  20.366  0.00  0.00    +0.111 C 
ATOM     13  C   UNL     1      22.800   6.403  21.405  0.00  0.00    +0.181 C 
ENDROOT
BRANCH  10   2
ATOM      2  O   UNL     1      19.699   5.424  19.809  0.00  0.00    -0.388 OA
ATOM     24  H   UNL     1      18.804   5.534  20.172  0.00  0.00    +0.210 HD
ENDBRANCH  10   2
BRANCH  11   5
ATOM      5  N   UNL     1      22.548   4.195  20.308  0.00  0.00    -0.305 NA
ATOM     23  H   UNL     1      23.569   4.197  20.321  0.00  0.00    +0.123 HD
BRANCH   5  15
ATOM     15  C   UNL     1      22.063   3.421  21.445  0.00  0.00    +0.116 C 
BRANCH  15  16
ATOM     16  C   UNL     1      23.105   2.462  21.956  0.00  0.00    -0.034 A 
ATOM     17  C   UNL     1      23.281   2.289  23.329  0.00  0.00    +0.005 A 
ATOM     18  C   UNL     1      23.896   1.747  21.056  0.00  0.00    +0.005 A 
ATOM     19  C   UNL     1      24.247   1.401  23.802  0.00  0.00    +0.000 A 
ATOM     20  C   UNL     1      24.861   0.858  21.529  0.00  0.00    +0.000 A 
ATOM     21  C   UNL     1      25.037   0.686  22.902  0.00  0.00    +0.000 A 
ENDBRANCH  15  16
ENDBRANCH   5  15
ENDBRANCH  11   5
BRANCH   9  12
ATOM     12  C   UNL     1      19.523   7.440  22.307  0.00  0.00    +0.138 C 
BRANCH  12   4
ATOM      3  O   UNL     1      17.370   8.546  20.694  0.00  0.00    -0.276 OA
ATOM      4  N   UNL     1      18.280   6.814  21.960  0.00  0.00    -0.313 N 
ATOM     14  C   UNL     1      17.307   7.422  21.180  0.00  0.00    +0.216 C 
ATOM     22  H   UNL     1      18.118   5.868  22.294  0.00  0.00    +0.149 HD
BRANCH  14   6
ATOM      6  C   UNL     1      16.094   6.585  20.942  0.00  0.00    +0.075 C 
ATOM      7  C   UNL     1      14.798   7.272  20.665  0.00  0.00    +0.013 C 
ATOM      8  C   UNL     1      15.515   6.547  19.566  0.00  0.00    +0.013 C 
ENDBRANCH  14   6
ENDBRANCH  12   4
ENDBRANCH   9  12
TORSDOF 7
ENDMDL
MODEL 10
REMARK VINA RESULT:      -5.5     25.689     28.334
REMARK  Name = 75536539
REMARK  7 active torsions:
REMARK  status: ('A' for Active; 'I' for Inactive)
REMARK    1  A    between atoms: O_2  and  C_10
REMARK    2  A    between atoms: N_4  and  C_12
REMARK    3  A    between atoms: N_5  and  C_11
REMARK    4  A    between atoms: N_5  and  C_15
REMARK    5  A    between atoms: C_6  and  C_14
REMARK    6  A    between atoms: C_9  and  C_12
REMARK    7  A    between atoms: C_15  and  C_16
REMARK                            x       y       z     vdW  Elec       q    Type
REMARK                         _______ _______ _______ _____ _____    ______ ____
ROOT
ATOM      1  O   UNL     1      13.214   9.703   5.591  0.00  0.00    -0.371 OA
ATOM      9  C   UNL     1      12.830   8.385   6.018  0.00  0.00    +0.165 C 
ATOM     10  C   UNL     1      14.069   7.773   6.658  0.00  0.00    +0.164 C 
ATOM     11  C   UNL     1      15.168   8.368   5.796  0.00  0.00    +0.111 C 
ATOM     13  C   UNL     1      14.650   9.780   5.583  0.00  0.00    +0.181 C 
ENDROOT
BRANCH  10   2
ATOM      2  O   UNL     1      14.043   6.360   6.611  0.00  0.00    -0.388 OA
ATOM     24  H   UNL     1      13.671   6.089   5.755  0.00  0.00    +0.210 HD
ENDBRANCH  10   2
BRANCH  11   5
ATOM      5  N   UNL     1      16.481   8.335   6.419  0.00  0.00    -0.305 NA
ATOM     23  H   UNL     1      16.817   7.370   6.435  0.00  0.00    +0.123 HD
BRANCH   5  15
ATOM     15  C   UNL     1      17.434   9.155   5.681  0.00  0.00    +0.116 C 
BRANCH  15  16
ATOM     16  C   UNL     1      18.775   8.482   5.557  0.00  0.00    -0.034 A 
ATOM     17  C   UNL     1      19.648   8.459   6.645  0.00  0.00    +0.005 A 
ATOM     18  C   UNL     1      19.144   7.880   4.354  0.00  0.00    +0.005 A 
ATOM     19  C   UNL     1      20.890   7.836   6.530  0.00  0.00    +0.000 A 
ATOM     20  C   UNL     1      20.387   7.256   4.239  0.00  0.00    +0.000 A 
ATOM     21  C   UNL     1      21.260   7.235   5.326  0.00  0.00    +0.000 A 
ENDBRANCH  15  16
ENDBRANCH   5  15
ENDBRANCH  11   5
BRANCH   9  12
ATOM     12  C   UNL     1      11.647   8.475   6.965  0.00  0.00    +0.138 C 
BRANCH  12   4
ATOM      3  O   UNL     1      11.443   5.798   8.082  0.00  0.00    -0.276 OA
ATOM      4  N   UNL     1      10.663   7.476   6.666  0.00  0.00    -0.313 N 
ATOM     14  C   UNL     1      10.645   6.218   7.252  0.00  0.00    +0.216 C 
ATOM     22  H   UNL     1       9.935   7.715   5.999  0.00  0.00    +0.149 HD
BRANCH  14   6
ATOM      6  C   UNL     1       9.527   5.340   6.794  0.00  0.00    +0.075 C 
ATOM      7  C   UNL     1       8.680   5.802   5.656  0.00  0.00    +0.013 C 
ATOM      8  C   UNL     1       9.647   4.673   5.465  0.00  0.00    +0.013 C 
ENDBRANCH  14   6
ENDBRANCH  12   4
ENDBRANCH   9  12
TORSDOF 7
ENDMDL
