MODEL 1
REMARK VINA RESULT:      -8.0      0.000      0.000
REMARK  Name = 11941380
REMARK  7 active torsions:
REMARK  status: ('A' for Active; 'I' for Inactive)
REMARK    1  A    between atoms: O_4  and  C_26
REMARK    2  A    between atoms: O_4  and  C_34
REMARK    3  A    between atoms: O_5  and  C_31
REMARK    4  A    between atoms: O_5  and  C_35
REMARK    5  A    between atoms: N_7  and  C_12
REMARK    6  A    between atoms: C_19  and  C_24
REMARK    7  A    between atoms: C_22  and  C_25
REMARK                            x       y       z     vdW  Elec       q    Type
REMARK                         _______ _______ _______ _____ _____    ______ ____
ROOT
ATOM      1  O   UNL     1      12.079   6.284  19.246  0.00  0.00    -0.273 OA
ATOM      2  O   UNL     1      15.148   9.335  22.251  0.00  0.00    -0.270 OA
ATOM      6  N   UNL     1      14.269   8.513  20.291  0.00  0.00    -0.284 N 
ATOM      8  N   UNL     1      11.527   7.680  20.959  0.00  0.00    -0.283 N 
ATOM     11  C   UNL     1      13.203   8.417  19.312  0.00  0.00    +0.183 C 
ATOM     12  C   UNL     1      13.908   8.032  18.004  0.00  0.00    +0.104 C 
ATOM     13  C   UNL     1      15.165   7.301  18.480  0.00  0.00    +0.043 C 
ATOM     14  C   UNL     1      15.536   8.035  19.759  0.00  0.00    +0.111 C 
ATOM     15  C   UNL     1      12.261   7.349  19.838  0.00  0.00    +0.240 C 
ATOM     16  C   UNL     1      14.179   9.131  21.520  0.00  0.00    +0.249 C 
ATOM     17  C   UNL     1      12.835   9.551  21.995  0.00  0.00    +0.059 A 
ATOM     18  C   UNL     1      11.657   8.812  21.793  0.00  0.00    +0.046 A 
ATOM     20  C   UNL     1      12.809  10.676  22.840  0.00  0.00    +0.023 A 
ATOM     21  C   UNL     1      10.496   9.182  22.494  0.00  0.00    +0.024 A 
ATOM     22  C   UNL     1      11.635  11.054  23.490  0.00  0.00    -0.014 A 
ATOM     23  C   UNL     1      10.481  10.299  23.327  0.00  0.00    +0.010 A 
ATOM     37  H   UNL     1      10.740   7.068  21.160  0.00  0.00    +0.155 HD
ENDROOT
BRANCH  22  25
ATOM     25  C   UNL     1      11.626  12.217  24.351  0.00  0.00    +0.024 A 
ATOM     26  C   UNL     1      12.597  12.388  25.339  0.00  0.00    +0.131 A 
ATOM     28  C   UNL     1      10.627  13.179  24.186  0.00  0.00    +0.016 A 
ATOM     29  C   UNL     1      12.570  13.517  26.158  0.00  0.00    +0.091 A 
ATOM     30  C   UNL     1      10.601  14.308  25.005  0.00  0.00    +0.046 A 
ATOM     31  C   UNL     1      11.572  14.477  25.991  0.00  0.00    +0.124 A 
BRANCH  26   4
ATOM      4  O   UNL     1      13.584  11.466  25.524  0.00  0.00    -0.494 OA
ATOM     34  C   UNL     1      14.733  11.887  26.255  0.00  0.00    +0.277 C 
ENDBRANCH  26   4
BRANCH  31   5
ATOM      5  O   UNL     1      11.546  15.578  26.790  0.00  0.00    -0.495 OA
ATOM     35  C   UNL     1      11.154  15.385  28.148  0.00  0.00    +0.277 C 
ENDBRANCH  31   5
ENDBRANCH  22  25
BRANCH  12   7
ATOM      3  O   UNL     1      13.159   8.575  15.286  0.00  0.00    -0.268 OA
ATOM      7  N   UNL     1      14.246   9.208  17.234  0.00  0.00    -0.305 N 
ATOM     19  C   UNL     1      13.836   9.379  15.922  0.00  0.00    +0.264 C 
ATOM     36  H   UNL     1      14.849   9.907  17.659  0.00  0.00    +0.149 HD
BRANCH  19  24
ATOM      9  N   UNL     1      13.404  11.184  14.430  0.00  0.00    -0.247 NA
ATOM     10  N   UNL     1      15.944  12.267  14.924  0.00  0.00    -0.259 NA
ATOM     24  C   UNL     1      14.287  10.630  15.260  0.00  0.00    +0.143 A 
ATOM     27  C   UNL     1      15.523  11.132  15.519  0.00  0.00    +0.143 A 
ATOM     32  C   UNL     1      13.824  12.319  13.835  0.00  0.00    +0.131 A 
ATOM     33  C   UNL     1      15.071  12.850  14.078  0.00  0.00    +0.130 A 
ENDBRANCH  19  24
ENDBRANCH  12   7
TORSDOF 5
ENDMDL
MODEL 2
REMARK VINA RESULT:      -7.7     27.410     30.777
REMARK  Name = 11941380
REMARK  7 active torsions:
REMARK  status: ('A' for Active; 'I' for Inactive)
REMARK    1  A    between atoms: O_4  and  C_26
REMARK    2  A    between atoms: O_4  and  C_34
REMARK    3  A    between atoms: O_5  and  C_31
REMARK    4  A    between atoms: O_5  and  C_35
REMARK    5  A    between atoms: N_7  and  C_12
REMARK    6  A    between atoms: C_19  and  C_24
REMARK    7  A    between atoms: C_22  and  C_25
REMARK                            x       y       z     vdW  Elec       q    Type
REMARK                         _______ _______ _______ _____ _____    ______ ____
ROOT
ATOM      1  O   UNL     1      -1.638 -10.645  15.119  0.00  0.00    -0.273 OA
ATOM      2  O   UNL     1      -4.914 -13.315  11.974  0.00  0.00    -0.270 OA
ATOM      6  N   UNL     1      -4.289 -12.128  13.842  0.00  0.00    -0.284 N 
ATOM      8  N   UNL     1      -2.165 -10.307  12.930  0.00  0.00    -0.283 N 
ATOM     11  C   UNL     1      -3.960 -10.885  14.513  0.00  0.00    +0.183 C 
ATOM     12  C   UNL     1      -4.270 -11.147  15.993  0.00  0.00    +0.104 C 
ATOM     13  C   UNL     1      -4.100 -12.662  16.129  0.00  0.00    +0.043 C 
ATOM     14  C   UNL     1      -4.585 -13.191  14.789  0.00  0.00    +0.111 C 
ATOM     15  C   UNL     1      -2.489 -10.643  14.228  0.00  0.00    +0.240 C 
ATOM     16  C   UNL     1      -4.477 -12.284  12.485  0.00  0.00    +0.249 C 
ATOM     17  C   UNL     1      -4.109 -11.153  11.593  0.00  0.00    +0.059 A 
ATOM     18  C   UNL     1      -2.991 -10.326  11.784  0.00  0.00    +0.046 A 
ATOM     20  C   UNL     1      -4.855 -11.045  10.404  0.00  0.00    +0.023 A 
ATOM     21  C   UNL     1      -2.608  -9.454  10.750  0.00  0.00    +0.024 A 
ATOM     22  C   UNL     1      -4.486 -10.141   9.410  0.00  0.00    -0.014 A 
ATOM     23  C   UNL     1      -3.355  -9.353   9.577  0.00  0.00    +0.010 A 
ATOM     37  H   UNL     1      -1.234  -9.919  12.800  0.00  0.00    +0.155 HD
ENDROOT
BRANCH  22  25
ATOM     25  C   UNL     1      -5.268 -10.038   8.196  0.00  0.00    +0.024 A 
ATOM     26  C   UNL     1      -6.364  -9.177   8.118  0.00  0.00    +0.131 A 
ATOM     28  C   UNL     1      -4.915 -10.816   7.091  0.00  0.00    +0.016 A 
ATOM     29  C   UNL     1      -7.104  -9.094   6.938  0.00  0.00    +0.091 A 
ATOM     30  C   UNL     1      -5.655 -10.732   5.912  0.00  0.00    +0.046 A 
ATOM     31  C   UNL     1      -6.750  -9.871   5.835  0.00  0.00    +0.124 A 
BRANCH  26   4
ATOM      4  O   UNL     1      -6.732  -8.406   9.180  0.00  0.00    -0.494 OA
ATOM     34  C   UNL     1      -8.108  -8.436   9.554  0.00  0.00    +0.277 C 
ENDBRANCH  26   4
BRANCH  31   5
ATOM      5  O   UNL     1      -7.472  -9.788   4.685  0.00  0.00    -0.495 OA
ATOM     35  C   UNL     1      -7.286 -10.829   3.727  0.00  0.00    +0.277 C 
ENDBRANCH  31   5
ENDBRANCH  22  25
BRANCH  12   7
ATOM      3  O   UNL     1      -5.297 -10.544  18.605  0.00  0.00    -0.268 OA
ATOM      7  N   UNL     1      -5.619 -10.740  16.318  0.00  0.00    -0.305 N 
ATOM     19  C   UNL     1      -6.021 -10.470  17.616  0.00  0.00    +0.264 C 
ATOM     36  H   UNL     1      -6.306 -10.703  15.570  0.00  0.00    +0.149 HD
BRANCH  19  24
ATOM      9  N   UNL     1      -7.855  -9.066  17.037  0.00  0.00    -0.247 NA
ATOM     10  N   UNL     1      -9.530 -10.433  18.824  0.00  0.00    -0.259 NA
ATOM     24  C   UNL     1      -7.446 -10.090  17.787  0.00  0.00    +0.143 A 
ATOM     27  C   UNL     1      -8.235 -10.770  18.660  0.00  0.00    +0.143 A 
ATOM     32  C   UNL     1      -9.150  -8.730  17.201  0.00  0.00    +0.131 A 
ATOM     33  C   UNL     1      -9.972  -9.401  18.078  0.00  0.00    +0.130 A 
ENDBRANCH  19  24
ENDBRANCH  12   7
TORSDOF 5
ENDMDL
MODEL 3
REMARK VINA RESULT:      -7.5      4.029      8.169
REMARK  Name = 11941380
REMARK  7 active torsions:
REMARK  status: ('A' for Active; 'I' for Inactive)
REMARK    1  A    between atoms: O_4  and  C_26
REMARK    2  A    between atoms: O_4  and  C_34
REMARK    3  A    between atoms: O_5  and  C_31
REMARK    4  A    between atoms: O_5  and  C_35
REMARK    5  A    between atoms: N_7  and  C_12
REMARK    6  A    between atoms: C_19  and  C_24
REMARK    7  A    between atoms: C_22  and  C_25
REMARK                            x       y       z     vdW  Elec       q    Type
REMARK                         _______ _______ _______ _____ _____    ______ ____
ROOT
ATOM      1  O   UNL     1      11.906   6.119  20.158  0.00  0.00    -0.273 OA
ATOM      2  O   UNL     1      15.393   9.702  18.497  0.00  0.00    -0.270 OA
ATOM      6  N   UNL     1      13.483   8.943  19.527  0.00  0.00    -0.284 N 
ATOM      8  N   UNL     1      14.151   6.254  20.519  0.00  0.00    -0.283 N 
ATOM     11  C   UNL     1      12.798   8.308  20.637  0.00  0.00    +0.183 C 
ATOM     12  C   UNL     1      11.364   8.853  20.574  0.00  0.00    +0.104 C 
ATOM     13  C   UNL     1      11.180   9.200  19.095  0.00  0.00    +0.043 C 
ATOM     14  C   UNL     1      12.561   9.675  18.672  0.00  0.00    +0.111 C 
ATOM     15  C   UNL     1      12.898   6.816  20.379  0.00  0.00    +0.240 C 
ATOM     16  C   UNL     1      14.849   9.015  19.362  0.00  0.00    +0.249 C 
ATOM     17  C   UNL     1      15.708   8.202  20.262  0.00  0.00    +0.059 A 
ATOM     18  C   UNL     1      15.391   6.905  20.698  0.00  0.00    +0.046 A 
ATOM     20  C   UNL     1      16.983   8.732  20.534  0.00  0.00    +0.023 A 
ATOM     21  C   UNL     1      16.385   6.145  21.341  0.00  0.00    +0.024 A 
ATOM     22  C   UNL     1      17.939   7.979  21.214  0.00  0.00    -0.014 A 
ATOM     23  C   UNL     1      17.644   6.680  21.606  0.00  0.00    +0.010 A 
ATOM     37  H   UNL     1      14.169   5.239  20.580  0.00  0.00    +0.155 HD
ENDROOT
BRANCH  22  25
ATOM     25  C   UNL     1      19.243   8.542  21.490  0.00  0.00    +0.024 A 
ATOM     26  C   UNL     1      20.407   7.903  21.059  0.00  0.00    +0.131 A 
ATOM     28  C   UNL     1      19.331   9.742  22.198  0.00  0.00    +0.016 A 
ATOM     29  C   UNL     1      21.655   8.462  21.335  0.00  0.00    +0.091 A 
ATOM     30  C   UNL     1      20.579  10.301  22.473  0.00  0.00    +0.046 A 
ATOM     31  C   UNL     1      21.741   9.662  22.042  0.00  0.00    +0.124 A 
BRANCH  26   4
ATOM      4  O   UNL     1      20.353   6.730  20.366  0.00  0.00    -0.494 OA
ATOM     34  C   UNL     1      21.348   5.755  20.666  0.00  0.00    +0.277 C 
ENDBRANCH  26   4
BRANCH  31   5
ATOM      5  O   UNL     1      22.958  10.207  22.311  0.00  0.00    -0.495 OA
ATOM     35  C   UNL     1      22.973  11.538  22.826  0.00  0.00    +0.277 C 
ENDBRANCH  31   5
ENDBRANCH  22  25
BRANCH  12   7
ATOM      3  O   UNL     1      10.945   8.895  23.414  0.00  0.00    -0.268 OA
ATOM      7  N   UNL     1      11.220  10.024  21.409  0.00  0.00    -0.305 N 
ATOM     19  C   UNL     1      11.020   9.942  22.777  0.00  0.00    +0.264 C 
ATOM     36  H   UNL     1      11.215  10.938  20.963  0.00  0.00    +0.149 HD
BRANCH  19  24
ATOM      9  N   UNL     1      10.730  12.304  22.702  0.00  0.00    -0.247 NA
ATOM     10  N   UNL     1      10.727  12.443  25.504  0.00  0.00    -0.259 NA
ATOM     24  C   UNL     1      10.865  11.236  23.489  0.00  0.00    +0.143 A 
ATOM     27  C   UNL     1      10.867  11.274  24.847  0.00  0.00    +0.143 A 
ATOM     32  C   UNL     1      10.590  13.473  23.359  0.00  0.00    +0.131 A 
ATOM     33  C   UNL     1      10.589  13.541  24.735  0.00  0.00    +0.130 A 
ENDBRANCH  19  24
ENDBRANCH  12   7
TORSDOF 5
ENDMDL
MODEL 4
REMARK VINA RESULT:      -7.3      3.971     10.086
REMARK  Name = 11941380
REMARK  7 active torsions:
REMARK  status: ('A' for Active; 'I' for Inactive)
REMARK    1  A    between atoms: O_4  and  C_26
REMARK    2  A    between atoms: O_4  and  C_34
REMARK    3  A    between atoms: O_5  and  C_31
REMARK    4  A    between atoms: O_5  and  C_35
REMARK    5  A    between atoms: N_7  and  C_12
REMARK    6  A    between atoms: C_19  and  C_24
REMARK    7  A    between atoms: C_22  and  C_25
REMARK                            x       y       z     vdW  Elec       q    Type
REMARK                         _______ _______ _______ _____ _____    ______ ____
ROOT
ATOM      1  O   UNL     1       9.965  13.083  25.504  0.00  0.00    -0.273 OA
ATOM      2  O   UNL     1      14.054  13.068  22.181  0.00  0.00    -0.270 OA
ATOM      6  N   UNL     1      12.997  13.214  24.218  0.00  0.00    -0.284 N 
ATOM      8  N   UNL     1      10.602  11.522  23.974  0.00  0.00    -0.283 N 
ATOM     11  C   UNL     1      12.325  12.611  25.354  0.00  0.00    +0.183 C 
ATOM     12  C   UNL     1      12.547  13.598  26.508  0.00  0.00    +0.104 C 
ATOM     13  C   UNL     1      12.724  14.942  25.797  0.00  0.00    +0.043 C 
ATOM     14  C   UNL     1      13.443  14.567  24.511  0.00  0.00    +0.111 C 
ATOM     15  C   UNL     1      10.872  12.467  24.941  0.00  0.00    +0.240 C 
ATOM     16  C   UNL     1      13.342  12.566  23.052  0.00  0.00    +0.249 C 
ATOM     17  C   UNL     1      12.807  11.198  22.825  0.00  0.00    +0.059 A 
ATOM     18  C   UNL     1      11.513  10.786  23.184  0.00  0.00    +0.046 A 
ATOM     20  C   UNL     1      13.614  10.346  22.050  0.00  0.00    +0.023 A 
ATOM     21  C   UNL     1      11.036   9.554  22.702  0.00  0.00    +0.024 A 
ATOM     22  C   UNL     1      13.140   9.107  21.621  0.00  0.00    -0.014 A 
ATOM     23  C   UNL     1      11.845   8.716  21.937  0.00  0.00    +0.010 A 
ATOM     37  H   UNL     1       9.622  11.266  23.876  0.00  0.00    +0.155 HD
ENDROOT
BRANCH  22  25
ATOM     25  C   UNL     1      13.987   8.241  20.830  0.00  0.00    +0.024 A 
ATOM     26  C   UNL     1      13.897   8.226  19.437  0.00  0.00    +0.131 A 
ATOM     28  C   UNL     1      14.906   7.411  21.476  0.00  0.00    +0.016 A 
ATOM     29  C   UNL     1      14.723   7.383  18.692  0.00  0.00    +0.091 A 
ATOM     30  C   UNL     1      15.732   6.569  20.731  0.00  0.00    +0.046 A 
ATOM     31  C   UNL     1      15.640   6.555  19.339  0.00  0.00    +0.124 A 
BRANCH  26   4
ATOM      4  O   UNL     1      13.009   9.024  18.779  0.00  0.00    -0.494 OA
ATOM     34  C   UNL     1      11.898   8.382  18.159  0.00  0.00    +0.277 C 
ENDBRANCH  26   4
BRANCH  31   5
ATOM      5  O   UNL     1      16.446   5.734  18.612  0.00  0.00    -0.495 OA
ATOM     35  C   UNL     1      17.794   5.589  19.057  0.00  0.00    +0.277 C 
ENDBRANCH  31   5
ENDBRANCH  22  25
BRANCH  12   7
ATOM      3  O   UNL     1      13.280  14.598  29.098  0.00  0.00    -0.268 OA
ATOM      7  N   UNL     1      13.728  13.249  27.266  0.00  0.00    -0.305 N 
ATOM     19  C   UNL     1      13.995  13.788  28.514  0.00  0.00    +0.264 C 
ATOM     36  H   UNL     1      14.408  12.624  26.842  0.00  0.00    +0.149 HD
BRANCH  19  24
ATOM      9  N   UNL     1      15.184  12.211  29.845  0.00  0.00    -0.247 NA
ATOM     10  N   UNL     1      17.548  13.698  29.585  0.00  0.00    -0.259 NA
ATOM     24  C   UNL     1      15.261  13.347  29.153  0.00  0.00    +0.143 A 
ATOM     27  C   UNL     1      16.392  14.087  29.010  0.00  0.00    +0.143 A 
ATOM     32  C   UNL     1      16.339  11.820  30.419  0.00  0.00    +0.131 A 
ATOM     33  C   UNL     1      17.500  12.551  30.292  0.00  0.00    +0.130 A 
ENDBRANCH  19  24
ENDBRANCH  12   7
TORSDOF 5
ENDMDL
MODEL 5
REMARK VINA RESULT:      -7.1     29.925     31.594
REMARK  Name = 11941380
REMARK  7 active torsions:
REMARK  status: ('A' for Active; 'I' for Inactive)
REMARK    1  A    between atoms: O_4  and  C_26
REMARK    2  A    between atoms: O_4  and  C_34
REMARK    3  A    between atoms: O_5  and  C_31
REMARK    4  A    between atoms: O_5  and  C_35
REMARK    5  A    between atoms: N_7  and  C_12
REMARK    6  A    between atoms: C_19  and  C_24
REMARK    7  A    between atoms: C_22  and  C_25
REMARK                            x       y       z     vdW  Elec       q    Type
REMARK                         _______ _______ _______ _____ _____    ______ ____
ROOT
ATOM      1  O   UNL     1     -13.008  -3.228  12.582  0.00  0.00    -0.273 OA
ATOM      2  O   UNL     1     -13.969  -8.377  13.151  0.00  0.00    -0.270 OA
ATOM      6  N   UNL     1     -13.285  -6.471  12.062  0.00  0.00    -0.284 N 
ATOM      8  N   UNL     1     -12.286  -4.685  14.177  0.00  0.00    -0.283 N 
ATOM     11  C   UNL     1     -12.320  -5.412  11.825  0.00  0.00    +0.183 C 
ATOM     12  C   UNL     1     -12.596  -4.949  10.388  0.00  0.00    +0.104 C 
ATOM     13  C   UNL     1     -14.073  -5.290  10.181  0.00  0.00    +0.043 C 
ATOM     14  C   UNL     1     -14.253  -6.570  10.981  0.00  0.00    +0.111 C 
ATOM     15  C   UNL     1     -12.607  -4.356  12.876  0.00  0.00    +0.240 C 
ATOM     16  C   UNL     1     -13.226  -7.398  13.080  0.00  0.00    +0.249 C 
ATOM     17  C   UNL     1     -12.226  -7.191  14.160  0.00  0.00    +0.059 A 
ATOM     18  C   UNL     1     -11.888  -5.937  14.695  0.00  0.00    +0.046 A 
ATOM     20  C   UNL     1     -11.735  -8.359  14.771  0.00  0.00    +0.023 A 
ATOM     21  C   UNL     1     -11.119  -5.887  15.871  0.00  0.00    +0.024 A 
ATOM     22  C   UNL     1     -10.935  -8.287  15.910  0.00  0.00    -0.014 A 
ATOM     23  C   UNL     1     -10.637  -7.050  16.468  0.00  0.00    +0.010 A 
ATOM     37  H   UNL     1     -12.255  -3.904  14.828  0.00  0.00    +0.155 HD
ENDROOT
BRANCH  22  25
ATOM     25  C   UNL     1     -10.434  -9.498  16.523  0.00  0.00    +0.024 A 
ATOM     26  C   UNL     1      -9.237 -10.077  16.099  0.00  0.00    +0.131 A 
ATOM     28  C   UNL     1     -11.165 -10.092  17.555  0.00  0.00    +0.016 A 
ATOM     29  C   UNL     1      -8.772 -11.245  16.703  0.00  0.00    +0.091 A 
ATOM     30  C   UNL     1     -10.699 -11.259  18.159  0.00  0.00    +0.046 A 
ATOM     31  C   UNL     1      -9.503 -11.836  17.734  0.00  0.00    +0.124 A 
BRANCH  26   4
ATOM      4  O   UNL     1      -8.502  -9.520  15.094  0.00  0.00    -0.494 OA
ATOM     34  C   UNL     1      -8.391 -10.267  13.884  0.00  0.00    +0.277 C 
ENDBRANCH  26   4
BRANCH  31   5
ATOM      5  O   UNL     1      -9.049 -12.975  18.323  0.00  0.00    -0.495 OA
ATOM     35  C   UNL     1      -8.326 -12.829  19.545  0.00  0.00    +0.277 C 
ENDBRANCH  31   5
ENDBRANCH  22  25
BRANCH  12   7
ATOM      3  O   UNL     1     -10.241  -3.942   9.090  0.00  0.00    -0.268 OA
ATOM      7  N   UNL     1     -11.758  -5.658   9.447  0.00  0.00    -0.305 N 
ATOM     19  C   UNL     1     -10.637  -5.083   8.871  0.00  0.00    +0.264 C 
ATOM     36  H   UNL     1     -12.036  -6.594   9.162  0.00  0.00    +0.149 HD
BRANCH  19  24
ATOM      9  N   UNL     1     -10.619  -6.391   6.881  0.00  0.00    -0.247 NA
ATOM     10  N   UNL     1      -7.896  -6.968   7.224  0.00  0.00    -0.259 NA
ATOM     24  C   UNL     1      -9.897  -5.934   7.904  0.00  0.00    +0.143 A 
ATOM     27  C   UNL     1      -8.578  -6.197   8.095  0.00  0.00    +0.143 A 
ATOM     32  C   UNL     1      -9.937  -7.161   6.009  0.00  0.00    +0.131 A 
ATOM     33  C   UNL     1      -8.600  -7.445   6.179  0.00  0.00    +0.130 A 
ENDBRANCH  19  24
ENDBRANCH  12   7
TORSDOF 5
ENDMDL
MODEL 6
REMARK VINA RESULT:      -7.0     14.630     19.453
REMARK  Name = 11941380
REMARK  7 active torsions:
REMARK  status: ('A' for Active; 'I' for Inactive)
REMARK    1  A    between atoms: O_4  and  C_26
REMARK    2  A    between atoms: O_4  and  C_34
REMARK    3  A    between atoms: O_5  and  C_31
REMARK    4  A    between atoms: O_5  and  C_35
REMARK    5  A    between atoms: N_7  and  C_12
REMARK    6  A    between atoms: C_19  and  C_24
REMARK    7  A    between atoms: C_22  and  C_25
REMARK                            x       y       z     vdW  Elec       q    Type
REMARK                         _______ _______ _______ _____ _____    ______ ____
ROOT
ATOM      1  O   UNL     1      11.576   6.364  -2.215  0.00  0.00    -0.273 OA
ATOM      2  O   UNL     1      12.472   2.977   1.720  0.00  0.00    -0.270 OA
ATOM      6  N   UNL     1      13.022   4.486   0.074  0.00  0.00    -0.284 N 
ATOM      8  N   UNL     1      10.723   6.314  -0.104  0.00  0.00    -0.283 N 
ATOM     11  C   UNL     1      13.116   5.842  -0.435  0.00  0.00    +0.183 C 
ATOM     12  C   UNL     1      14.235   5.787  -1.484  0.00  0.00    +0.104 C 
ATOM     13  C   UNL     1      14.211   4.331  -1.955  0.00  0.00    +0.043 C 
ATOM     14  C   UNL     1      13.839   3.562  -0.697  0.00  0.00    +0.111 C 
ATOM     15  C   UNL     1      11.749   6.157  -1.013  0.00  0.00    +0.240 C 
ATOM     16  C   UNL     1      12.390   4.108   1.239  0.00  0.00    +0.249 C 
ATOM     17  C   UNL     1      11.546   5.113   1.937  0.00  0.00    +0.059 A 
ATOM     18  C   UNL     1      10.728   6.050   1.283  0.00  0.00    +0.046 A 
ATOM     20  C   UNL     1      11.459   4.974   3.334  0.00  0.00    +0.023 A 
ATOM     21  C   UNL     1       9.795   6.780   2.040  0.00  0.00    +0.024 A 
ATOM     22  C   UNL     1      10.560   5.741   4.073  0.00  0.00    -0.014 A 
ATOM     23  C   UNL     1       9.718   6.636   3.425  0.00  0.00    +0.010 A 
ATOM     37  H   UNL     1       9.881   6.753  -0.469  0.00  0.00    +0.155 HD
ENDROOT
BRANCH  22  25
ATOM     25  C   UNL     1      10.487   5.589   5.511  0.00  0.00    +0.024 A 
ATOM     26  C   UNL     1      11.139   6.483   6.361  0.00  0.00    +0.131 A 
ATOM     28  C   UNL     1       9.752   4.530   6.047  0.00  0.00    +0.016 A 
ATOM     29  C   UNL     1      11.056   6.319   7.744  0.00  0.00    +0.091 A 
ATOM     30  C   UNL     1       9.669   4.366   7.430  0.00  0.00    +0.046 A 
ATOM     31  C   UNL     1      10.322   5.260   8.279  0.00  0.00    +0.124 A 
BRANCH  26   4
ATOM      4  O   UNL     1      11.864   7.526   5.866  0.00  0.00    -0.494 OA
ATOM     34  C   UNL     1      11.392   8.839   6.160  0.00  0.00    +0.277 C 
ENDBRANCH  26   4
BRANCH  31   5
ATOM      5  O   UNL     1      10.240   5.101   9.628  0.00  0.00    -0.495 OA
ATOM     35  C   UNL     1       8.972   4.726  10.161  0.00  0.00    +0.277 C 
ENDBRANCH  31   5
ENDBRANCH  22  25
BRANCH  12   7
ATOM      3  O   UNL     1      15.295   8.426  -1.090  0.00  0.00    -0.268 OA
ATOM      7  N   UNL     1      15.512   6.126  -0.896  0.00  0.00    -0.305 N 
ATOM     19  C   UNL     1      15.937   7.436  -0.748  0.00  0.00    +0.264 C 
ATOM     36  H   UNL     1      16.137   5.371  -0.630  0.00  0.00    +0.149 HD
BRANCH  19  24
ATOM      9  N   UNL     1      18.305   7.471  -0.993  0.00  0.00    -0.247 NA
ATOM     10  N   UNL     1      18.629   8.076   1.726  0.00  0.00    -0.259 NA
ATOM     24  C   UNL     1      17.284   7.617  -0.149  0.00  0.00    +0.143 A 
ATOM     27  C   UNL     1      17.411   7.910   1.171  0.00  0.00    +0.143 A 
ATOM     32  C   UNL     1      19.523   7.637  -0.439  0.00  0.00    +0.131 A 
ATOM     33  C   UNL     1      19.681   7.934   0.896  0.00  0.00    +0.130 A 
ENDBRANCH  19  24
ENDBRANCH  12   7
TORSDOF 5
ENDMDL
MODEL 7
REMARK VINA RESULT:      -7.0     14.873     20.184
REMARK  Name = 11941380
REMARK  7 active torsions:
REMARK  status: ('A' for Active; 'I' for Inactive)
REMARK    1  A    between atoms: O_4  and  C_26
REMARK    2  A    between atoms: O_4  and  C_34
REMARK    3  A    between atoms: O_5  and  C_31
REMARK    4  A    between atoms: O_5  and  C_35
REMARK    5  A    between atoms: N_7  and  C_12
REMARK    6  A    between atoms: C_19  and  C_24
REMARK    7  A    between atoms: C_22  and  C_25
REMARK                            x       y       z     vdW  Elec       q    Type
REMARK                         _______ _______ _______ _____ _____    ______ ____
ROOT
ATOM      1  O   UNL     1      12.124   9.037   7.250  0.00  0.00    -0.273 OA
ATOM      2  O   UNL     1       9.952   4.679   5.239  0.00  0.00    -0.270 OA
ATOM      6  N   UNL     1      10.000   6.845   6.008  0.00  0.00    -0.284 N 
ATOM      8  N   UNL     1      12.713   7.819   5.418  0.00  0.00    -0.283 N 
ATOM     11  C   UNL     1      10.328   8.250   5.847  0.00  0.00    +0.183 C 
ATOM     12  C   UNL     1       9.348   8.987   6.771  0.00  0.00    +0.104 C 
ATOM     13  C   UNL     1       9.025   7.949   7.848  0.00  0.00    +0.043 C 
ATOM     14  C   UNL     1       9.046   6.633   7.085  0.00  0.00    +0.111 C 
ATOM     15  C   UNL     1      11.780   8.381   6.266  0.00  0.00    +0.240 C 
ATOM     16  C   UNL     1      10.385   5.829   5.161  0.00  0.00    +0.249 C 
ATOM     17  C   UNL     1      11.394   6.134   4.113  0.00  0.00    +0.059 A 
ATOM     18  C   UNL     1      12.496   6.984   4.300  0.00  0.00    +0.046 A 
ATOM     20  C   UNL     1      11.298   5.375   2.932  0.00  0.00    +0.023 A 
ATOM     21  C   UNL     1      13.510   7.004   3.326  0.00  0.00    +0.024 A 
ATOM     22  C   UNL     1      12.291   5.444   1.956  0.00  0.00    -0.014 A 
ATOM     23  C   UNL     1      13.404   6.249   2.159  0.00  0.00    +0.010 A 
ATOM     37  H   UNL     1      13.675   8.112   5.574  0.00  0.00    +0.155 HD
ENDROOT
BRANCH  22  25
ATOM     25  C   UNL     1      12.174   4.660   0.745  0.00  0.00    +0.024 A 
ATOM     26  C   UNL     1      13.009   3.566   0.514  0.00  0.00    +0.131 A 
ATOM     28  C   UNL     1      11.208   5.009  -0.201  0.00  0.00    +0.016 A 
ATOM     29  C   UNL     1      12.879   2.823  -0.660  0.00  0.00    +0.091 A 
ATOM     30  C   UNL     1      11.078   4.266  -1.374  0.00  0.00    +0.046 A 
ATOM     31  C   UNL     1      11.914   3.173  -1.604  0.00  0.00    +0.124 A 
BRANCH  26   4
ATOM      4  O   UNL     1      13.961   3.201   1.419  0.00  0.00    -0.494 OA
ATOM     34  C   UNL     1      15.312   3.531   1.105  0.00  0.00    +0.277 C 
ENDBRANCH  26   4
BRANCH  31   5
ATOM      5  O   UNL     1      11.787   2.448  -2.749  0.00  0.00    -0.495 OA
ATOM     35  C   UNL     1      12.571   2.860  -3.867  0.00  0.00    +0.277 C 
ENDBRANCH  31   5
ENDBRANCH  22  25
BRANCH  12   7
ATOM      3  O   UNL     1       9.090  11.210   4.972  0.00  0.00    -0.268 OA
ATOM      7  N   UNL     1       8.158   9.382   6.051  0.00  0.00    -0.305 N 
ATOM     19  C   UNL     1       8.132  10.476   5.202  0.00  0.00    +0.264 C 
ATOM     36  H   UNL     1       7.298   8.865   6.217  0.00  0.00    +0.149 HD
BRANCH  19  24
ATOM      9  N   UNL     1       6.289  11.946   4.866  0.00  0.00    -0.247 NA
ATOM     10  N   UNL     1       5.075  10.109   3.128  0.00  0.00    -0.259 NA
ATOM     24  C   UNL     1       6.826  10.766   4.557  0.00  0.00    +0.143 A 
ATOM     27  C   UNL     1       6.261   9.857   3.719  0.00  0.00    +0.143 A 
ATOM     32  C   UNL     1       5.104  12.198   4.274  0.00  0.00    +0.131 A 
ATOM     33  C   UNL     1       4.508  11.296   3.422  0.00  0.00    +0.130 A 
ENDBRANCH  19  24
ENDBRANCH  12   7
TORSDOF 5
ENDMDL
MODEL 8
REMARK VINA RESULT:      -6.9     25.411     27.635
REMARK  Name = 11941380
REMARK  7 active torsions:
REMARK  status: ('A' for Active; 'I' for Inactive)
REMARK    1  A    between atoms: O_4  and  C_26
REMARK    2  A    between atoms: O_4  and  C_34
REMARK    3  A    between atoms: O_5  and  C_31
REMARK    4  A    between atoms: O_5  and  C_35
REMARK    5  A    between atoms: N_7  and  C_12
REMARK    6  A    between atoms: C_19  and  C_24
REMARK    7  A    between atoms: C_22  and  C_25
REMARK                            x       y       z     vdW  Elec       q    Type
REMARK                         _______ _______ _______ _____ _____    ______ ____
ROOT
ATOM      1  O   UNL     1      -9.727  10.133  17.402  0.00  0.00    -0.273 OA
ATOM      2  O   UNL     1     -14.545  10.239  19.532  0.00  0.00    -0.270 OA
ATOM      6  N   UNL     1     -12.993  10.132  17.838  0.00  0.00    -0.284 N 
ATOM      8  N   UNL     1     -10.642   8.816  19.019  0.00  0.00    -0.283 N 
ATOM     11  C   UNL     1     -12.003   9.414  17.057  0.00  0.00    +0.183 C 
ATOM     12  C   UNL     1     -11.975  10.137  15.703  0.00  0.00    +0.104 C 
ATOM     13  C   UNL     1     -12.426  11.558  16.049  0.00  0.00    +0.043 C 
ATOM     14  C   UNL     1     -13.436  11.344  17.165  0.00  0.00    +0.111 C 
ATOM     15  C   UNL     1     -10.707   9.526  17.838  0.00  0.00    +0.240 C 
ATOM     16  C   UNL     1     -13.593   9.675  18.991  0.00  0.00    +0.249 C 
ATOM     17  C   UNL     1     -13.046   8.447  19.626  0.00  0.00    +0.059 A 
ATOM     18  C   UNL     1     -11.678   8.134  19.694  0.00  0.00    +0.046 A 
ATOM     20  C   UNL     1     -13.972   7.662  20.337  0.00  0.00    +0.023 A 
ATOM     21  C   UNL     1     -11.265   7.080  20.527  0.00  0.00    +0.024 A 
ATOM     22  C   UNL     1     -13.546   6.590  21.121  0.00  0.00    -0.014 A 
ATOM     23  C   UNL     1     -12.191   6.307  21.226  0.00  0.00    +0.010 A 
ATOM     37  H   UNL     1      -9.709   8.702  19.408  0.00  0.00    +0.155 HD
ENDROOT
BRANCH  22  25
ATOM     25  C   UNL     1     -14.513   5.790  21.841  0.00  0.00    +0.024 A 
ATOM     26  C   UNL     1     -15.742   5.459  21.268  0.00  0.00    +0.131 A 
ATOM     28  C   UNL     1     -14.204   5.345  23.129  0.00  0.00    +0.016 A 
ATOM     29  C   UNL     1     -16.659   4.686  21.980  0.00  0.00    +0.091 A 
ATOM     30  C   UNL     1     -15.122   4.571  23.839  0.00  0.00    +0.046 A 
ATOM     31  C   UNL     1     -16.350   4.242  23.265  0.00  0.00    +0.124 A 
BRANCH  26   4
ATOM      4  O   UNL     1     -16.070   5.879  20.014  0.00  0.00    -0.494 OA
ATOM     34  C   UNL     1     -17.159   5.216  19.374  0.00  0.00    +0.277 C 
ENDBRANCH  26   4
BRANCH  31   5
ATOM      5  O   UNL     1     -17.245   3.487  23.959  0.00  0.00    -0.495 OA
ATOM     35  C   UNL     1     -16.727   2.664  25.002  0.00  0.00    +0.277 C 
ENDBRANCH  31   5
ENDBRANCH  22  25
BRANCH  12   7
ATOM      3  O   UNL     1     -11.470   7.788  14.130  0.00  0.00    -0.268 OA
ATOM      7  N   UNL     1     -12.883   9.513  14.766  0.00  0.00    -0.305 N 
ATOM     19  C   UNL     1     -12.546   8.376  14.050  0.00  0.00    +0.264 C 
ATOM     36  H   UNL     1     -13.780   9.959  14.593  0.00  0.00    +0.149 HD
BRANCH  19  24
ATOM      9  N   UNL     1     -13.840   6.569  13.197  0.00  0.00    -0.247 NA
ATOM     10  N   UNL     1     -15.123   8.279  11.381  0.00  0.00    -0.259 NA
ATOM     24  C   UNL     1     -13.578   7.873  13.109  0.00  0.00    +0.143 A 
ATOM     27  C   UNL     1     -14.184   8.724  12.240  0.00  0.00    +0.143 A 
ATOM     32  C   UNL     1     -14.780   6.124  12.338  0.00  0.00    +0.131 A 
ATOM     33  C   UNL     1     -15.409   6.963  11.446  0.00  0.00    +0.130 A 
ENDBRANCH  19  24
ENDBRANCH  12   7
TORSDOF 5
ENDMDL
MODEL 9
REMARK VINA RESULT:      -6.9     17.040     23.775
REMARK  Name = 11941380
REMARK  7 active torsions:
REMARK  status: ('A' for Active; 'I' for Inactive)
REMARK    1  A    between atoms: O_4  and  C_26
REMARK    2  A    between atoms: O_4  and  C_34
REMARK    3  A    between atoms: O_5  and  C_31
REMARK    4  A    between atoms: O_5  and  C_35
REMARK    5  A    between atoms: N_7  and  C_12
REMARK    6  A    between atoms: C_19  and  C_24
REMARK    7  A    between atoms: C_22  and  C_25
REMARK                            x       y       z     vdW  Elec       q    Type
REMARK                         _______ _______ _______ _____ _____    ______ ____
ROOT
ATOM      1  O   UNL     1      14.466   6.585  -0.580  0.00  0.00    -0.273 OA
ATOM      2  O   UNL     1      10.582   3.186  -1.642  0.00  0.00    -0.270 OA
ATOM      6  N   UNL     1      12.020   4.392  -0.313  0.00  0.00    -0.284 N 
ATOM      8  N   UNL     1      12.568   6.867  -1.807  0.00  0.00    -0.283 N 
ATOM     11  C   UNL     1      12.442   5.629   0.318  0.00  0.00    +0.183 C 
ATOM     12  C   UNL     1      13.252   5.186   1.544  0.00  0.00    +0.104 C 
ATOM     13  C   UNL     1      13.781   3.807   1.142  0.00  0.00    +0.043 C 
ATOM     14  C   UNL     1      12.655   3.233   0.296  0.00  0.00    +0.111 C 
ATOM     15  C   UNL     1      13.263   6.361  -0.728  0.00  0.00    +0.240 C 
ATOM     16  C   UNL     1      11.021   4.269  -1.253  0.00  0.00    +0.249 C 
ATOM     17  C   UNL     1      10.459   5.512  -1.845  0.00  0.00    +0.059 A 
ATOM     18  C   UNL     1      11.220   6.649  -2.165  0.00  0.00    +0.046 A 
ATOM     20  C   UNL     1       9.114   5.443  -2.251  0.00  0.00    +0.023 A 
ATOM     21  C   UNL     1      10.630   7.663  -2.941  0.00  0.00    +0.024 A 
ATOM     22  C   UNL     1       8.533   6.480  -2.979  0.00  0.00    -0.014 A 
ATOM     23  C   UNL     1       9.295   7.585  -3.336  0.00  0.00    +0.010 A 
ATOM     37  H   UNL     1      13.072   7.549  -2.369  0.00  0.00    +0.155 HD
ENDROOT
BRANCH  22  25
ATOM     25  C   UNL     1       7.146   6.394  -3.383  0.00  0.00    +0.024 A 
ATOM     26  C   UNL     1       6.775   5.702  -4.537  0.00  0.00    +0.131 A 
ATOM     28  C   UNL     1       6.170   7.015  -2.602  0.00  0.00    +0.016 A 
ATOM     29  C   UNL     1       5.432   5.631  -4.909  0.00  0.00    +0.091 A 
ATOM     30  C   UNL     1       4.827   6.944  -2.973  0.00  0.00    +0.046 A 
ATOM     31  C   UNL     1       4.458   6.252  -4.127  0.00  0.00    +0.124 A 
BRANCH  26   4
ATOM      4  O   UNL     1       7.706   5.086  -5.320  0.00  0.00    -0.494 OA
ATOM     34  C   UNL     1       7.919   5.630  -6.620  0.00  0.00    +0.277 C 
ENDBRANCH  26   4
BRANCH  31   5
ATOM      5  O   UNL     1       3.149   6.182  -4.489  0.00  0.00    -0.495 OA
ATOM     35  C   UNL     1       2.529   4.899  -4.435  0.00  0.00    +0.277 C 
ENDBRANCH  31   5
ENDBRANCH  22  25
BRANCH  12   7
ATOM      3  O   UNL     1      12.590   7.328   3.337  0.00  0.00    -0.268 OA
ATOM      7  N   UNL     1      12.410   5.102   2.716  0.00  0.00    -0.305 N 
ATOM     19  C   UNL     1      12.149   6.197   3.523  0.00  0.00    +0.264 C 
ATOM     36  H   UNL     1      12.041   4.193   2.982  0.00  0.00    +0.149 HD
BRANCH  19  24
ATOM      9  N   UNL     1      11.630   6.598   5.812  0.00  0.00    -0.247 NA
ATOM     10  N   UNL     1       9.442   4.847   5.675  0.00  0.00    -0.259 NA
ATOM     24  C   UNL     1      11.286   5.941   4.704  0.00  0.00    +0.143 A 
ATOM     27  C   UNL     1      10.232   5.088   4.609  0.00  0.00    +0.143 A 
ATOM     32  C   UNL     1      10.839   6.358   6.878  0.00  0.00    +0.131 A 
ATOM     33  C   UNL     1       9.765   5.498   6.810  0.00  0.00    +0.130 A 
ENDBRANCH  19  24
ENDBRANCH  12   7
TORSDOF 5
ENDMDL
MODEL 10
REMARK VINA RESULT:      -6.8     22.723     26.159
REMARK  Name = 11941380
REMARK  7 active torsions:
REMARK  status: ('A' for Active; 'I' for Inactive)
REMARK    1  A    between atoms: O_4  and  C_26
REMARK    2  A    between atoms: O_4  and  C_34
REMARK    3  A    between atoms: O_5  and  C_31
REMARK    4  A    between atoms: O_5  and  C_35
REMARK    5  A    between atoms: N_7  and  C_12
REMARK    6  A    between atoms: C_19  and  C_24
REMARK    7  A    between atoms: C_22  and  C_25
REMARK                            x       y       z     vdW  Elec       q    Type
REMARK                         _______ _______ _______ _____ _____    ______ ____
ROOT
ATOM      1  O   UNL     1      -0.725   9.254   4.726  0.00  0.00    -0.273 OA
ATOM      2  O   UNL     1      -5.733  10.888   4.784  0.00  0.00    -0.270 OA
ATOM      6  N   UNL     1      -3.620  10.607   3.922  0.00  0.00    -0.284 N 
ATOM      8  N   UNL     1      -2.645   8.077   5.065  0.00  0.00    -0.283 N 
ATOM     11  C   UNL     1      -2.593   9.793   3.300  0.00  0.00    +0.183 C 
ATOM     12  C   UNL     1      -1.687  10.796   2.573  0.00  0.00    +0.104 C 
ATOM     13  C   UNL     1      -1.868  12.086   3.376  0.00  0.00    +0.043 C 
ATOM     14  C   UNL     1      -3.323  12.027   3.812  0.00  0.00    +0.111 C 
ATOM     15  C   UNL     1      -1.907   9.060   4.438  0.00  0.00    +0.240 C 
ATOM     16  C   UNL     1      -4.822  10.147   4.414  0.00  0.00    +0.249 C 
ATOM     17  C   UNL     1      -5.018   8.677   4.524  0.00  0.00    +0.059 A 
ATOM     18  C   UNL     1      -4.015   7.773   4.911  0.00  0.00    +0.046 A 
ATOM     20  C   UNL     1      -6.343   8.225   4.389  0.00  0.00    +0.023 A 
ATOM     21  C   UNL     1      -4.378   6.449   5.216  0.00  0.00    +0.024 A 
ATOM     22  C   UNL     1      -6.674   6.897   4.651  0.00  0.00    -0.014 A 
ATOM     23  C   UNL     1      -5.693   6.011   5.077  0.00  0.00    +0.010 A 
ATOM     37  H   UNL     1      -2.111   7.439   5.651  0.00  0.00    +0.155 HD
ENDROOT
BRANCH  22  25
ATOM     25  C   UNL     1      -8.042   6.447   4.501  0.00  0.00    +0.024 A 
ATOM     26  C   UNL     1      -8.924   6.457   5.582  0.00  0.00    +0.131 A 
ATOM     28  C   UNL     1      -8.478   5.999   3.252  0.00  0.00    +0.016 A 
ATOM     29  C   UNL     1     -10.239   6.020   5.416  0.00  0.00    +0.091 A 
ATOM     30  C   UNL     1      -9.793   5.562   3.086  0.00  0.00    +0.046 A 
ATOM     31  C   UNL     1     -10.673   5.573   4.168  0.00  0.00    +0.124 A 
BRANCH  26   4
ATOM      4  O   UNL     1      -8.526   6.889   6.813  0.00  0.00    -0.494 OA
ATOM     34  C   UNL     1      -9.220   8.008   7.361  0.00  0.00    +0.277 C 
ENDBRANCH  26   4
BRANCH  31   5
ATOM      5  O   UNL     1     -11.955   5.147   4.007  0.00  0.00    -0.495 OA
ATOM     35  C   UNL     1     -12.741   4.994   5.187  0.00  0.00    +0.277 C 
ENDBRANCH  31   5
ENDBRANCH  22  25
BRANCH  12   7
ATOM      3  O   UNL     1      -1.065   9.080   0.356  0.00  0.00    -0.268 OA
ATOM      7  N   UNL     1      -2.107  10.971   1.201  0.00  0.00    -0.305 N 
ATOM     19  C   UNL     1      -1.754  10.084   0.197  0.00  0.00    +0.264 C 
ATOM     36  H   UNL     1      -2.638  11.804   0.960  0.00  0.00    +0.149 HD
BRANCH  19  24
ATOM      9  N   UNL     1      -1.414  11.158  -1.901  0.00  0.00    -0.247 NA
ATOM     10  N   UNL     1      -3.913  10.273  -2.816  0.00  0.00    -0.259 NA
ATOM     24  C   UNL     1      -2.243  10.418  -1.165  0.00  0.00    +0.143 A 
ATOM     27  C   UNL     1      -3.458   9.976  -1.583  0.00  0.00    +0.143 A 
ATOM     32  C   UNL     1      -1.868  11.455  -3.135  0.00  0.00    +0.131 A 
ATOM     33  C   UNL     1      -3.096  11.020  -3.584  0.00  0.00    +0.130 A 
ENDBRANCH  19  24
ENDBRANCH  12   7
TORSDOF 5
ENDMDL
