MODEL 1
REMARK VINA RESULT:      -8.0      0.000      0.000
REMARK  Name = 25390364
REMARK  9 active torsions:
REMARK  status: ('A' for Active; 'I' for Inactive)
REMARK    1  A    between atoms: S_1  and  N_9
REMARK    2  A    between atoms: S_1  and  C_24
REMARK    3  A    between atoms: O_3  and  C_13
REMARK    4  A    between atoms: O_4  and  C_14
REMARK    5  A    between atoms: N_9  and  C_17
REMARK    6  A    between atoms: C_12  and  C_16
REMARK    7  A    between atoms: C_15  and  C_17
REMARK    8  A    between atoms: C_16  and  C_18
REMARK    9  A    between atoms: C_32  and  C_34
REMARK                            x       y       z     vdW  Elec       q    Type
REMARK                         _______ _______ _______ _____ _____    ______ ____
ROOT
ATOM      2  O   UNL     1      16.678   6.410  20.691  0.00  0.00    -0.366 OA
ATOM     12  C   UNL     1      17.264   7.482  21.449  0.00  0.00    +0.158 C 
ATOM     13  C   UNL     1      16.255   8.617  21.402  0.00  0.00    +0.175 C 
ATOM     14  C   UNL     1      14.944   7.860  21.432  0.00  0.00    +0.175 C 
ATOM     15  C   UNL     1      15.257   6.648  20.561  0.00  0.00    +0.165 C 
ENDROOT
BRANCH  13   3
ATOM      3  O   UNL     1      16.411   9.509  22.486  0.00  0.00    -0.387 OA
ATOM     35  H   UNL     1      15.571   9.987  22.593  0.00  0.00    +0.210 HD
ENDBRANCH  13   3
BRANCH  14   4
ATOM      4  O   UNL     1      14.670   7.395  22.753  0.00  0.00    -0.387 OA
ATOM     36  H   UNL     1      13.971   7.962  23.122  0.00  0.00    +0.210 HD
ENDBRANCH  14   4
BRANCH  12  16
ATOM     16  C   UNL     1      18.613   7.851  20.857  0.00  0.00    +0.130 C 
BRANCH  16  18
ATOM      5  O   UNL     1      19.715   8.577  22.831  0.00  0.00    -0.276 OA
ATOM      8  N   UNL     1      20.592   6.700  21.778  0.00  0.00    -0.298 N 
ATOM     10  N   UNL     1      22.395   4.437  21.708  0.00  0.00    -0.312 N 
ATOM     11  N   UNL     1      24.035   3.136  20.617  0.00  0.00    -0.240 NA
ATOM     18  C   UNL     1      19.684   7.751  21.916  0.00  0.00    +0.218 C 
ATOM     19  C   UNL     1      21.661   6.539  22.760  0.00  0.00    +0.126 C 
ATOM     20  C   UNL     1      20.545   5.713  20.697  0.00  0.00    +0.126 C 
ATOM     21  C   UNL     1      22.020   5.071  22.976  0.00  0.00    +0.125 C 
ATOM     22  C   UNL     1      21.891   5.026  20.466  0.00  0.00    +0.125 C 
ATOM     23  C   UNL     1      23.236   3.327  21.690  0.00  0.00    +0.121 A 
ATOM     25  C   UNL     1      23.193   2.481  22.787  0.00  0.00    +0.043 A 
ATOM     28  C   UNL     1      24.026   1.368  22.783  0.00  0.00    +0.005 A 
ATOM     29  C   UNL     1      24.831   2.043  20.649  0.00  0.00    +0.113 A 
ATOM     33  C   UNL     1      24.864   1.138  21.698  0.00  0.00    +0.020 A 
ENDBRANCH  16  18
ENDBRANCH  12  16
BRANCH  15  17
ATOM     17  C   UNL     1      14.957   6.882  19.086  0.00  0.00    +0.140 C 
BRANCH  17   9
ATOM      9  N   UNL     1      14.162   8.060  18.901  0.00  0.00    -0.187 NA
ATOM     37  H   UNL     1      14.558   8.940  19.252  0.00  0.00    +0.148 HD
BRANCH   9   1
ATOM      1  S   UNL     1      12.447   7.968  18.754  0.00  0.00    +0.058 S 
ATOM      6  O   UNL     1      12.039   6.591  18.955  0.00  0.00    -0.153 OA
ATOM      7  O   UNL     1      12.005   8.695  17.580  0.00  0.00    -0.153 OA
BRANCH   1  24
ATOM     24  C   UNL     1      11.931   8.900  20.163  0.00  0.00    +0.105 A 
ATOM     26  C   UNL     1      11.112   8.311  21.128  0.00  0.00    +0.029 A 
ATOM     27  C   UNL     1      12.338  10.226  20.311  0.00  0.00    +0.029 A 
ATOM     30  C   UNL     1      10.702   9.047  22.239  0.00  0.00    +0.005 A 
ATOM     31  C   UNL     1      11.929  10.962  21.423  0.00  0.00    +0.005 A 
ATOM     32  C   UNL     1      11.111  10.374  22.386  0.00  0.00    -0.050 A 
ATOM     34  C   UNL     1      10.672  11.161  23.575  0.00  0.00    +0.044 C 
ENDBRANCH   1  24
ENDBRANCH   9   1
ENDBRANCH  17   9
ENDBRANCH  15  17
TORSDOF 8
ENDMDL
MODEL 2
REMARK VINA RESULT:      -8.0      7.265      9.255
REMARK  Name = 25390364
REMARK  9 active torsions:
REMARK  status: ('A' for Active; 'I' for Inactive)
REMARK    1  A    between atoms: S_1  and  N_9
REMARK    2  A    between atoms: S_1  and  C_24
REMARK    3  A    between atoms: O_3  and  C_13
REMARK    4  A    between atoms: O_4  and  C_14
REMARK    5  A    between atoms: N_9  and  C_17
REMARK    6  A    between atoms: C_12  and  C_16
REMARK    7  A    between atoms: C_15  and  C_17
REMARK    8  A    between atoms: C_16  and  C_18
REMARK    9  A    between atoms: C_32  and  C_34
REMARK                            x       y       z     vdW  Elec       q    Type
REMARK                         _______ _______ _______ _____ _____    ______ ____
ROOT
ATOM      2  O   UNL     1      10.684   8.522  20.460  0.00  0.00    -0.366 OA
ATOM     12  C   UNL     1      11.826   8.057  19.720  0.00  0.00    +0.158 C 
ATOM     13  C   UNL     1      12.668   7.274  20.714  0.00  0.00    +0.175 C 
ATOM     14  C   UNL     1      11.601   6.632  21.577  0.00  0.00    +0.175 C 
ATOM     15  C   UNL     1      10.559   7.742  21.671  0.00  0.00    +0.165 C 
ENDROOT
BRANCH  13   3
ATOM      3  O   UNL     1      13.508   6.337  20.074  0.00  0.00    -0.387 OA
ATOM     35  H   UNL     1      13.406   5.489  20.539  0.00  0.00    +0.210 HD
ENDBRANCH  13   3
BRANCH  14   4
ATOM      4  O   UNL     1      11.009   5.528  20.892  0.00  0.00    -0.387 OA
ATOM     36  H   UNL     1      11.718   5.075  20.404  0.00  0.00    +0.210 HD
ENDBRANCH  14   4
BRANCH  12  16
ATOM     16  C   UNL     1      12.559   9.240  19.112  0.00  0.00    +0.130 C 
BRANCH  16  18
ATOM      5  O   UNL     1      12.815   7.767  17.267  0.00  0.00    -0.276 OA
ATOM      8  N   UNL     1      13.830   9.850  17.087  0.00  0.00    -0.298 N 
ATOM     10  N   UNL     1      15.228  11.870  15.557  0.00  0.00    -0.312 N 
ATOM     11  N   UNL     1      17.014  13.391  15.290  0.00  0.00    -0.240 NA
ATOM     18  C   UNL     1      13.073   8.876  17.740  0.00  0.00    +0.218 C 
ATOM     19  C   UNL     1      14.367   9.572  15.758  0.00  0.00    +0.126 C 
ATOM     20  C   UNL     1      14.125  11.170  17.647  0.00  0.00    +0.126 C 
ATOM     21  C   UNL     1      14.434  10.829  14.895  0.00  0.00    +0.125 C 
ATOM     22  C   UNL     1      15.358  11.818  17.015  0.00  0.00    +0.125 C 
ATOM     23  C   UNL     1      15.868  12.857  14.812  0.00  0.00    +0.121 A 
ATOM     25  C   UNL     1      15.276  13.232  13.615  0.00  0.00    +0.043 A 
ATOM     28  C   UNL     1      15.903  14.217  12.860  0.00  0.00    +0.005 A 
ATOM     29  C   UNL     1      17.594  14.346  14.529  0.00  0.00    +0.113 A 
ATOM     33  C   UNL     1      17.085  14.790  13.318  0.00  0.00    +0.020 A 
ENDBRANCH  16  18
ENDBRANCH  12  16
BRANCH  15  17
ATOM     17  C   UNL     1      10.790   8.675  22.852  0.00  0.00    +0.140 C 
BRANCH  17   9
ATOM      9  N   UNL     1      10.483  10.031  22.507  0.00  0.00    -0.187 NA
ATOM     37  H   UNL     1      10.210  10.206  21.532  0.00  0.00    +0.148 HD
BRANCH   9   1
ATOM      1  S   UNL     1      11.154  11.352  23.388  0.00  0.00    +0.058 S 
ATOM      6  O   UNL     1      12.502  11.003  23.790  0.00  0.00    -0.153 OA
ATOM      7  O   UNL     1      10.202  11.835  24.370  0.00  0.00    -0.153 OA
BRANCH   1  24
ATOM     24  C   UNL     1      11.265  12.586  22.127  0.00  0.00    +0.105 A 
ATOM     26  C   UNL     1      12.246  12.488  21.140  0.00  0.00    +0.029 A 
ATOM     27  C   UNL     1      10.373  13.658  22.120  0.00  0.00    +0.029 A 
ATOM     30  C   UNL     1      12.335  13.462  20.146  0.00  0.00    +0.005 A 
ATOM     31  C   UNL     1      10.462  14.633  21.125  0.00  0.00    +0.005 A 
ATOM     32  C   UNL     1      11.443  14.535  20.139  0.00  0.00    -0.050 A 
ATOM     34  C   UNL     1      11.538  15.577  19.076  0.00  0.00    +0.044 C 
ENDBRANCH   1  24
ENDBRANCH   9   1
ENDBRANCH  17   9
ENDBRANCH  15  17
TORSDOF 8
ENDMDL
MODEL 3
REMARK VINA RESULT:      -7.8      7.224      9.064
REMARK  Name = 25390364
REMARK  9 active torsions:
REMARK  status: ('A' for Active; 'I' for Inactive)
REMARK    1  A    between atoms: S_1  and  N_9
REMARK    2  A    between atoms: S_1  and  C_24
REMARK    3  A    between atoms: O_3  and  C_13
REMARK    4  A    between atoms: O_4  and  C_14
REMARK    5  A    between atoms: N_9  and  C_17
REMARK    6  A    between atoms: C_12  and  C_16
REMARK    7  A    between atoms: C_15  and  C_17
REMARK    8  A    between atoms: C_16  and  C_18
REMARK    9  A    between atoms: C_32  and  C_34
REMARK                            x       y       z     vdW  Elec       q    Type
REMARK                         _______ _______ _______ _____ _____    ______ ____
ROOT
ATOM      2  O   UNL     1      10.560   8.277  20.353  0.00  0.00    -0.366 OA
ATOM     12  C   UNL     1      11.710   7.891  19.581  0.00  0.00    +0.158 C 
ATOM     13  C   UNL     1      12.648   7.205  20.560  0.00  0.00    +0.175 C 
ATOM     14  C   UNL     1      11.670   6.498  21.475  0.00  0.00    +0.175 C 
ATOM     15  C   UNL     1      10.543   7.519  21.585  0.00  0.00    +0.165 C 
ENDROOT
BRANCH  13   3
ATOM      3  O   UNL     1      13.542   6.326  19.909  0.00  0.00    -0.387 OA
ATOM     35  H   UNL     1      13.010   5.627  19.492  0.00  0.00    +0.210 HD
ENDBRANCH  13   3
BRANCH  14   4
ATOM      4  O   UNL     1      11.150   5.332  20.837  0.00  0.00    -0.387 OA
ATOM     36  H   UNL     1      11.271   5.447  19.879  0.00  0.00    +0.210 HD
ENDBRANCH  14   4
BRANCH  12  16
ATOM     16  C   UNL     1      12.318   9.116  18.922  0.00  0.00    +0.130 C 
BRANCH  16  18
ATOM      5  O   UNL     1      12.760   7.608  17.140  0.00  0.00    -0.276 OA
ATOM      8  N   UNL     1      13.791   9.687  17.026  0.00  0.00    -0.298 N 
ATOM     10  N   UNL     1      15.341  11.678  15.608  0.00  0.00    -0.312 N 
ATOM     11  N   UNL     1      17.147  13.195  15.496  0.00  0.00    -0.240 NA
ATOM     18  C   UNL     1      12.969   8.725  17.616  0.00  0.00    +0.218 C 
ATOM     19  C   UNL     1      14.461   9.384  15.764  0.00  0.00    +0.126 C 
ATOM     20  C   UNL     1      14.029  11.018  17.588  0.00  0.00    +0.126 C 
ATOM     21  C   UNL     1      14.618  10.625  14.889  0.00  0.00    +0.125 C 
ATOM     22  C   UNL     1      15.321  11.654  17.073  0.00  0.00    +0.125 C 
ATOM     23  C   UNL     1      16.055  12.652  14.913  0.00  0.00    +0.121 A 
ATOM     25  C   UNL     1      15.590  13.003  13.656  0.00  0.00    +0.043 A 
ATOM     28  C   UNL     1      16.292  13.973  12.951  0.00  0.00    +0.005 A 
ATOM     29  C   UNL     1      17.803  14.136  14.780  0.00  0.00    +0.113 A 
ATOM     33  C   UNL     1      17.421  14.556  13.516  0.00  0.00    +0.020 A 
ENDBRANCH  16  18
ENDBRANCH  12  16
BRANCH  15  17
ATOM     17  C   UNL     1      10.737   8.497  22.736  0.00  0.00    +0.140 C 
BRANCH  17   9
ATOM      9  N   UNL     1      10.541   9.849  22.305  0.00  0.00    -0.187 NA
ATOM     37  H   UNL     1       9.707  10.031  21.733  0.00  0.00    +0.148 HD
BRANCH   9   1
ATOM      1  S   UNL     1      11.868  10.936  22.137  0.00  0.00    +0.058 S 
ATOM      6  O   UNL     1      11.731  11.641  20.878  0.00  0.00    -0.153 OA
ATOM      7  O   UNL     1      13.110  10.265  22.466  0.00  0.00    -0.153 OA
BRANCH   1  24
ATOM     24  C   UNL     1      11.539  12.083  23.441  0.00  0.00    +0.105 A 
ATOM     26  C   UNL     1      11.730  13.450  23.233  0.00  0.00    +0.029 A 
ATOM     27  C   UNL     1      11.092  11.623  24.680  0.00  0.00    +0.029 A 
ATOM     30  C   UNL     1      11.474  14.356  24.262  0.00  0.00    +0.005 A 
ATOM     31  C   UNL     1      10.835  12.529  25.709  0.00  0.00    +0.005 A 
ATOM     32  C   UNL     1      11.026  13.894  25.501  0.00  0.00    -0.050 A 
ATOM     34  C   UNL     1      10.752  14.863  26.601  0.00  0.00    +0.044 C 
ENDBRANCH   1  24
ENDBRANCH   9   1
ENDBRANCH  17   9
ENDBRANCH  15  17
TORSDOF 8
ENDMDL
MODEL 4
REMARK VINA RESULT:      -7.7      3.149      4.747
REMARK  Name = 25390364
REMARK  9 active torsions:
REMARK  status: ('A' for Active; 'I' for Inactive)
REMARK    1  A    between atoms: S_1  and  N_9
REMARK    2  A    between atoms: S_1  and  C_24
REMARK    3  A    between atoms: O_3  and  C_13
REMARK    4  A    between atoms: O_4  and  C_14
REMARK    5  A    between atoms: N_9  and  C_17
REMARK    6  A    between atoms: C_12  and  C_16
REMARK    7  A    between atoms: C_15  and  C_17
REMARK    8  A    between atoms: C_16  and  C_18
REMARK    9  A    between atoms: C_32  and  C_34
REMARK                            x       y       z     vdW  Elec       q    Type
REMARK                         _______ _______ _______ _____ _____    ______ ____
ROOT
ATOM      2  O   UNL     1      13.922   6.843  19.058  0.00  0.00    -0.366 OA
ATOM     12  C   UNL     1      14.836   6.814  20.168  0.00  0.00    +0.158 C 
ATOM     13  C   UNL     1      14.166   7.616  21.271  0.00  0.00    +0.175 C 
ATOM     14  C   UNL     1      12.708   7.267  21.059  0.00  0.00    +0.175 C 
ATOM     15  C   UNL     1      12.610   7.220  19.538  0.00  0.00    +0.165 C 
ENDROOT
BRANCH  13   3
ATOM      3  O   UNL     1      14.646   7.261  22.551  0.00  0.00    -0.387 OA
ATOM     35  H   UNL     1      14.400   6.333  22.707  0.00  0.00    +0.210 HD
ENDBRANCH  13   3
BRANCH  14   4
ATOM      4  O   UNL     1      12.434   5.959  21.560  0.00  0.00    -0.387 OA
ATOM     36  H   UNL     1      12.343   5.367  20.794  0.00  0.00    +0.210 HD
ENDBRANCH  14   4
BRANCH  12  16
ATOM     16  C   UNL     1      16.178   7.381  19.741  0.00  0.00    +0.130 C 
BRANCH  16  18
ATOM      5  O   UNL     1      16.929   5.487  18.522  0.00  0.00    -0.276 OA
ATOM      8  N   UNL     1      18.246   6.164  20.312  0.00  0.00    -0.298 N 
ATOM     10  N   UNL     1      20.674   6.007  21.881  0.00  0.00    -0.312 N 
ATOM     11  N   UNL     1      21.782   5.793  23.955  0.00  0.00    -0.240 NA
ATOM     18  C   UNL     1      17.145   6.256  19.460  0.00  0.00    +0.218 C 
ATOM     19  C   UNL     1      19.225   5.099  20.109  0.00  0.00    +0.126 C 
ATOM     20  C   UNL     1      18.507   7.086  21.419  0.00  0.00    +0.126 C 
ATOM     21  C   UNL     1      20.635   5.540  20.492  0.00  0.00    +0.125 C 
ATOM     22  C   UNL     1      19.428   6.488  22.483  0.00  0.00    +0.125 C 
ATOM     23  C   UNL     1      21.856   5.958  22.615  0.00  0.00    +0.121 A 
ATOM     25  C   UNL     1      23.044   6.087  21.913  0.00  0.00    +0.043 A 
ATOM     28  C   UNL     1      24.233   6.041  22.632  0.00  0.00    +0.005 A 
ATOM     29  C   UNL     1      22.959   5.754  24.620  0.00  0.00    +0.113 A 
ATOM     33  C   UNL     1      24.198   5.871  24.012  0.00  0.00    +0.020 A 
ENDBRANCH  16  18
ENDBRANCH  12  16
BRANCH  15  17
ATOM     17  C   UNL     1      12.258   8.567  18.923  0.00  0.00    +0.140 C 
BRANCH  17   9
ATOM      9  N   UNL     1      13.367   9.108  18.194  0.00  0.00    -0.187 NA
ATOM     37  H   UNL     1      13.944   9.803  18.685  0.00  0.00    +0.148 HD
BRANCH   9   1
ATOM      1  S   UNL     1      13.367   9.159  16.471  0.00  0.00    +0.058 S 
ATOM      6  O   UNL     1      12.069   9.622  16.022  0.00  0.00    -0.153 OA
ATOM      7  O   UNL     1      13.930   7.936  15.934  0.00  0.00    -0.153 OA
BRANCH   1  24
ATOM     24  C   UNL     1      14.540  10.445  16.165  0.00  0.00    +0.105 A 
ATOM     26  C   UNL     1      14.814  11.389  17.155  0.00  0.00    +0.029 A 
ATOM     27  C   UNL     1      15.190  10.519  14.933  0.00  0.00    +0.029 A 
ATOM     30  C   UNL     1      15.737  12.407  16.913  0.00  0.00    +0.005 A 
ATOM     31  C   UNL     1      16.114  11.535  14.691  0.00  0.00    +0.005 A 
ATOM     32  C   UNL     1      16.387  12.479  15.680  0.00  0.00    -0.050 A 
ATOM     34  C   UNL     1      17.374  13.567  15.422  0.00  0.00    +0.044 C 
ENDBRANCH   1  24
ENDBRANCH   9   1
ENDBRANCH  17   9
ENDBRANCH  15  17
TORSDOF 8
ENDMDL
MODEL 5
REMARK VINA RESULT:      -7.6     28.364     32.145
REMARK  Name = 25390364
REMARK  9 active torsions:
REMARK  status: ('A' for Active; 'I' for Inactive)
REMARK    1  A    between atoms: S_1  and  N_9
REMARK    2  A    between atoms: S_1  and  C_24
REMARK    3  A    between atoms: O_3  and  C_13
REMARK    4  A    between atoms: O_4  and  C_14
REMARK    5  A    between atoms: N_9  and  C_17
REMARK    6  A    between atoms: C_12  and  C_16
REMARK    7  A    between atoms: C_15  and  C_17
REMARK    8  A    between atoms: C_16  and  C_18
REMARK    9  A    between atoms: C_32  and  C_34
REMARK                            x       y       z     vdW  Elec       q    Type
REMARK                         _______ _______ _______ _____ _____    ______ ____
ROOT
ATOM      2  O   UNL     1      -6.856  -9.761  17.095  0.00  0.00    -0.366 OA
ATOM     12  C   UNL     1      -8.111  -9.792  17.794  0.00  0.00    +0.158 C 
ATOM     13  C   UNL     1      -8.021 -10.972  18.747  0.00  0.00    +0.175 C 
ATOM     14  C   UNL     1      -6.560 -10.931  19.144  0.00  0.00    +0.175 C 
ATOM     15  C   UNL     1      -5.886 -10.538  17.834  0.00  0.00    +0.165 C 
ENDROOT
BRANCH  13   3
ATOM      3  O   UNL     1      -8.902 -10.838  19.842  0.00  0.00    -0.387 OA
ATOM     35  H   UNL     1      -8.763  -9.953  20.221  0.00  0.00    +0.210 HD
ENDBRANCH  13   3
BRANCH  14   4
ATOM      4  O   UNL     1      -6.333  -9.885  20.089  0.00  0.00    -0.387 OA
ATOM     36  H   UNL     1      -5.939  -9.139  19.606  0.00  0.00    +0.210 HD
ENDBRANCH  14   4
BRANCH  12  16
ATOM     16  C   UNL     1      -9.250  -9.909  16.797  0.00  0.00    +0.130 C 
BRANCH  16  18
ATOM      5  O   UNL     1     -10.686  -8.797  18.327  0.00  0.00    -0.276 OA
ATOM      8  N   UNL     1     -10.912  -8.230  16.085  0.00  0.00    -0.298 N 
ATOM     10  N   UNL     1     -12.008  -6.568  13.984  0.00  0.00    -0.312 N 
ATOM     11  N   UNL     1     -13.119  -6.319  11.915  0.00  0.00    -0.240 NA
ATOM     18  C   UNL     1     -10.345  -8.931  17.150  0.00  0.00    +0.218 C 
ATOM     19  C   UNL     1     -11.980  -7.268  16.344  0.00  0.00    +0.126 C 
ATOM     20  C   UNL     1     -10.497  -8.383  14.689  0.00  0.00    +0.126 C 
ATOM     21  C   UNL     1     -11.940  -6.094  15.369  0.00  0.00    +0.125 C 
ATOM     22  C   UNL     1     -11.574  -7.938  13.700  0.00  0.00    +0.125 C 
ATOM     23  C   UNL     1     -12.505  -5.747  12.975  0.00  0.00    +0.121 A 
ATOM     25  C   UNL     1     -12.332  -4.380  13.127  0.00  0.00    +0.043 A 
ATOM     28  C   UNL     1     -12.823  -3.547  12.128  0.00  0.00    +0.005 A 
ATOM     29  C   UNL     1     -13.583  -5.478  10.964  0.00  0.00    +0.113 A 
ATOM     33  C   UNL     1     -13.462  -4.098  11.023  0.00  0.00    +0.020 A 
ENDBRANCH  16  18
ENDBRANCH  12  16
BRANCH  15  17
ATOM     17  C   UNL     1      -5.501 -11.738  16.980  0.00  0.00    +0.140 C 
BRANCH  17   9
ATOM      9  N   UNL     1      -5.084 -11.329  15.672  0.00  0.00    -0.187 NA
ATOM     37  H   UNL     1      -5.810 -11.307  14.945  0.00  0.00    +0.148 HD
BRANCH   9   1
ATOM      1  S   UNL     1      -3.451 -11.522  15.151  0.00  0.00    +0.058 S 
ATOM      6  O   UNL     1      -3.171 -12.938  15.024  0.00  0.00    -0.153 OA
ATOM      7  O   UNL     1      -2.573 -10.672  15.932  0.00  0.00    -0.153 OA
BRANCH   1  24
ATOM     24  C   UNL     1      -3.525 -10.833  13.525  0.00  0.00    +0.105 A 
ATOM     26  C   UNL     1      -4.752 -10.437  12.991  0.00  0.00    +0.029 A 
ATOM     27  C   UNL     1      -2.359 -10.687  12.775  0.00  0.00    +0.029 A 
ATOM     30  C   UNL     1      -4.812  -9.896  11.707  0.00  0.00    +0.005 A 
ATOM     31  C   UNL     1      -2.418 -10.145  11.491  0.00  0.00    +0.005 A 
ATOM     32  C   UNL     1      -3.644  -9.750  10.957  0.00  0.00    -0.050 A 
ATOM     34  C   UNL     1      -3.707  -9.172   9.584  0.00  0.00    +0.044 C 
ENDBRANCH   1  24
ENDBRANCH   9   1
ENDBRANCH  17   9
ENDBRANCH  15  17
TORSDOF 8
ENDMDL
MODEL 6
REMARK VINA RESULT:      -7.5     28.196     32.827
REMARK  Name = 25390364
REMARK  9 active torsions:
REMARK  status: ('A' for Active; 'I' for Inactive)
REMARK    1  A    between atoms: S_1  and  N_9
REMARK    2  A    between atoms: S_1  and  C_24
REMARK    3  A    between atoms: O_3  and  C_13
REMARK    4  A    between atoms: O_4  and  C_14
REMARK    5  A    between atoms: N_9  and  C_17
REMARK    6  A    between atoms: C_12  and  C_16
REMARK    7  A    between atoms: C_15  and  C_17
REMARK    8  A    between atoms: C_16  and  C_18
REMARK    9  A    between atoms: C_32  and  C_34
REMARK                            x       y       z     vdW  Elec       q    Type
REMARK                         _______ _______ _______ _____ _____    ______ ____
ROOT
ATOM      2  O   UNL     1      -6.611 -11.792  17.181  0.00  0.00    -0.366 OA
ATOM     12  C   UNL     1      -7.670 -11.086  17.850  0.00  0.00    +0.158 C 
ATOM     13  C   UNL     1      -7.295  -9.615  17.770  0.00  0.00    +0.175 C 
ATOM     14  C   UNL     1      -6.635  -9.542  16.409  0.00  0.00    +0.175 C 
ATOM     15  C   UNL     1      -5.873 -10.862  16.355  0.00  0.00    +0.165 C 
ENDROOT
BRANCH  13   3
ATOM      3  O   UNL     1      -8.423  -8.774  17.891  0.00  0.00    -0.387 OA
ATOM     35  H   UNL     1      -9.149  -9.311  18.250  0.00  0.00    +0.210 HD
ENDBRANCH  13   3
BRANCH  14   4
ATOM      4  O   UNL     1      -7.622  -9.560  15.379  0.00  0.00    -0.387 OA
ATOM     36  H   UNL     1      -7.193  -9.889  14.571  0.00  0.00    +0.210 HD
ENDBRANCH  14   4
BRANCH  12  16
ATOM     16  C   UNL     1      -7.806 -11.596  19.273  0.00  0.00    +0.130 C 
BRANCH  16  18
ATOM      5  O   UNL     1      -8.555 -13.831  18.980  0.00  0.00    -0.276 OA
ATOM      8  N   UNL     1     -10.112 -12.307  19.786  0.00  0.00    -0.298 N 
ATOM     10  N   UNL     1     -12.702 -11.680  20.917  0.00  0.00    -0.312 N 
ATOM     11  N   UNL     1     -14.706 -10.432  20.923  0.00  0.00    -0.240 NA
ATOM     18  C   UNL     1      -8.849 -12.686  19.330  0.00  0.00    +0.218 C 
ATOM     19  C   UNL     1     -11.178 -13.302  19.866  0.00  0.00    +0.126 C 
ATOM     20  C   UNL     1     -10.457 -10.948  20.213  0.00  0.00    +0.126 C 
ATOM     21  C   UNL     1     -12.132 -13.027  21.025  0.00  0.00    +0.125 C 
ATOM     22  C   UNL     1     -11.959 -10.674  20.155  0.00  0.00    +0.125 C 
ATOM     23  C   UNL     1     -13.933 -11.381  21.496  0.00  0.00    +0.121 A 
ATOM     25  C   UNL     1     -14.286 -12.086  22.636  0.00  0.00    +0.043 A 
ATOM     28  C   UNL     1     -15.512 -11.799  23.225  0.00  0.00    +0.005 A 
ATOM     29  C   UNL     1     -15.891 -10.179  21.524  0.00  0.00    +0.113 A 
ATOM     33  C   UNL     1     -16.336 -10.829  22.665  0.00  0.00    +0.020 A 
ENDBRANCH  16  18
ENDBRANCH  12  16
BRANCH  15  17
ATOM     17  C   UNL     1      -4.462 -10.758  16.918  0.00  0.00    +0.140 C 
BRANCH  17   9
ATOM      9  N   UNL     1      -3.553 -10.234  15.941  0.00  0.00    -0.187 NA
ATOM     37  H   UNL     1      -3.763  -9.297  15.575  0.00  0.00    +0.148 HD
BRANCH   9   1
ATOM      1  S   UNL     1      -2.611 -11.279  14.945  0.00  0.00    +0.058 S 
ATOM      6  O   UNL     1      -3.160 -12.618  15.029  0.00  0.00    -0.153 OA
ATOM      7  O   UNL     1      -1.197 -11.054  15.179  0.00  0.00    -0.153 OA
BRANCH   1  24
ATOM     24  C   UNL     1      -2.975 -10.641  13.337  0.00  0.00    +0.105 A 
ATOM     26  C   UNL     1      -1.941 -10.393  12.434  0.00  0.00    +0.029 A 
ATOM     27  C   UNL     1      -4.296 -10.383  12.972  0.00  0.00    +0.029 A 
ATOM     30  C   UNL     1      -2.227  -9.887  11.166  0.00  0.00    +0.005 A 
ATOM     31  C   UNL     1      -4.583  -9.878  11.704  0.00  0.00    +0.005 A 
ATOM     32  C   UNL     1      -3.550  -9.629  10.802  0.00  0.00    -0.050 A 
ATOM     34  C   UNL     1      -3.856  -9.088   9.446  0.00  0.00    +0.044 C 
ENDBRANCH   1  24
ENDBRANCH   9   1
ENDBRANCH  17   9
ENDBRANCH  15  17
TORSDOF 8
ENDMDL
MODEL 7
REMARK VINA RESULT:      -7.5     27.744     32.477
REMARK  Name = 25390364
REMARK  9 active torsions:
REMARK  status: ('A' for Active; 'I' for Inactive)
REMARK    1  A    between atoms: S_1  and  N_9
REMARK    2  A    between atoms: S_1  and  C_24
REMARK    3  A    between atoms: O_3  and  C_13
REMARK    4  A    between atoms: O_4  and  C_14
REMARK    5  A    between atoms: N_9  and  C_17
REMARK    6  A    between atoms: C_12  and  C_16
REMARK    7  A    between atoms: C_15  and  C_17
REMARK    8  A    between atoms: C_16  and  C_18
REMARK    9  A    between atoms: C_32  and  C_34
REMARK                            x       y       z     vdW  Elec       q    Type
REMARK                         _______ _______ _______ _____ _____    ______ ____
ROOT
ATOM      2  O   UNL     1      -5.179 -10.842  18.675  0.00  0.00    -0.366 OA
ATOM     12  C   UNL     1      -6.296 -11.741  18.784  0.00  0.00    +0.158 C 
ATOM     13  C   UNL     1      -6.162 -12.705  17.616  0.00  0.00    +0.175 C 
ATOM     14  C   UNL     1      -4.658 -12.852  17.515  0.00  0.00    +0.175 C 
ATOM     15  C   UNL     1      -4.179 -11.436  17.816  0.00  0.00    +0.165 C 
ENDROOT
BRANCH  13   3
ATOM      3  O   UNL     1      -6.829 -13.925  17.858  0.00  0.00    -0.387 OA
ATOM     35  H   UNL     1      -6.836 -14.424  17.023  0.00  0.00    +0.210 HD
ENDBRANCH  13   3
BRANCH  14   4
ATOM      4  O   UNL     1      -4.174 -13.711  18.548  0.00  0.00    -0.387 OA
ATOM     36  H   UNL     1      -4.557 -13.400  19.386  0.00  0.00    +0.210 HD
ENDBRANCH  14   4
BRANCH  12  16
ATOM     16  C   UNL     1      -7.593 -10.951  18.767  0.00  0.00    +0.130 C 
BRANCH  16  18
ATOM      5  O   UNL     1      -8.375 -12.736  20.125  0.00  0.00    -0.276 OA
ATOM      8  N   UNL     1      -9.964 -11.202  19.402  0.00  0.00    -0.298 N 
ATOM     10  N   UNL     1     -12.643 -10.106  19.451  0.00  0.00    -0.312 N 
ATOM     11  N   UNL     1     -14.594  -9.370  18.343  0.00  0.00    -0.240 NA
ATOM     18  C   UNL     1      -8.670 -11.717  19.497  0.00  0.00    +0.218 C 
ATOM     19  C   UNL     1     -11.063 -11.887  20.077  0.00  0.00    +0.126 C 
ATOM     20  C   UNL     1     -10.310  -9.984  18.665  0.00  0.00    +0.126 C 
ATOM     21  C   UNL     1     -12.131 -10.913  20.563  0.00  0.00    +0.125 C 
ATOM     22  C   UNL     1     -11.787  -9.930  18.275  0.00  0.00    +0.125 C 
ATOM     23  C   UNL     1     -13.921  -9.555  19.501  0.00  0.00    +0.121 A 
ATOM     25  C   UNL     1     -14.421  -9.227  20.751  0.00  0.00    +0.043 A 
ATOM     28  C   UNL     1     -15.696  -8.676  20.817  0.00  0.00    +0.005 A 
ATOM     29  C   UNL     1     -15.829  -8.831  18.447  0.00  0.00    +0.113 A 
ATOM     33  C   UNL     1     -16.420  -8.471  19.648  0.00  0.00    +0.020 A 
ENDBRANCH  16  18
ENDBRANCH  12  16
BRANCH  15  17
ATOM     17  C   UNL     1      -4.063 -10.570  16.568  0.00  0.00    +0.140 C 
BRANCH  17   9
ATOM      9  N   UNL     1      -3.729 -11.359  15.420  0.00  0.00    -0.187 NA
ATOM     37  H   UNL     1      -4.189 -12.275  15.343  0.00  0.00    +0.148 HD
BRANCH   9   1
ATOM      1  S   UNL     1      -2.223 -11.161  14.605  0.00  0.00    +0.058 S 
ATOM      6  O   UNL     1      -1.647 -12.471  14.373  0.00  0.00    -0.153 OA
ATOM      7  O   UNL     1      -1.439 -10.123  15.246  0.00  0.00    -0.153 OA
BRANCH   1  24
ATOM     24  C   UNL     1      -2.757 -10.518  13.048  0.00  0.00    +0.105 A 
ATOM     26  C   UNL     1      -4.119 -10.387  12.778  0.00  0.00    +0.029 A 
ATOM     27  C   UNL     1      -1.817 -10.144  12.088  0.00  0.00    +0.029 A 
ATOM     30  C   UNL     1      -4.542  -9.882  11.548  0.00  0.00    +0.005 A 
ATOM     31  C   UNL     1      -2.239  -9.638  10.858  0.00  0.00    +0.005 A 
ATOM     32  C   UNL     1      -3.600  -9.508  10.588  0.00  0.00    -0.050 A 
ATOM     34  C   UNL     1      -4.052  -8.968   9.273  0.00  0.00    +0.044 C 
ENDBRANCH   1  24
ENDBRANCH   9   1
ENDBRANCH  17   9
ENDBRANCH  15  17
TORSDOF 8
ENDMDL
MODEL 8
REMARK VINA RESULT:      -7.5     28.112     31.435
REMARK  Name = 25390364
REMARK  9 active torsions:
REMARK  status: ('A' for Active; 'I' for Inactive)
REMARK    1  A    between atoms: S_1  and  N_9
REMARK    2  A    between atoms: S_1  and  C_24
REMARK    3  A    between atoms: O_3  and  C_13
REMARK    4  A    between atoms: O_4  and  C_14
REMARK    5  A    between atoms: N_9  and  C_17
REMARK    6  A    between atoms: C_12  and  C_16
REMARK    7  A    between atoms: C_15  and  C_17
REMARK    8  A    between atoms: C_16  and  C_18
REMARK    9  A    between atoms: C_32  and  C_34
REMARK                            x       y       z     vdW  Elec       q    Type
REMARK                         _______ _______ _______ _____ _____    ______ ____
ROOT
ATOM      2  O   UNL     1      -5.754 -10.825  18.246  0.00  0.00    -0.366 OA
ATOM     12  C   UNL     1      -5.877 -12.215  18.592  0.00  0.00    +0.158 C 
ATOM     13  C   UNL     1      -4.749 -12.921  17.858  0.00  0.00    +0.175 C 
ATOM     14  C   UNL     1      -3.649 -11.882  17.919  0.00  0.00    +0.175 C 
ATOM     15  C   UNL     1      -4.426 -10.585  17.726  0.00  0.00    +0.165 C 
ENDROOT
BRANCH  13   3
ATOM      3  O   UNL     1      -4.399 -14.143  18.474  0.00  0.00    -0.387 OA
ATOM     35  H   UNL     1      -3.476 -14.067  18.768  0.00  0.00    +0.210 HD
ENDBRANCH  13   3
BRANCH  14   4
ATOM      4  O   UNL     1      -3.063 -11.856  19.220  0.00  0.00    -0.387 OA
ATOM     36  H   UNL     1      -2.907 -10.924  19.450  0.00  0.00    +0.210 HD
ENDBRANCH  14   4
BRANCH  12  16
ATOM     16  C   UNL     1      -7.255 -12.719  18.206  0.00  0.00    +0.130 C 
BRANCH  16  18
ATOM      5  O   UNL     1      -8.507 -11.932  20.064  0.00  0.00    -0.276 OA
ATOM      8  N   UNL     1      -9.028 -11.017  17.992  0.00  0.00    -0.298 N 
ATOM     10  N   UNL     1     -10.418  -9.082  16.348  0.00  0.00    -0.312 N 
ATOM     11  N   UNL     1     -11.789  -8.546  14.502  0.00  0.00    -0.240 NA
ATOM     18  C   UNL     1      -8.316 -11.858  18.848  0.00  0.00    +0.218 C 
ATOM     19  C   UNL     1     -10.075 -10.156  18.537  0.00  0.00    +0.126 C 
ATOM     20  C   UNL     1      -8.792 -10.923  16.550  0.00  0.00    +0.126 C 
ATOM     21  C   UNL     1     -10.184  -8.838  17.774  0.00  0.00    +0.125 C 
ATOM     22  C   UNL     1      -9.996 -10.369  15.789  0.00  0.00    +0.125 C 
ATOM     23  C   UNL     1     -11.057  -8.129  15.559  0.00  0.00    +0.121 A 
ATOM     25  C   UNL     1     -10.894  -6.799  15.915  0.00  0.00    +0.043 A 
ATOM     28  C   UNL     1     -11.526  -5.836  15.136  0.00  0.00    +0.005 A 
ATOM     29  C   UNL     1     -12.388  -7.581  13.769  0.00  0.00    +0.113 A 
ATOM     33  C   UNL     1     -12.289  -6.226  14.041  0.00  0.00    +0.020 A 
ENDBRANCH  16  18
ENDBRANCH  12  16
BRANCH  15  17
ATOM     17  C   UNL     1      -4.564 -10.186  16.262  0.00  0.00    +0.140 C 
BRANCH  17   9
ATOM      9  N   UNL     1      -3.302 -10.254  15.587  0.00  0.00    -0.187 NA
ATOM     37  H   UNL     1      -2.794  -9.367  15.474  0.00  0.00    +0.148 HD
BRANCH   9   1
ATOM      1  S   UNL     1      -2.957 -11.510  14.458  0.00  0.00    +0.058 S 
ATOM      6  O   UNL     1      -3.933 -12.568  14.632  0.00  0.00    -0.153 OA
ATOM      7  O   UNL     1      -1.540 -11.817  14.468  0.00  0.00    -0.153 OA
BRANCH   1  24
ATOM     24  C   UNL     1      -3.300 -10.700  12.926  0.00  0.00    +0.105 A 
ATOM     26  C   UNL     1      -2.252 -10.339  12.078  0.00  0.00    +0.029 A 
ATOM     27  C   UNL     1      -4.617 -10.417  12.565  0.00  0.00    +0.029 A 
ATOM     30  C   UNL     1      -2.521  -9.697  10.869  0.00  0.00    +0.005 A 
ATOM     31  C   UNL     1      -4.887  -9.775  11.356  0.00  0.00    +0.005 A 
ATOM     32  C   UNL     1      -3.839  -9.415  10.509  0.00  0.00    -0.050 A 
ATOM     34  C   UNL     1      -4.127  -8.728   9.217  0.00  0.00    +0.044 C 
ENDBRANCH   1  24
ENDBRANCH   9   1
ENDBRANCH  17   9
ENDBRANCH  15  17
TORSDOF 8
ENDMDL
MODEL 9
REMARK VINA RESULT:      -7.3     27.089     30.943
REMARK  Name = 25390364
REMARK  9 active torsions:
REMARK  status: ('A' for Active; 'I' for Inactive)
REMARK    1  A    between atoms: S_1  and  N_9
REMARK    2  A    between atoms: S_1  and  C_24
REMARK    3  A    between atoms: O_3  and  C_13
REMARK    4  A    between atoms: O_4  and  C_14
REMARK    5  A    between atoms: N_9  and  C_17
REMARK    6  A    between atoms: C_12  and  C_16
REMARK    7  A    between atoms: C_15  and  C_17
REMARK    8  A    between atoms: C_16  and  C_18
REMARK    9  A    between atoms: C_32  and  C_34
REMARK                            x       y       z     vdW  Elec       q    Type
REMARK                         _______ _______ _______ _____ _____    ______ ____
ROOT
ATOM      2  O   UNL     1      -3.683 -10.528  14.083  0.00  0.00    -0.366 OA
ATOM     12  C   UNL     1      -3.501 -10.819  15.479  0.00  0.00    +0.158 C 
ATOM     13  C   UNL     1      -2.064 -11.294  15.616  0.00  0.00    +0.175 C 
ATOM     14  C   UNL     1      -1.360 -10.433  14.588  0.00  0.00    +0.175 C 
ATOM     15  C   UNL     1      -2.385 -10.383  13.460  0.00  0.00    +0.165 C 
ENDROOT
BRANCH  13   3
ATOM      3  O   UNL     1      -1.570 -11.117  16.927  0.00  0.00    -0.387 OA
ATOM     35  H   UNL     1      -1.459 -12.000  17.318  0.00  0.00    +0.210 HD
ENDBRANCH  13   3
BRANCH  14   4
ATOM      4  O   UNL     1      -1.187  -9.107  15.087  0.00  0.00    -0.387 OA
ATOM     36  H   UNL     1      -0.369  -9.099  15.613  0.00  0.00    +0.210 HD
ENDBRANCH  14   4
BRANCH  12  16
ATOM     16  C   UNL     1      -4.522 -11.851  15.924  0.00  0.00    +0.130 C 
BRANCH  16  18
ATOM      5  O   UNL     1      -4.841 -11.432  18.240  0.00  0.00    -0.276 OA
ATOM      8  N   UNL     1      -6.537 -10.739  16.811  0.00  0.00    -0.298 N 
ATOM     10  N   UNL     1      -9.005  -9.314  16.302  0.00  0.00    -0.312 N 
ATOM     11  N   UNL     1     -11.196  -9.225  15.426  0.00  0.00    -0.240 NA
ATOM     18  C   UNL     1      -5.305 -11.325  17.102  0.00  0.00    +0.218 C 
ATOM     19  C   UNL     1      -7.358 -10.209  17.897  0.00  0.00    +0.126 C 
ATOM     20  C   UNL     1      -7.081 -10.602  15.458  0.00  0.00    +0.126 C 
ATOM     21  C   UNL     1      -8.167  -8.991  17.461  0.00  0.00    +0.125 C 
ATOM     22  C   UNL     1      -8.600 -10.431  15.445  0.00  0.00    +0.125 C 
ATOM     23  C   UNL     1     -10.173  -8.598  16.048  0.00  0.00    +0.121 A 
ATOM     25  C   UNL     1     -10.205  -7.274  16.454  0.00  0.00    +0.043 A 
ATOM     28  C   UNL     1     -11.364  -6.546  16.206  0.00  0.00    +0.005 A 
ATOM     29  C   UNL     1     -12.305  -8.486  15.202  0.00  0.00    +0.113 A 
ATOM     33  C   UNL     1     -12.439  -7.156  15.569  0.00  0.00    +0.020 A 
ENDBRANCH  16  18
ENDBRANCH  12  16
BRANCH  15  17
ATOM     17  C   UNL     1      -2.221 -11.515  12.456  0.00  0.00    +0.140 C 
BRANCH  17   9
ATOM      9  N   UNL     1      -2.827 -11.185  11.200  0.00  0.00    -0.187 NA
ATOM     37  H   UNL     1      -2.683 -10.226  10.860  0.00  0.00    +0.148 HD
BRANCH   9   1
ATOM      1  S   UNL     1      -4.220 -12.025  10.630  0.00  0.00    +0.058 S 
ATOM      6  O   UNL     1      -4.910 -12.601  11.767  0.00  0.00    -0.153 OA
ATOM      7  O   UNL     1      -3.873 -12.854   9.491  0.00  0.00    -0.153 OA
BRANCH   1  24
ATOM     24  C   UNL     1      -5.200 -10.689  10.016  0.00  0.00    +0.105 A 
ATOM     26  C   UNL     1      -4.769  -9.373  10.185  0.00  0.00    +0.029 A 
ATOM     27  C   UNL     1      -6.406 -10.949   9.366  0.00  0.00    +0.029 A 
ATOM     30  C   UNL     1      -5.543  -8.317   9.704  0.00  0.00    +0.005 A 
ATOM     31  C   UNL     1      -7.181  -9.894   8.883  0.00  0.00    +0.005 A 
ATOM     32  C   UNL     1      -6.750  -8.579   9.053  0.00  0.00    -0.050 A 
ATOM     34  C   UNL     1      -7.578  -7.450   8.538  0.00  0.00    +0.044 C 
ENDBRANCH   1  24
ENDBRANCH   9   1
ENDBRANCH  17   9
ENDBRANCH  15  17
TORSDOF 8
ENDMDL
MODEL 10
REMARK VINA RESULT:      -7.2     30.377     34.099
REMARK  Name = 25390364
REMARK  9 active torsions:
REMARK  status: ('A' for Active; 'I' for Inactive)
REMARK    1  A    between atoms: S_1  and  N_9
REMARK    2  A    between atoms: S_1  and  C_24
REMARK    3  A    between atoms: O_3  and  C_13
REMARK    4  A    between atoms: O_4  and  C_14
REMARK    5  A    between atoms: N_9  and  C_17
REMARK    6  A    between atoms: C_12  and  C_16
REMARK    7  A    between atoms: C_15  and  C_17
REMARK    8  A    between atoms: C_16  and  C_18
REMARK    9  A    between atoms: C_32  and  C_34
REMARK                            x       y       z     vdW  Elec       q    Type
REMARK                         _______ _______ _______ _____ _____    ______ ____
ROOT
ATOM      2  O   UNL     1     -18.440   3.539  25.394  0.00  0.00    -0.366 OA
ATOM     12  C   UNL     1     -17.873   3.472  24.074  0.00  0.00    +0.158 C 
ATOM     13  C   UNL     1     -16.368   3.413  24.277  0.00  0.00    +0.175 C 
ATOM     14  C   UNL     1     -16.264   2.591  25.544  0.00  0.00    +0.175 C 
ATOM     15  C   UNL     1     -17.450   3.103  26.354  0.00  0.00    +0.165 C 
ENDROOT
BRANCH  13   3
ATOM      3  O   UNL     1     -15.707   2.828  23.174  0.00  0.00    -0.387 OA
ATOM     35  H   UNL     1     -14.755   2.836  23.368  0.00  0.00    +0.210 HD
ENDBRANCH  13   3
BRANCH  14   4
ATOM      4  O   UNL     1     -16.487   1.210  25.258  0.00  0.00    -0.387 OA
ATOM     36  H   UNL     1     -15.907   0.694  25.844  0.00  0.00    +0.210 HD
ENDBRANCH  14   4
BRANCH  12  16
ATOM     16  C   UNL     1     -18.324   4.672  23.261  0.00  0.00    +0.130 C 
BRANCH  16  18
ATOM      5  O   UNL     1     -17.671   6.447  24.696  0.00  0.00    -0.276 OA
ATOM      8  N   UNL     1     -16.544   6.275  22.671  0.00  0.00    -0.298 N 
ATOM     10  N   UNL     1     -14.411   7.057  20.878  0.00  0.00    -0.312 N 
ATOM     11  N   UNL     1     -13.650   7.765  18.757  0.00  0.00    -0.240 NA
ATOM     18  C   UNL     1     -17.489   5.878  23.618  0.00  0.00    +0.218 C 
ATOM     19  C   UNL     1     -15.700   7.436  22.941  0.00  0.00    +0.126 C 
ATOM     20  C   UNL     1     -16.322   5.590  21.396  0.00  0.00    +0.126 C 
ATOM     21  C   UNL     1     -14.313   7.289  22.322  0.00  0.00    +0.125 C 
ATOM     22  C   UNL     1     -15.653   6.485  20.353  0.00  0.00    +0.125 C 
ATOM     23  C   UNL     1     -13.364   7.406  20.029  0.00  0.00    +0.121 A 
ATOM     25  C   UNL     1     -12.081   7.359  20.552  0.00  0.00    +0.043 A 
ATOM     28  C   UNL     1     -11.025   7.703  19.716  0.00  0.00    +0.005 A 
ATOM     29  C   UNL     1     -12.598   8.093  17.975  0.00  0.00    +0.113 A 
ATOM     33  C   UNL     1     -11.279   8.079  18.401  0.00  0.00    +0.020 A 
ENDBRANCH  16  18
ENDBRANCH  12  16
BRANCH  15  17
ATOM     17  C   UNL     1     -17.099   4.294  27.235  0.00  0.00    +0.140 C 
BRANCH  17   9
ATOM      9  N   UNL     1     -17.800   4.239  28.483  0.00  0.00    -0.187 NA
ATOM     37  H   UNL     1     -18.789   4.517  28.466  0.00  0.00    +0.148 HD
BRANCH   9   1
ATOM      1  S   UNL     1     -16.966   4.379  29.985  0.00  0.00    +0.058 S 
ATOM      6  O   UNL     1     -17.923   4.216  31.062  0.00  0.00    -0.153 OA
ATOM      7  O   UNL     1     -16.082   5.528  29.962  0.00  0.00    -0.153 OA
BRANCH   1  24
ATOM     24  C   UNL     1     -15.942   2.939  29.945  0.00  0.00    +0.105 A 
ATOM     26  C   UNL     1     -14.584   3.040  30.248  0.00  0.00    +0.029 A 
ATOM     27  C   UNL     1     -16.490   1.701  29.607  0.00  0.00    +0.029 A 
ATOM     30  C   UNL     1     -13.774   1.905  30.214  0.00  0.00    +0.005 A 
ATOM     31  C   UNL     1     -15.680   0.566  29.573  0.00  0.00    +0.005 A 
ATOM     32  C   UNL     1     -14.323   0.668  29.875  0.00  0.00    -0.050 A 
ATOM     34  C   UNL     1     -13.457  -0.546  29.838  0.00  0.00    +0.044 C 
ENDBRANCH   1  24
ENDBRANCH   9   1
ENDBRANCH  17   9
ENDBRANCH  15  17
TORSDOF 8
ENDMDL
