MODEL 1
REMARK VINA RESULT:      -7.3      0.000      0.000
REMARK  Name = 45784427
REMARK  11 active torsions:
REMARK  status: ('A' for Active; 'I' for Inactive)
REMARK    1  A    between atoms: O_3  and  C_12
REMARK    2  A    between atoms: N_6  and  C_16
REMARK    3  A    between atoms: N_7  and  C_25
REMARK    4  A    between atoms: N_8  and  C_26
REMARK    5  A    between atoms: C_9  and  C_19
REMARK    6  A    between atoms: C_11  and  C_21
REMARK    7  A    between atoms: C_15  and  C_20
REMARK    8  A    between atoms: C_20  and  C_22
REMARK    9  A    between atoms: C_20  and  C_23
REMARK   10  A    between atoms: C_25  and  C_27
REMARK   11  A    between atoms: C_26  and  C_28
REMARK                            x       y       z     vdW  Elec       q    Type
REMARK                         _______ _______ _______ _____ _____    ______ ____
ROOT
ATOM      9  C   UNL     1      -3.497 -10.464  11.192  0.00  0.00    -0.027 C 
ATOM     10  C   UNL     1      -4.859 -10.212  11.919  0.00  0.00    +0.028 C 
ATOM     11  C   UNL     1      -4.948 -11.048  13.246  0.00  0.00    +0.012 C 
ATOM     12  C   UNL     1      -6.059 -10.378  10.942  0.00  0.00    +0.122 C 
ATOM     13  C   UNL     1      -3.395  -9.543   9.953  0.00  0.00    +0.007 C 
ATOM     14  C   UNL     1      -2.339 -10.096  12.148  0.00  0.00    +0.009 C 
ATOM     15  C   UNL     1      -5.901  -9.533   9.656  0.00  0.00    +0.029 C 
ATOM     16  C   UNL     1      -3.738 -10.726  14.167  0.00  0.00    +0.078 C 
ATOM     17  C   UNL     1      -4.546  -9.732   8.976  0.00  0.00    +0.007 C 
ATOM     18  C   UNL     1      -2.388 -10.858  13.466  0.00  0.00    +0.023 C 
ATOM     19  C   UNL     1      -3.332 -11.935  10.733  0.00  0.00    +0.011 C 
ATOM     21  C   UNL     1      -6.253 -10.825  14.028  0.00  0.00    +0.010 C 
ENDROOT
BRANCH  16   6
ATOM      5  O   UNL     1      -4.189  -9.895  16.894  0.00  0.00    -0.253 OA
ATOM      6  N   UNL     1      -3.726 -11.563  15.348  0.00  0.00    -0.296 N 
ATOM      8  N   UNL     1      -3.884 -12.091  17.577  0.00  0.00    -0.300 N 
ATOM     24  C   UNL     1      -3.955 -11.072  16.629  0.00  0.00    +0.300 C 
ATOM     34  H   UNL     1      -3.460 -12.539  15.245  0.00  0.00    +0.151 HD
ATOM     37  H   UNL     1      -3.698 -13.039  17.263  0.00  0.00    +0.150 HD
BRANCH   8  26
ATOM     26  C   UNL     1      -4.082 -11.861  18.988  0.00  0.00    +0.102 C 
ATOM     28  C   UNL     1      -5.554 -11.798  19.339  0.00  0.00    +0.024 C 
ENDBRANCH   8  26
ENDBRANCH  16   6
BRANCH  12   3
ATOM      3  O   UNL     1      -7.257  -9.933  11.579  0.00  0.00    -0.391 OA
ATOM     35  H   UNL     1      -8.012 -10.221  11.037  0.00  0.00    +0.210 HD
ENDBRANCH  12   3
BRANCH  15  20
ATOM     20  C   UNL     1      -7.025  -9.811   8.651  0.00  0.00    +0.077 C 
ATOM     22  C   UNL     1      -6.662 -11.002   7.773  0.00  0.00    +0.017 C 
BRANCH  20  23
ATOM      4  O   UNL     1      -7.208  -8.555   6.588  0.00  0.00    -0.276 OA
ATOM      7  N   UNL     1      -7.640  -7.467   8.591  0.00  0.00    -0.311 N 
ATOM     23  C   UNL     1      -7.295  -8.563   7.815  0.00  0.00    +0.216 C 
ATOM     36  H   UNL     1      -7.741  -7.569   9.596  0.00  0.00    +0.149 HD
BRANCH   7  25
ATOM     25  C   UNL     1      -7.938  -6.172   8.025  0.00  0.00    +0.139 C 
BRANCH  25  27
ATOM      1  F   UNL     1     -11.082  -2.797   9.609  0.00  0.00    -0.205 F 
ATOM      2  F   UNL     1     -12.735  -7.020   8.247  0.00  0.00    -0.205 F 
ATOM     27  C   UNL     1      -9.336  -5.727   8.344  0.00  0.00    -0.025 A 
ATOM     29  C   UNL     1     -10.408  -6.598   8.144  0.00  0.00    +0.043 A 
ATOM     30  C   UNL     1      -9.564  -4.442   8.839  0.00  0.00    +0.043 A 
ATOM     31  C   UNL     1     -10.863  -4.030   9.133  0.00  0.00    +0.126 A 
ATOM     32  C   UNL     1     -11.706  -6.185   8.440  0.00  0.00    +0.126 A 
ATOM     33  C   UNL     1     -11.935  -4.901   8.935  0.00  0.00    +0.076 A 
ENDBRANCH  25  27
ENDBRANCH   7  25
ENDBRANCH  20  23
ENDBRANCH  15  20
TORSDOF 7
ENDMDL
MODEL 2
REMARK VINA RESULT:      -7.3     28.374     31.052
REMARK  Name = 45784427
REMARK  11 active torsions:
REMARK  status: ('A' for Active; 'I' for Inactive)
REMARK    1  A    between atoms: O_3  and  C_12
REMARK    2  A    between atoms: N_6  and  C_16
REMARK    3  A    between atoms: N_7  and  C_25
REMARK    4  A    between atoms: N_8  and  C_26
REMARK    5  A    between atoms: C_9  and  C_19
REMARK    6  A    between atoms: C_11  and  C_21
REMARK    7  A    between atoms: C_15  and  C_20
REMARK    8  A    between atoms: C_20  and  C_22
REMARK    9  A    between atoms: C_20  and  C_23
REMARK   10  A    between atoms: C_25  and  C_27
REMARK   11  A    between atoms: C_26  and  C_28
REMARK                            x       y       z     vdW  Elec       q    Type
REMARK                         _______ _______ _______ _____ _____    ______ ____
ROOT
ATOM      9  C   UNL     1      11.620   8.107  21.119  0.00  0.00    -0.027 C 
ATOM     10  C   UNL     1      12.854   8.962  21.558  0.00  0.00    +0.028 C 
ATOM     11  C   UNL     1      12.407  10.402  22.001  0.00  0.00    +0.012 C 
ATOM     12  C   UNL     1      13.984   8.912  20.489  0.00  0.00    +0.122 C 
ATOM     13  C   UNL     1      12.080   6.664  20.798  0.00  0.00    +0.007 C 
ATOM     14  C   UNL     1      10.615   8.030  22.292  0.00  0.00    +0.009 C 
ATOM     15  C   UNL     1      14.368   7.467  20.097  0.00  0.00    +0.029 C 
ATOM     16  C   UNL     1      11.341  10.311  23.130  0.00  0.00    +0.078 C 
ATOM     17  C   UNL     1      13.157   6.609  19.725  0.00  0.00    +0.007 C 
ATOM     18  C   UNL     1      10.165   9.399  22.783  0.00  0.00    +0.023 C 
ATOM     19  C   UNL     1      10.906   8.690  19.873  0.00  0.00    +0.011 C 
ATOM     21  C   UNL     1      13.570  11.289  22.474  0.00  0.00    +0.010 C 
ENDROOT
BRANCH  16   6
ATOM      5  O   UNL     1      11.659  11.688  25.645  0.00  0.00    -0.253 OA
ATOM      6  N   UNL     1      10.822  11.616  23.482  0.00  0.00    -0.296 N 
ATOM      8  N   UNL     1      10.419  13.455  24.795  0.00  0.00    -0.300 N 
ATOM     24  C   UNL     1      11.026  12.203  24.726  0.00  0.00    +0.300 C 
ATOM     34  H   UNL     1      10.215  12.089  22.818  0.00  0.00    +0.151 HD
ATOM     37  H   UNL     1       9.927  13.806  23.980  0.00  0.00    +0.150 HD
BRANCH   8  26
ATOM     26  C   UNL     1      10.473  14.286  25.975  0.00  0.00    +0.102 C 
ATOM     28  C   UNL     1      11.649  15.239  25.928  0.00  0.00    +0.024 C 
ENDBRANCH   8  26
ENDBRANCH  16   6
BRANCH  12   3
ATOM      3  O   UNL     1      15.165   9.519  21.016  0.00  0.00    -0.391 OA
ATOM     35  H   UNL     1      15.843   8.829  21.112  0.00  0.00    +0.210 HD
ENDBRANCH  12   3
BRANCH  15  20
ATOM     20  C   UNL     1      15.387   7.440  18.951  0.00  0.00    +0.077 C 
ATOM     22  C   UNL     1      14.718   6.970  17.664  0.00  0.00    +0.017 C 
BRANCH  20  23
ATOM      4  O   UNL     1      16.887   5.560  18.663  0.00  0.00    -0.276 OA
ATOM      7  N   UNL     1      17.212   6.971  20.476  0.00  0.00    -0.311 N 
ATOM     23  C   UNL     1      16.565   6.546  19.325  0.00  0.00    +0.216 C 
ATOM     36  H   UNL     1      16.916   7.826  20.936  0.00  0.00    +0.149 HD
BRANCH   7  25
ATOM     25  C   UNL     1      18.356   6.284  21.029  0.00  0.00    +0.139 C 
BRANCH  25  27
ATOM      1  F   UNL     1      23.014   7.316  20.019  0.00  0.00    -0.205 F 
ATOM      2  F   UNL     1      20.501  10.356  22.641  0.00  0.00    -0.205 F 
ATOM     27  C   UNL     1      19.554   7.182  21.136  0.00  0.00    -0.025 A 
ATOM     29  C   UNL     1      19.469   8.375  21.854  0.00  0.00    +0.043 A 
ATOM     30  C   UNL     1      20.751   6.824  20.516  0.00  0.00    +0.043 A 
ATOM     31  C   UNL     1      21.863   7.660  20.614  0.00  0.00    +0.126 A 
ATOM     32  C   UNL     1      20.582   9.210  21.953  0.00  0.00    +0.126 A 
ATOM     33  C   UNL     1      21.780   8.853  21.333  0.00  0.00    +0.076 A 
ENDBRANCH  25  27
ENDBRANCH   7  25
ENDBRANCH  20  23
ENDBRANCH  15  20
TORSDOF 7
ENDMDL
MODEL 3
REMARK VINA RESULT:      -7.3      3.467      9.211
REMARK  Name = 45784427
REMARK  11 active torsions:
REMARK  status: ('A' for Active; 'I' for Inactive)
REMARK    1  A    between atoms: O_3  and  C_12
REMARK    2  A    between atoms: N_6  and  C_16
REMARK    3  A    between atoms: N_7  and  C_25
REMARK    4  A    between atoms: N_8  and  C_26
REMARK    5  A    between atoms: C_9  and  C_19
REMARK    6  A    between atoms: C_11  and  C_21
REMARK    7  A    between atoms: C_15  and  C_20
REMARK    8  A    between atoms: C_20  and  C_22
REMARK    9  A    between atoms: C_20  and  C_23
REMARK   10  A    between atoms: C_25  and  C_27
REMARK   11  A    between atoms: C_26  and  C_28
REMARK                            x       y       z     vdW  Elec       q    Type
REMARK                         _______ _______ _______ _____ _____    ______ ____
ROOT
ATOM      9  C   UNL     1      -3.332 -10.934  11.202  0.00  0.00    -0.027 C 
ATOM     10  C   UNL     1      -4.624 -10.412  11.913  0.00  0.00    +0.028 C 
ATOM     11  C   UNL     1      -5.275  -9.237  11.100  0.00  0.00    +0.012 C 
ATOM     12  C   UNL     1      -4.360 -10.117  13.418  0.00  0.00    +0.122 C 
ATOM     13  C   UNL     1      -2.782 -12.161  11.967  0.00  0.00    +0.007 C 
ATOM     14  C   UNL     1      -3.695 -11.395   9.771  0.00  0.00    +0.009 C 
ATOM     15  C   UNL     1      -3.713 -11.314  14.154  0.00  0.00    +0.029 C 
ATOM     16  C   UNL     1      -5.567  -9.689   9.641  0.00  0.00    +0.078 C 
ATOM     17  C   UNL     1      -2.484 -11.865  13.430  0.00  0.00    +0.007 C 
ATOM     18  C   UNL     1      -4.355 -10.303   8.941  0.00  0.00    +0.023 C 
ATOM     19  C   UNL     1      -2.221  -9.856  11.125  0.00  0.00    +0.011 C 
ATOM     21  C   UNL     1      -6.569  -8.695  11.729  0.00  0.00    +0.010 C 
ENDROOT
BRANCH  16   6
ATOM      5  O   UNL     1      -7.948  -9.669   8.011  0.00  0.00    -0.253 OA
ATOM      6  N   UNL     1      -6.060  -8.596   8.829  0.00  0.00    -0.296 N 
ATOM      8  N   UNL     1      -7.464  -7.487   7.391  0.00  0.00    -0.300 N 
ATOM     24  C   UNL     1      -7.224  -8.678   8.073  0.00  0.00    +0.300 C 
ATOM     34  H   UNL     1      -5.488  -7.759   8.748  0.00  0.00    +0.151 HD
ATOM     37  H   UNL     1      -6.816  -6.715   7.512  0.00  0.00    +0.150 HD
BRANCH   8  26
ATOM     26  C   UNL     1      -8.606  -7.296   6.529  0.00  0.00    +0.102 C 
ATOM     28  C   UNL     1      -9.723  -6.562   7.243  0.00  0.00    +0.024 C 
ENDBRANCH   8  26
ENDBRANCH  16   6
BRANCH  12   3
ATOM      3  O   UNL     1      -5.599  -9.854  14.077  0.00  0.00    -0.391 OA
ATOM     35  H   UNL     1      -5.823  -8.918  13.939  0.00  0.00    +0.210 HD
ENDBRANCH  12   3
BRANCH  15  20
ATOM     20  C   UNL     1      -3.341 -10.959  15.599  0.00  0.00    +0.077 C 
ATOM     22  C   UNL     1      -1.834 -11.078  15.797  0.00  0.00    +0.017 C 
BRANCH  20  23
ATOM      4  O   UNL     1      -4.466 -12.996  16.272  0.00  0.00    -0.276 OA
ATOM      7  N   UNL     1      -4.331 -11.249  17.792  0.00  0.00    -0.311 N 
ATOM     23  C   UNL     1      -4.103 -11.859  16.567  0.00  0.00    +0.216 C 
ATOM     36  H   UNL     1      -3.952 -10.325  17.976  0.00  0.00    +0.149 HD
BRANCH   7  25
ATOM     25  C   UNL     1      -5.036 -11.901  18.871  0.00  0.00    +0.139 C 
BRANCH  25  27
ATOM      1  F   UNL     1      -9.601 -12.666  20.406  0.00  0.00    -0.205 F 
ATOM      2  F   UNL     1      -8.737  -9.052  17.471  0.00  0.00    -0.205 F 
ATOM     27  C   UNL     1      -6.491 -11.535  18.894  0.00  0.00    -0.025 A 
ATOM     29  C   UNL     1      -6.947 -10.442  18.156  0.00  0.00    +0.043 A 
ATOM     30  C   UNL     1      -7.388 -12.286  19.655  0.00  0.00    +0.043 A 
ATOM     31  C   UNL     1      -8.740 -11.944  19.676  0.00  0.00    +0.126 A 
ATOM     32  C   UNL     1      -8.299 -10.101  18.178  0.00  0.00    +0.126 A 
ATOM     33  C   UNL     1      -9.196 -10.852  18.938  0.00  0.00    +0.076 A 
ENDBRANCH  25  27
ENDBRANCH   7  25
ENDBRANCH  20  23
ENDBRANCH  15  20
TORSDOF 7
ENDMDL
MODEL 4
REMARK VINA RESULT:      -7.1      3.584      8.500
REMARK  Name = 45784427
REMARK  11 active torsions:
REMARK  status: ('A' for Active; 'I' for Inactive)
REMARK    1  A    between atoms: O_3  and  C_12
REMARK    2  A    between atoms: N_6  and  C_16
REMARK    3  A    between atoms: N_7  and  C_25
REMARK    4  A    between atoms: N_8  and  C_26
REMARK    5  A    between atoms: C_9  and  C_19
REMARK    6  A    between atoms: C_11  and  C_21
REMARK    7  A    between atoms: C_15  and  C_20
REMARK    8  A    between atoms: C_20  and  C_22
REMARK    9  A    between atoms: C_20  and  C_23
REMARK   10  A    between atoms: C_25  and  C_27
REMARK   11  A    between atoms: C_26  and  C_28
REMARK                            x       y       z     vdW  Elec       q    Type
REMARK                         _______ _______ _______ _____ _____    ______ ____
ROOT
ATOM      9  C   UNL     1      -3.465 -11.743  12.094  0.00  0.00    -0.027 C 
ATOM     10  C   UNL     1      -4.697 -10.849  12.451  0.00  0.00    +0.028 C 
ATOM     11  C   UNL     1      -5.018  -9.846  11.286  0.00  0.00    +0.012 C 
ATOM     12  C   UNL     1      -4.539 -10.208  13.861  0.00  0.00    +0.122 C 
ATOM     13  C   UNL     1      -3.247 -12.792  13.211  0.00  0.00    +0.007 C 
ATOM     14  C   UNL     1      -3.758 -12.507  10.781  0.00  0.00    +0.009 C 
ATOM     15  C   UNL     1      -4.218 -11.251  14.956  0.00  0.00    +0.029 C 
ATOM     16  C   UNL     1      -5.238 -10.620   9.955  0.00  0.00    +0.078 C 
ATOM     17  C   UNL     1      -3.052 -12.166  14.584  0.00  0.00    +0.007 C 
ATOM     18  C   UNL     1      -4.103 -11.586   9.619  0.00  0.00    +0.023 C 
ATOM     19  C   UNL     1      -2.163 -10.919  11.925  0.00  0.00    +0.011 C 
ATOM     21  C   UNL     1      -6.240  -8.954  11.559  0.00  0.00    +0.010 C 
ENDROOT
BRANCH  16   6
ATOM      5  O   UNL     1      -7.373 -10.670   8.014  0.00  0.00    -0.253 OA
ATOM      6  N   UNL     1      -5.421  -9.720   8.836  0.00  0.00    -0.296 N 
ATOM      8  N   UNL     1      -6.418  -8.833   6.968  0.00  0.00    -0.300 N 
ATOM     24  C   UNL     1      -6.486  -9.822   7.947  0.00  0.00    +0.300 C 
ATOM     34  H   UNL     1      -4.696  -9.033   8.645  0.00  0.00    +0.151 HD
ATOM     37  H   UNL     1      -5.655  -8.165   7.000  0.00  0.00    +0.150 HD
BRANCH   8  26
ATOM     26  C   UNL     1      -7.399  -8.706   5.916  0.00  0.00    +0.102 C 
ATOM     28  C   UNL     1      -8.245  -7.462   6.095  0.00  0.00    +0.024 C 
ENDBRANCH   8  26
ENDBRANCH  16   6
BRANCH  12   3
ATOM      3  O   UNL     1      -5.765  -9.581  14.239  0.00  0.00    -0.391 OA
ATOM     35  H   UNL     1      -6.291 -10.225  14.744  0.00  0.00    +0.210 HD
ENDBRANCH  12   3
BRANCH  15  20
ATOM     20  C   UNL     1      -3.937 -10.586  16.309  0.00  0.00    +0.077 C 
ATOM     22  C   UNL     1      -2.476 -10.782  16.697  0.00  0.00    +0.017 C 
BRANCH  20  23
ATOM      4  O   UNL     1      -4.493 -11.914  18.257  0.00  0.00    -0.276 OA
ATOM      7  N   UNL     1      -6.182 -10.711  17.216  0.00  0.00    -0.311 N 
ATOM     23  C   UNL     1      -4.876 -11.152  17.371  0.00  0.00    +0.216 C 
ATOM     36  H   UNL     1      -6.406 -10.040  16.489  0.00  0.00    +0.149 HD
BRANCH   7  25
ATOM     25  C   UNL     1      -7.252 -11.113  18.099  0.00  0.00    +0.139 C 
BRANCH  25  27
ATOM      1  F   UNL     1      -9.492  -7.230  16.177  0.00  0.00    -0.205 F 
ATOM      2  F   UNL     1     -11.851  -9.963  19.240  0.00  0.00    -0.205 F 
ATOM     27  C   UNL     1      -8.456 -10.226  17.962  0.00  0.00    -0.025 A 
ATOM     29  C   UNL     1      -9.618 -10.512  18.680  0.00  0.00    +0.043 A 
ATOM     30  C   UNL     1      -8.413  -9.117  17.116  0.00  0.00    +0.043 A 
ATOM     31  C   UNL     1      -9.533  -8.295  16.989  0.00  0.00    +0.126 A 
ATOM     32  C   UNL     1     -10.736  -9.689  18.553  0.00  0.00    +0.126 A 
ATOM     33  C   UNL     1     -10.694  -8.580  17.707  0.00  0.00    +0.076 A 
ENDBRANCH  25  27
ENDBRANCH   7  25
ENDBRANCH  20  23
ENDBRANCH  15  20
TORSDOF 7
ENDMDL
MODEL 5
REMARK VINA RESULT:      -7.1     19.965     22.645
REMARK  Name = 45784427
REMARK  11 active torsions:
REMARK  status: ('A' for Active; 'I' for Inactive)
REMARK    1  A    between atoms: O_3  and  C_12
REMARK    2  A    between atoms: N_6  and  C_16
REMARK    3  A    between atoms: N_7  and  C_25
REMARK    4  A    between atoms: N_8  and  C_26
REMARK    5  A    between atoms: C_9  and  C_19
REMARK    6  A    between atoms: C_11  and  C_21
REMARK    7  A    between atoms: C_15  and  C_20
REMARK    8  A    between atoms: C_20  and  C_22
REMARK    9  A    between atoms: C_20  and  C_23
REMARK   10  A    between atoms: C_25  and  C_27
REMARK   11  A    between atoms: C_26  and  C_28
REMARK                            x       y       z     vdW  Elec       q    Type
REMARK                         _______ _______ _______ _____ _____    ______ ____
ROOT
ATOM      9  C   UNL     1     -16.456   1.481  27.942  0.00  0.00    -0.027 C 
ATOM     10  C   UNL     1     -16.151   3.013  28.030  0.00  0.00    +0.028 C 
ATOM     11  C   UNL     1     -16.369   3.544  29.493  0.00  0.00    +0.012 C 
ATOM     12  C   UNL     1     -16.897   3.801  26.915  0.00  0.00    +0.122 C 
ATOM     13  C   UNL     1     -16.124   0.969  26.520  0.00  0.00    +0.007 C 
ATOM     14  C   UNL     1     -15.545   0.727  28.939  0.00  0.00    +0.009 C 
ATOM     15  C   UNL     1     -16.643   3.220  25.505  0.00  0.00    +0.029 C 
ATOM     16  C   UNL     1     -15.504   2.729  30.495  0.00  0.00    +0.078 C 
ATOM     17  C   UNL     1     -16.882   1.712  25.430  0.00  0.00    +0.007 C 
ATOM     18  C   UNL     1     -15.693   1.217  30.372  0.00  0.00    +0.023 C 
ATOM     19  C   UNL     1     -17.938   1.151  28.256  0.00  0.00    +0.011 C 
ATOM     21  C   UNL     1     -16.058   5.040  29.657  0.00  0.00    +0.010 C 
ENDROOT
BRANCH  16   6
ATOM      5  O   UNL     1     -13.574   3.587  32.461  0.00  0.00    -0.253 OA
ATOM      6  N   UNL     1     -15.767   3.113  31.866  0.00  0.00    -0.296 N 
ATOM      8  N   UNL     1     -15.296   3.828  33.997  0.00  0.00    -0.300 N 
ATOM     24  C   UNL     1     -14.768   3.515  32.746  0.00  0.00    +0.300 C 
ATOM     34  H   UNL     1     -16.713   3.010  32.224  0.00  0.00    +0.151 HD
ATOM     37  H   UNL     1     -16.299   3.752  34.136  0.00  0.00    +0.150 HD
BRANCH   8  26
ATOM     26  C   UNL     1     -14.481   4.273  35.101  0.00  0.00    +0.102 C 
ATOM     28  C   UNL     1     -14.115   5.738  34.965  0.00  0.00    +0.024 C 
ENDBRANCH   8  26
ENDBRANCH  16   6
BRANCH  12   3
ATOM      3  O   UNL     1     -16.430   5.150  26.891  0.00  0.00    -0.391 OA
ATOM     35  H   UNL     1     -15.822   5.247  26.138  0.00  0.00    +0.210 HD
ENDBRANCH  12   3
BRANCH  15  20
ATOM     20  C   UNL     1     -17.488   3.927  24.438  0.00  0.00    +0.077 C 
ATOM     22  C   UNL     1     -18.853   3.257  24.320  0.00  0.00    +0.017 C 
BRANCH  20  23
ATOM      4  O   UNL     1     -17.204   3.389  22.093  0.00  0.00    -0.276 OA
ATOM      7  N   UNL     1     -15.529   4.580  23.169  0.00  0.00    -0.311 N 
ATOM     23  C   UNL     1     -16.749   3.923  23.103  0.00  0.00    +0.216 C 
ATOM     36  H   UNL     1     -15.248   5.041  24.028  0.00  0.00    +0.149 HD
BRANCH   7  25
ATOM     25  C   UNL     1     -14.647   4.706  22.032  0.00  0.00    +0.139 C 
BRANCH  25  27
ATOM      1  F   UNL     1     -11.187   7.787  20.509  0.00  0.00    -0.205 F 
ATOM      2  F   UNL     1     -14.941   9.509  22.825  0.00  0.00    -0.205 F 
ATOM     27  C   UNL     1     -14.089   6.094  21.905  0.00  0.00    -0.025 A 
ATOM     29  C   UNL     1     -14.788   7.178  22.436  0.00  0.00    +0.043 A 
ATOM     30  C   UNL     1     -12.872   6.300  21.253  0.00  0.00    +0.043 A 
ATOM     31  C   UNL     1     -12.355   7.590  21.134  0.00  0.00    +0.126 A 
ATOM     32  C   UNL     1     -14.270   8.467  22.317  0.00  0.00    +0.126 A 
ATOM     33  C   UNL     1     -13.053   8.674  21.666  0.00  0.00    +0.076 A 
ENDBRANCH  25  27
ENDBRANCH   7  25
ENDBRANCH  20  23
ENDBRANCH  15  20
TORSDOF 7
ENDMDL
MODEL 6
REMARK VINA RESULT:      -7.0     29.018     32.041
REMARK  Name = 45784427
REMARK  11 active torsions:
REMARK  status: ('A' for Active; 'I' for Inactive)
REMARK    1  A    between atoms: O_3  and  C_12
REMARK    2  A    between atoms: N_6  and  C_16
REMARK    3  A    between atoms: N_7  and  C_25
REMARK    4  A    between atoms: N_8  and  C_26
REMARK    5  A    between atoms: C_9  and  C_19
REMARK    6  A    between atoms: C_11  and  C_21
REMARK    7  A    between atoms: C_15  and  C_20
REMARK    8  A    between atoms: C_20  and  C_22
REMARK    9  A    between atoms: C_20  and  C_23
REMARK   10  A    between atoms: C_25  and  C_27
REMARK   11  A    between atoms: C_26  and  C_28
REMARK                            x       y       z     vdW  Elec       q    Type
REMARK                         _______ _______ _______ _____ _____    ______ ____
ROOT
ATOM      9  C   UNL     1      13.449   8.032  20.895  0.00  0.00    -0.027 C 
ATOM     10  C   UNL     1      14.383   9.030  21.655  0.00  0.00    +0.028 C 
ATOM     11  C   UNL     1      13.768  10.475  21.668  0.00  0.00    +0.012 C 
ATOM     12  C   UNL     1      15.849   8.931  21.142  0.00  0.00    +0.122 C 
ATOM     13  C   UNL     1      14.027   6.601  21.000  0.00  0.00    +0.007 C 
ATOM     14  C   UNL     1      12.058   8.029  21.571  0.00  0.00    +0.009 C 
ATOM     15  C   UNL     1      16.387   7.481  21.152  0.00  0.00    +0.029 C 
ATOM     16  C   UNL     1      12.340  10.447  22.281  0.00  0.00    +0.078 C 
ATOM     17  C   UNL     1      15.446   6.493  20.461  0.00  0.00    +0.007 C 
ATOM     18  C   UNL     1      11.421   9.410  21.636  0.00  0.00    +0.023 C 
ATOM     19  C   UNL     1      13.286   8.395  19.397  0.00  0.00    +0.011 C 
ATOM     21  C   UNL     1      14.624  11.502  22.426  0.00  0.00    +0.010 C 
ENDROOT
BRANCH  16   6
ATOM      5  O   UNL     1      10.529  11.610  24.204  0.00  0.00    -0.253 OA
ATOM      6  N   UNL     1      11.697  11.741  22.202  0.00  0.00    -0.296 N 
ATOM      8  N   UNL     1      10.359  13.489  22.854  0.00  0.00    -0.300 N 
ATOM     24  C   UNL     1      10.834  12.221  23.182  0.00  0.00    +0.300 C 
ATOM     34  H   UNL     1      11.820  12.291  21.356  0.00  0.00    +0.151 HD
ATOM     37  H   UNL     1      10.677  13.923  21.993  0.00  0.00    +0.150 HD
BRANCH   8  26
ATOM     26  C   UNL     1       9.445  14.223  23.697  0.00  0.00    +0.102 C 
ATOM     28  C   UNL     1       8.541  15.125  22.880  0.00  0.00    +0.024 C 
ENDBRANCH   8  26
ENDBRANCH  16   6
BRANCH  12   3
ATOM      3  O   UNL     1      16.705   9.690  21.997  0.00  0.00    -0.391 OA
ATOM     35  H   UNL     1      16.443   9.518  22.918  0.00  0.00    +0.210 HD
ENDBRANCH  12   3
BRANCH  15  20
ATOM     20  C   UNL     1      17.782   7.387  20.521  0.00  0.00    +0.077 C 
ATOM     22  C   UNL     1      17.856   6.185  19.587  0.00  0.00    +0.017 C 
BRANCH  20  23
ATOM      4  O   UNL     1      18.962   8.168  22.487  0.00  0.00    -0.276 OA
ATOM      7  N   UNL     1      19.636   6.176  21.507  0.00  0.00    -0.311 N 
ATOM     23  C   UNL     1      18.842   7.309  21.615  0.00  0.00    +0.216 C 
ATOM     36  H   UNL     1      19.438   5.487  20.789  0.00  0.00    +0.149 HD
BRANCH   7  25
ATOM     25  C   UNL     1      20.710   5.884  22.427  0.00  0.00    +0.139 C 
BRANCH  25  27
ATOM      1  F   UNL     1      23.142   1.936  20.915  0.00  0.00    -0.205 F 
ATOM      2  F   UNL     1      24.937   6.225  20.019  0.00  0.00    -0.205 F 
ATOM     27  C   UNL     1      21.883   5.249  21.738  0.00  0.00    -0.025 A 
ATOM     29  C   UNL     1      22.886   6.049  21.188  0.00  0.00    +0.043 A 
ATOM     30  C   UNL     1      21.969   3.859  21.645  0.00  0.00    +0.043 A 
ATOM     31  C   UNL     1      23.058   3.270  21.003  0.00  0.00    +0.126 A 
ATOM     32  C   UNL     1      23.974   5.459  20.547  0.00  0.00    +0.126 A 
ATOM     33  C   UNL     1      24.062   4.070  20.455  0.00  0.00    +0.076 A 
ENDBRANCH  25  27
ENDBRANCH   7  25
ENDBRANCH  20  23
ENDBRANCH  15  20
TORSDOF 7
ENDMDL
MODEL 7
REMARK VINA RESULT:      -7.0     24.321     26.489
REMARK  Name = 45784427
REMARK  11 active torsions:
REMARK  status: ('A' for Active; 'I' for Inactive)
REMARK    1  A    between atoms: O_3  and  C_12
REMARK    2  A    between atoms: N_6  and  C_16
REMARK    3  A    between atoms: N_7  and  C_25
REMARK    4  A    between atoms: N_8  and  C_26
REMARK    5  A    between atoms: C_9  and  C_19
REMARK    6  A    between atoms: C_11  and  C_21
REMARK    7  A    between atoms: C_15  and  C_20
REMARK    8  A    between atoms: C_20  and  C_22
REMARK    9  A    between atoms: C_20  and  C_23
REMARK   10  A    between atoms: C_25  and  C_27
REMARK   11  A    between atoms: C_26  and  C_28
REMARK                            x       y       z     vdW  Elec       q    Type
REMARK                         _______ _______ _______ _____ _____    ______ ____
ROOT
ATOM      9  C   UNL     1       9.432   6.376   6.309  0.00  0.00    -0.027 C 
ATOM     10  C   UNL     1      10.493   7.409   5.805  0.00  0.00    +0.028 C 
ATOM     11  C   UNL     1      10.073   8.874   6.185  0.00  0.00    +0.012 C 
ATOM     12  C   UNL     1      10.835   7.179   4.304  0.00  0.00    +0.122 C 
ATOM     13  C   UNL     1       9.931   4.940   6.019  0.00  0.00    +0.007 C 
ATOM     14  C   UNL     1       9.276   6.519   7.841  0.00  0.00    +0.009 C 
ATOM     15  C   UNL     1      11.233   5.716   4.001  0.00  0.00    +0.029 C 
ATOM     16  C   UNL     1       9.846   8.988   7.719  0.00  0.00    +0.078 C 
ATOM     17  C   UNL     1      10.228   4.700   4.546  0.00  0.00    +0.007 C 
ATOM     18  C   UNL     1       8.894   7.928   8.273  0.00  0.00    +0.023 C 
ATOM     19  C   UNL     1       8.049   6.568   5.635  0.00  0.00    +0.011 C 
ATOM     21  C   UNL     1      11.089   9.940   5.744  0.00  0.00    +0.010 C 
ENDROOT
BRANCH  16   6
ATOM      5  O   UNL     1      11.097  10.890   9.492  0.00  0.00    -0.253 OA
ATOM      6  N   UNL     1       9.345  10.294   8.091  0.00  0.00    -0.296 N 
ATOM      8  N   UNL     1       9.316  12.335   9.142  0.00  0.00    -0.300 N 
ATOM     24  C   UNL     1      10.020  11.147   8.957  0.00  0.00    +0.300 C 
ATOM     34  H   UNL     1       8.421  10.567   7.767  0.00  0.00    +0.151 HD
ATOM     37  H   UNL     1       8.439  12.465   8.648  0.00  0.00    +0.150 HD
BRANCH   8  26
ATOM     26  C   UNL     1       9.789  13.399   9.994  0.00  0.00    +0.102 C 
ATOM     28  C   UNL     1       8.802  13.702  11.103  0.00  0.00    +0.024 C 
ENDBRANCH   8  26
ENDBRANCH  16   6
BRANCH  12   3
ATOM      3  O   UNL     1      11.953   7.990   3.940  0.00  0.00    -0.391 OA
ATOM     35  H   UNL     1      11.662   8.918   3.929  0.00  0.00    +0.210 HD
ENDBRANCH  12   3
BRANCH  15  20
ATOM     20  C   UNL     1      11.437   5.481   2.500  0.00  0.00    +0.077 C 
ATOM     22  C   UNL     1      10.609   4.288   2.037  0.00  0.00    +0.017 C 
BRANCH  20  23
ATOM      4  O   UNL     1      13.743   6.188   2.279  0.00  0.00    -0.276 OA
ATOM      7  N   UNL     1      13.217   3.971   1.844  0.00  0.00    -0.311 N 
ATOM     23  C   UNL     1      12.920   5.278   2.203  0.00  0.00    +0.216 C 
ATOM     36  H   UNL     1      12.488   3.265   1.856  0.00  0.00    +0.149 HD
BRANCH   7  25
ATOM     25  C   UNL     1      14.554   3.536   1.513  0.00  0.00    +0.139 C 
BRANCH  25  27
ATOM      1  F   UNL     1      13.425   4.277  -3.173  0.00  0.00    -0.205 F 
ATOM      2  F   UNL     1      17.881   4.994  -1.740  0.00  0.00    -0.205 F 
ATOM     27  C   UNL     1      14.941   3.922   0.116  0.00  0.00    -0.025 A 
ATOM     29  C   UNL     1      16.258   4.285  -0.168  0.00  0.00    +0.043 A 
ATOM     30  C   UNL     1      13.984   3.920  -0.900  0.00  0.00    +0.043 A 
ATOM     31  C   UNL     1      14.344   4.280  -2.198  0.00  0.00    +0.126 A 
ATOM     32  C   UNL     1      16.618   4.644  -1.467  0.00  0.00    +0.126 A 
ATOM     33  C   UNL     1      15.661   4.642  -2.482  0.00  0.00    +0.076 A 
ENDBRANCH  25  27
ENDBRANCH   7  25
ENDBRANCH  20  23
ENDBRANCH  15  20
TORSDOF 7
ENDMDL
MODEL 8
REMARK VINA RESULT:      -7.0     18.085     19.984
REMARK  Name = 45784427
REMARK  11 active torsions:
REMARK  status: ('A' for Active; 'I' for Inactive)
REMARK    1  A    between atoms: O_3  and  C_12
REMARK    2  A    between atoms: N_6  and  C_16
REMARK    3  A    between atoms: N_7  and  C_25
REMARK    4  A    between atoms: N_8  and  C_26
REMARK    5  A    between atoms: C_9  and  C_19
REMARK    6  A    between atoms: C_11  and  C_21
REMARK    7  A    between atoms: C_15  and  C_20
REMARK    8  A    between atoms: C_20  and  C_22
REMARK    9  A    between atoms: C_20  and  C_23
REMARK   10  A    between atoms: C_25  and  C_27
REMARK   11  A    between atoms: C_26  and  C_28
REMARK                            x       y       z     vdW  Elec       q    Type
REMARK                         _______ _______ _______ _____ _____    ______ ____
ROOT
ATOM      9  C   UNL     1     -14.354   8.595  19.968  0.00  0.00    -0.027 C 
ATOM     10  C   UNL     1     -13.412   7.356  20.125  0.00  0.00    +0.028 C 
ATOM     11  C   UNL     1     -13.512   6.757  21.573  0.00  0.00    +0.012 C 
ATOM     12  C   UNL     1     -11.971   7.678  19.632  0.00  0.00    +0.122 C 
ATOM     13  C   UNL     1     -14.317   9.090  18.502  0.00  0.00    +0.007 C 
ATOM     14  C   UNL     1     -15.807   8.167  20.284  0.00  0.00    +0.009 C 
ATOM     15  C   UNL     1     -11.949   8.270  18.204  0.00  0.00    +0.029 C 
ATOM     16  C   UNL     1     -14.988   6.400  21.908  0.00  0.00    +0.078 C 
ATOM     17  C   UNL     1     -12.914   9.443  18.030  0.00  0.00    +0.007 C 
ATOM     18  C   UNL     1     -15.961   7.553  21.668  0.00  0.00    +0.023 C 
ATOM     19  C   UNL     1     -13.954   9.768  20.899  0.00  0.00    +0.011 C 
ATOM     21  C   UNL     1     -12.630   5.516  21.788  0.00  0.00    +0.010 C 
ENDROOT
BRANCH  16   6
ATOM      5  O   UNL     1     -15.860   3.800  22.805  0.00  0.00    -0.253 OA
ATOM      6  N   UNL     1     -15.134   5.953  23.277  0.00  0.00    -0.296 N 
ATOM      8  N   UNL     1     -15.614   4.513  24.999  0.00  0.00    -0.300 N 
ATOM     24  C   UNL     1     -15.564   4.675  23.616  0.00  0.00    +0.300 C 
ATOM     34  H   UNL     1     -14.992   6.629  24.023  0.00  0.00    +0.151 HD
ATOM     37  H   UNL     1     -15.338   5.289  25.592  0.00  0.00    +0.150 HD
BRANCH   8  26
ATOM     26  C   UNL     1     -16.028   3.281  25.627  0.00  0.00    +0.102 C 
ATOM     28  C   UNL     1     -16.152   3.438  27.129  0.00  0.00    +0.024 C 
ENDBRANCH   8  26
ENDBRANCH  16   6
BRANCH  12   3
ATOM      3  O   UNL     1     -11.203   6.475  19.588  0.00  0.00    -0.391 OA
ATOM     35  H   UNL     1     -11.025   6.196  20.502  0.00  0.00    +0.210 HD
ENDBRANCH  12   3
BRANCH  15  20
ATOM     20  C   UNL     1     -10.538   8.702  17.788  0.00  0.00    +0.077 C 
ATOM     22  C   UNL     1     -10.116   9.941  18.569  0.00  0.00    +0.017 C 
BRANCH  20  23
ATOM      4  O   UNL     1     -10.374  10.072  15.798  0.00  0.00    -0.276 OA
ATOM      7  N   UNL     1     -10.597   7.777  15.548  0.00  0.00    -0.311 N 
ATOM     23  C   UNL     1     -10.491   8.949  16.283  0.00  0.00    +0.216 C 
ATOM     36  H   UNL     1     -10.638   6.882  16.025  0.00  0.00    +0.149 HD
BRANCH   7  25
ATOM     25  C   UNL     1     -10.581   7.756  14.104  0.00  0.00    +0.139 C 
BRANCH  25  27
ATOM      1  F   UNL     1     -15.371   7.101  13.466  0.00  0.00    -0.205 F 
ATOM      2  F   UNL     1     -13.270  10.828  11.437  0.00  0.00    -0.205 F 
ATOM     27  C   UNL     1     -11.897   8.181  13.521  0.00  0.00    -0.025 A 
ATOM     29  C   UNL     1     -11.973   9.330  12.733  0.00  0.00    +0.043 A 
ATOM     30  C   UNL     1     -13.046   7.428  13.769  0.00  0.00    +0.043 A 
ATOM     31  C   UNL     1     -14.269   7.824  13.229  0.00  0.00    +0.126 A 
ATOM     32  C   UNL     1     -13.196   9.725  12.193  0.00  0.00    +0.126 A 
ATOM     33  C   UNL     1     -14.344   8.973  12.439  0.00  0.00    +0.076 A 
ENDBRANCH  25  27
ENDBRANCH   7  25
ENDBRANCH  20  23
ENDBRANCH  15  20
TORSDOF 7
ENDMDL
MODEL 9
REMARK VINA RESULT:      -6.9     19.577     21.993
REMARK  Name = 45784427
REMARK  11 active torsions:
REMARK  status: ('A' for Active; 'I' for Inactive)
REMARK    1  A    between atoms: O_3  and  C_12
REMARK    2  A    between atoms: N_6  and  C_16
REMARK    3  A    between atoms: N_7  and  C_25
REMARK    4  A    between atoms: N_8  and  C_26
REMARK    5  A    between atoms: C_9  and  C_19
REMARK    6  A    between atoms: C_11  and  C_21
REMARK    7  A    between atoms: C_15  and  C_20
REMARK    8  A    between atoms: C_20  and  C_22
REMARK    9  A    between atoms: C_20  and  C_23
REMARK   10  A    between atoms: C_25  and  C_27
REMARK   11  A    between atoms: C_26  and  C_28
REMARK                            x       y       z     vdW  Elec       q    Type
REMARK                         _______ _______ _______ _____ _____    ______ ____
ROOT
ATOM      9  C   UNL     1     -11.447   8.239  19.573  0.00  0.00    -0.027 C 
ATOM     10  C   UNL     1     -12.865   8.889  19.690  0.00  0.00    +0.028 C 
ATOM     11  C   UNL     1     -13.972   7.789  19.869  0.00  0.00    +0.012 C 
ATOM     12  C   UNL     1     -13.114   9.908  18.540  0.00  0.00    +0.122 C 
ATOM     13  C   UNL     1     -10.373   9.351  19.513  0.00  0.00    +0.007 C 
ATOM     14  C   UNL     1     -11.175   7.391  20.838  0.00  0.00    +0.009 C 
ATOM     15  C   UNL     1     -11.983  10.956  18.418  0.00  0.00    +0.029 C 
ATOM     16  C   UNL     1     -13.648   6.895  21.099  0.00  0.00    +0.078 C 
ATOM     17  C   UNL     1     -10.591  10.326  18.365  0.00  0.00    +0.007 C 
ATOM     18  C   UNL     1     -12.232   6.322  21.078  0.00  0.00    +0.023 C 
ATOM     19  C   UNL     1     -11.306   7.342  18.317  0.00  0.00    +0.011 C 
ATOM     21  C   UNL     1     -15.391   8.362  20.019  0.00  0.00    +0.010 C 
ENDROOT
BRANCH  16   6
ATOM      5  O   UNL     1     -14.444   5.559  23.530  0.00  0.00    -0.253 OA
ATOM      6  N   UNL     1     -14.585   5.798  21.226  0.00  0.00    -0.296 N 
ATOM      8  N   UNL     1     -15.832   4.184  22.279  0.00  0.00    -0.300 N 
ATOM     24  C   UNL     1     -14.909   5.214  22.445  0.00  0.00    +0.300 C 
ATOM     34  H   UNL     1     -14.963   5.386  20.377  0.00  0.00    +0.151 HD
ATOM     37  H   UNL     1     -16.171   3.977  21.345  0.00  0.00    +0.150 HD
BRANCH   8  26
ATOM     26  C   UNL     1     -16.341   3.405  23.383  0.00  0.00    +0.102 C 
ATOM     28  C   UNL     1     -17.663   2.751  23.035  0.00  0.00    +0.024 C 
ENDBRANCH   8  26
ENDBRANCH  16   6
BRANCH  12   3
ATOM      3  O   UNL     1     -14.317  10.633  18.798  0.00  0.00    -0.391 OA
ATOM     35  H   UNL     1     -14.593  11.066  17.972  0.00  0.00    +0.210 HD
ENDBRANCH  12   3
BRANCH  15  20
ATOM     20  C   UNL     1     -12.181  11.867  17.201  0.00  0.00    +0.077 C 
ATOM     22  C   UNL     1     -11.752  11.145  15.929  0.00  0.00    +0.017 C 
BRANCH  20  23
ATOM      4  O   UNL     1     -11.331  13.742  18.477  0.00  0.00    -0.276 OA
ATOM      7  N   UNL     1     -10.808  13.608  16.221  0.00  0.00    -0.311 N 
ATOM     23  C   UNL     1     -11.405  13.166  17.392  0.00  0.00    +0.216 C 
ATOM     36  H   UNL     1     -10.873  13.047  15.377  0.00  0.00    +0.149 HD
BRANCH   7  25
ATOM     25  C   UNL     1     -10.023  14.818  16.151  0.00  0.00    +0.139 C 
BRANCH  25  27
ATOM      1  F   UNL     1      -5.917  13.467  13.892  0.00  0.00    -0.205 F 
ATOM      2  F   UNL     1      -5.756  14.554  18.498  0.00  0.00    -0.205 F 
ATOM     27  C   UNL     1      -8.549  14.532  16.167  0.00  0.00    -0.025 A 
ATOM     29  C   UNL     1      -7.823  14.678  17.349  0.00  0.00    +0.043 A 
ATOM     30  C   UNL     1      -7.905  14.124  14.998  0.00  0.00    +0.043 A 
ATOM     31  C   UNL     1      -6.535  13.860  15.014  0.00  0.00    +0.126 A 
ATOM     32  C   UNL     1      -6.454  14.414  17.364  0.00  0.00    +0.126 A 
ATOM     33  C   UNL     1      -5.809  14.004  16.196  0.00  0.00    +0.076 A 
ENDBRANCH  25  27
ENDBRANCH   7  25
ENDBRANCH  20  23
ENDBRANCH  15  20
TORSDOF 7
ENDMDL
MODEL 10
REMARK VINA RESULT:      -6.9     28.714     30.714
REMARK  Name = 45784427
REMARK  11 active torsions:
REMARK  status: ('A' for Active; 'I' for Inactive)
REMARK    1  A    between atoms: O_3  and  C_12
REMARK    2  A    between atoms: N_6  and  C_16
REMARK    3  A    between atoms: N_7  and  C_25
REMARK    4  A    between atoms: N_8  and  C_26
REMARK    5  A    between atoms: C_9  and  C_19
REMARK    6  A    between atoms: C_11  and  C_21
REMARK    7  A    between atoms: C_15  and  C_20
REMARK    8  A    between atoms: C_20  and  C_22
REMARK    9  A    between atoms: C_20  and  C_23
REMARK   10  A    between atoms: C_25  and  C_27
REMARK   11  A    between atoms: C_26  and  C_28
REMARK                            x       y       z     vdW  Elec       q    Type
REMARK                         _______ _______ _______ _____ _____    ______ ____
ROOT
ATOM      9  C   UNL     1      16.056   7.066  19.712  0.00  0.00    -0.027 C 
ATOM     10  C   UNL     1      16.242   8.618  19.767  0.00  0.00    +0.028 C 
ATOM     11  C   UNL     1      16.840   9.062  21.150  0.00  0.00    +0.012 C 
ATOM     12  C   UNL     1      14.944   9.357  19.332  0.00  0.00    +0.122 C 
ATOM     13  C   UNL     1      15.574   6.653  18.301  0.00  0.00    +0.007 C 
ATOM     14  C   UNL     1      17.423   6.384  19.961  0.00  0.00    +0.009 C 
ATOM     15  C   UNL     1      14.409   8.865  17.966  0.00  0.00    +0.029 C 
ATOM     16  C   UNL     1      18.176   8.315  21.423  0.00  0.00    +0.078 C 
ATOM     17  C   UNL     1      14.283   7.343  17.889  0.00  0.00    +0.007 C 
ATOM     18  C   UNL     1      18.065   6.798  21.278  0.00  0.00    +0.023 C 
ATOM     19  C   UNL     1      15.033   6.553  20.758  0.00  0.00    +0.011 C 
ATOM     21  C   UNL     1      17.077  10.577  21.261  0.00  0.00    +0.010 C 
ENDROOT
BRANCH  16   6
ATOM      5  O   UNL     1      20.860   9.140  22.088  0.00  0.00    -0.253 OA
ATOM      6  N   UNL     1      18.697   8.612  22.741  0.00  0.00    -0.296 N 
ATOM      8  N   UNL     1      20.243   9.226  24.323  0.00  0.00    -0.300 N 
ATOM     24  C   UNL     1      20.011   9.005  22.967  0.00  0.00    +0.300 C 
ATOM     34  H   UNL     1      18.096   8.451  23.545  0.00  0.00    +0.151 HD
ATOM     37  H   UNL     1      19.477   9.102  24.977  0.00  0.00    +0.150 HD
BRANCH   8  26
ATOM     26  C   UNL     1      21.526   9.642  24.839  0.00  0.00    +0.102 C 
ATOM     28  C   UNL     1      22.366   8.454  25.260  0.00  0.00    +0.024 C 
ENDBRANCH   8  26
ENDBRANCH  16   6
BRANCH  12   3
ATOM      3  O   UNL     1      15.215  10.751  19.186  0.00  0.00    -0.391 OA
ATOM     35  H   UNL     1      15.656  10.886  18.329  0.00  0.00    +0.210 HD
ENDBRANCH  12   3
BRANCH  15  20
ATOM     20  C   UNL     1      13.062   9.510  17.618  0.00  0.00    +0.077 C 
ATOM     22  C   UNL     1      11.918   8.582  18.012  0.00  0.00    +0.017 C 
BRANCH  20  23
ATOM      4  O   UNL     1      12.531   9.094  15.292  0.00  0.00    -0.276 OA
ATOM      7  N   UNL     1      13.580  11.085  15.850  0.00  0.00    -0.311 N 
ATOM     23  C   UNL     1      13.017   9.849  16.131  0.00  0.00    +0.216 C 
ATOM     36  H   UNL     1      13.914  11.673  16.608  0.00  0.00    +0.149 HD
BRANCH   7  25
ATOM     25  C   UNL     1      13.657  11.624  14.512  0.00  0.00    +0.139 C 
BRANCH  25  27
ATOM      1  F   UNL     1      18.404  12.089  15.530  0.00  0.00    -0.205 F 
ATOM      2  F   UNL     1      16.970  12.452  11.032  0.00  0.00    -0.205 F 
ATOM     27  C   UNL     1      15.076  11.853  14.079  0.00  0.00    -0.025 A 
ATOM     29  C   UNL     1      15.369  12.051  12.729  0.00  0.00    +0.043 A 
ATOM     30  C   UNL     1      16.101  11.865  15.026  0.00  0.00    +0.043 A 
ATOM     31  C   UNL     1      17.419  12.076  14.622  0.00  0.00    +0.126 A 
ATOM     32  C   UNL     1      16.688  12.262  12.327  0.00  0.00    +0.126 A 
ATOM     33  C   UNL     1      17.713  12.276  13.272  0.00  0.00    +0.076 A 
ENDBRANCH  25  27
ENDBRANCH   7  25
ENDBRANCH  20  23
ENDBRANCH  15  20
TORSDOF 7
ENDMDL
