MODEL 1
REMARK VINA RESULT:      -7.1      0.000      0.000
REMARK  Name = 45361453
REMARK  9 active torsions:
REMARK  status: ('A' for Active; 'I' for Inactive)
REMARK    1  A    between atoms: O_1  and  C_9
REMARK    2  A    between atoms: N_4  and  C_13
REMARK    3  A    between atoms: N_5  and  C_22
REMARK    4  A    between atoms: C_6  and  C_16
REMARK    5  A    between atoms: C_8  and  C_18
REMARK    6  A    between atoms: C_11  and  C_17
REMARK    7  A    between atoms: C_17  and  C_19
REMARK    8  A    between atoms: C_17  and  C_20
REMARK    9  A    between atoms: C_21  and  C_23
REMARK                            x       y       z     vdW  Elec       q    Type
REMARK                         _______ _______ _______ _____ _____    ______ ____
ROOT
ATOM      6  C   UNL     1      -3.270 -10.480  11.628  0.00  0.00    -0.027 C 
ATOM      7  C   UNL     1      -4.728 -10.230  12.141  0.00  0.00    +0.028 C 
ATOM      8  C   UNL     1      -5.031 -11.100  13.413  0.00  0.00    +0.012 C 
ATOM      9  C   UNL     1      -5.761 -10.356  10.984  0.00  0.00    +0.122 C 
ATOM     10  C   UNL     1      -2.968  -9.529  10.447  0.00  0.00    +0.007 C 
ATOM     11  C   UNL     1      -5.396  -9.480   9.763  0.00  0.00    +0.029 C 
ATOM     12  C   UNL     1      -2.274 -10.153  12.765  0.00  0.00    +0.009 C 
ATOM     13  C   UNL     1      -3.978 -10.817  14.522  0.00  0.00    +0.076 C 
ATOM     14  C   UNL     1      -3.955  -9.677   9.296  0.00  0.00    +0.007 C 
ATOM     15  C   UNL     1      -2.534 -10.947  14.036  0.00  0.00    +0.023 C 
ATOM     16  C   UNL     1      -3.047 -11.941  11.161  0.00  0.00    +0.011 C 
ATOM     18  C   UNL     1      -6.440 -10.882  13.988  0.00  0.00    +0.010 C 
ENDROOT
BRANCH  13   4
ATOM      3  O   UNL     1      -4.511 -10.033  17.266  0.00  0.00    -0.276 OA
ATOM      4  N   UNL     1      -4.156 -11.686  15.666  0.00  0.00    -0.312 N 
ATOM     21  C   UNL     1      -4.409 -11.213  16.941  0.00  0.00    +0.216 C 
ATOM     31  H   UNL     1      -4.039 -12.684  15.520  0.00  0.00    +0.149 HD
BRANCH  21  23
ATOM     23  C   UNL     1      -4.576 -12.326  17.934  0.00  0.00    +0.075 C 
ATOM     26  C   UNL     1      -5.775 -13.198  17.551  0.00  0.00    +0.013 C 
ATOM     27  C   UNL     1      -4.674 -11.779  19.360  0.00  0.00    +0.013 C 
ATOM     28  C   UNL     1      -7.117 -12.548  17.881  0.00  0.00    +0.001 C 
ATOM     29  C   UNL     1      -6.033 -11.160  19.682  0.00  0.00    +0.001 C 
ATOM     30  C   UNL     1      -7.182 -12.099  19.337  0.00  0.00    +0.000 C 
ENDBRANCH  21  23
ENDBRANCH  13   4
BRANCH   9   1
ATOM      1  O   UNL     1      -7.041  -9.912  11.438  0.00  0.00    -0.391 OA
ATOM     32  H   UNL     1      -7.424  -9.341  10.750  0.00  0.00    +0.210 HD
ENDBRANCH   9   1
BRANCH  11  17
ATOM     17  C   UNL     1      -6.352  -9.716   8.588  0.00  0.00    +0.077 C 
ATOM     19  C   UNL     1      -5.560 -10.022   7.321  0.00  0.00    +0.017 C 
BRANCH  17  20
ATOM      2  O   UNL     1      -7.743  -7.858   9.294  0.00  0.00    -0.276 OA
ATOM      5  N   UNL     1      -7.466  -8.242   7.025  0.00  0.00    -0.312 N 
ATOM     20  C   UNL     1      -7.257  -8.508   8.370  0.00  0.00    +0.216 C 
ATOM     33  H   UNL     1      -7.033  -8.829   6.318  0.00  0.00    +0.149 HD
BRANCH   5  22
ATOM     22  C   UNL     1      -8.290  -7.157   6.572  0.00  0.00    +0.073 C 
ATOM     24  C   UNL     1      -9.786  -7.260   6.585  0.00  0.00    +0.024 C 
ATOM     25  C   UNL     1      -9.046  -7.242   5.280  0.00  0.00    +0.024 C 
ENDBRANCH   5  22
ENDBRANCH  17  20
ENDBRANCH  11  17
TORSDOF 6
ENDMDL
MODEL 2
REMARK VINA RESULT:      -6.8      1.476      9.186
REMARK  Name = 45361453
REMARK  9 active torsions:
REMARK  status: ('A' for Active; 'I' for Inactive)
REMARK    1  A    between atoms: O_1  and  C_9
REMARK    2  A    between atoms: N_4  and  C_13
REMARK    3  A    between atoms: N_5  and  C_22
REMARK    4  A    between atoms: C_6  and  C_16
REMARK    5  A    between atoms: C_8  and  C_18
REMARK    6  A    between atoms: C_11  and  C_17
REMARK    7  A    between atoms: C_17  and  C_19
REMARK    8  A    between atoms: C_17  and  C_20
REMARK    9  A    between atoms: C_21  and  C_23
REMARK                            x       y       z     vdW  Elec       q    Type
REMARK                         _______ _______ _______ _____ _____    ______ ____
ROOT
ATOM      6  C   UNL     1      -3.704 -10.559  10.419  0.00  0.00    -0.027 C 
ATOM      7  C   UNL     1      -5.006 -10.179  11.200  0.00  0.00    +0.028 C 
ATOM      8  C   UNL     1      -5.793  -9.040  10.456  0.00  0.00    +0.012 C 
ATOM      9  C   UNL     1      -4.704  -9.910  12.702  0.00  0.00    +0.122 C 
ATOM     10  C   UNL     1      -3.016 -11.756  11.116  0.00  0.00    +0.007 C 
ATOM     11  C   UNL     1      -3.923 -11.067  13.368  0.00  0.00    +0.029 C 
ATOM     12  C   UNL     1      -4.087 -11.003   8.988  0.00  0.00    +0.009 C 
ATOM     13  C   UNL     1      -6.106  -9.468   8.995  0.00  0.00    +0.076 C 
ATOM     14  C   UNL     1      -2.683 -11.482  12.577  0.00  0.00    +0.007 C 
ATOM     15  C   UNL     1      -4.876  -9.949   8.226  0.00  0.00    +0.023 C 
ATOM     16  C   UNL     1      -2.697  -9.384  10.335  0.00  0.00    +0.011 C 
ATOM     18  C   UNL     1      -7.101  -8.636  11.156  0.00  0.00    +0.010 C 
ENDROOT
BRANCH  13   4
ATOM      3  O   UNL     1      -8.423  -9.650   7.254  0.00  0.00    -0.276 OA
ATOM      4  N   UNL     1      -6.728  -8.399   8.243  0.00  0.00    -0.312 N 
ATOM     21  C   UNL     1      -7.835  -8.587   7.437  0.00  0.00    +0.216 C 
ATOM     31  H   UNL     1      -6.290  -7.483   8.281  0.00  0.00    +0.149 HD
BRANCH  21  23
ATOM     23  C   UNL     1      -8.290  -7.309   6.794  0.00  0.00    +0.075 C 
ATOM     26  C   UNL     1      -8.392  -6.199   7.843  0.00  0.00    +0.013 C 
ATOM     27  C   UNL     1      -9.597  -7.516   6.024  0.00  0.00    +0.013 C 
ATOM     28  C   UNL     1      -9.629  -6.325   8.731  0.00  0.00    +0.001 C 
ATOM     29  C   UNL     1     -10.826  -7.612   6.925  0.00  0.00    +0.001 C 
ATOM     30  C   UNL     1     -10.905  -6.447   7.905  0.00  0.00    +0.000 C 
ENDBRANCH  21  23
ENDBRANCH  13   4
BRANCH   9   1
ATOM      1  O   UNL     1      -5.932  -9.781  13.420  0.00  0.00    -0.391 OA
ATOM     32  H   UNL     1      -6.155 -10.649  13.797  0.00  0.00    +0.210 HD
ENDBRANCH   9   1
BRANCH  11  17
ATOM     17  C   UNL     1      -3.521 -10.728  14.808  0.00  0.00    +0.077 C 
ATOM     19  C   UNL     1      -2.011 -10.534  14.901  0.00  0.00    +0.017 C 
BRANCH  17  20
ATOM      2  O   UNL     1      -4.075 -13.001  15.449  0.00  0.00    -0.276 OA
ATOM      5  N   UNL     1      -4.269 -11.320  17.033  0.00  0.00    -0.312 N 
ATOM     20  C   UNL     1      -3.977 -11.819  15.771  0.00  0.00    +0.216 C 
ATOM     33  H   UNL     1      -4.167 -10.327  17.221  0.00  0.00    +0.149 HD
BRANCH   5  22
ATOM     22  C   UNL     1      -4.725 -12.157  18.106  0.00  0.00    +0.073 C 
ATOM     24  C   UNL     1      -5.209 -11.567  19.398  0.00  0.00    +0.024 C 
ATOM     25  C   UNL     1      -3.915 -12.326  19.357  0.00  0.00    +0.024 C 
ENDBRANCH   5  22
ENDBRANCH  17  20
ENDBRANCH  11  17
TORSDOF 6
ENDMDL
MODEL 3
REMARK VINA RESULT:      -6.7     28.240     30.823
REMARK  Name = 45361453
REMARK  9 active torsions:
REMARK  status: ('A' for Active; 'I' for Inactive)
REMARK    1  A    between atoms: O_1  and  C_9
REMARK    2  A    between atoms: N_4  and  C_13
REMARK    3  A    between atoms: N_5  and  C_22
REMARK    4  A    between atoms: C_6  and  C_16
REMARK    5  A    between atoms: C_8  and  C_18
REMARK    6  A    between atoms: C_11  and  C_17
REMARK    7  A    between atoms: C_17  and  C_19
REMARK    8  A    between atoms: C_17  and  C_20
REMARK    9  A    between atoms: C_21  and  C_23
REMARK                            x       y       z     vdW  Elec       q    Type
REMARK                         _______ _______ _______ _____ _____    ______ ____
ROOT
ATOM      6  C   UNL     1      13.397   8.124  20.895  0.00  0.00    -0.027 C 
ATOM      7  C   UNL     1      14.508   8.897  21.680  0.00  0.00    +0.028 C 
ATOM      8  C   UNL     1      14.095  10.396  21.906  0.00  0.00    +0.012 C 
ATOM      9  C   UNL     1      15.908   8.679  21.037  0.00  0.00    +0.122 C 
ATOM     10  C   UNL     1      13.783   6.631  20.789  0.00  0.00    +0.007 C 
ATOM     11  C   UNL     1      16.245   7.183  20.838  0.00  0.00    +0.029 C 
ATOM     12  C   UNL     1      12.069   8.214  21.682  0.00  0.00    +0.009 C 
ATOM     13  C   UNL     1      12.722  10.473  22.631  0.00  0.00    +0.076 C 
ATOM     14  C   UNL     1      15.136   6.412  20.124  0.00  0.00    +0.007 C 
ATOM     15  C   UNL     1      11.630   9.644  21.955  0.00  0.00    +0.023 C 
ATOM     16  C   UNL     1      13.181   8.685  19.466  0.00  0.00    +0.011 C 
ATOM     18  C   UNL     1      15.132  11.208  22.699  0.00  0.00    +0.010 C 
ENDROOT
BRANCH  13   4
ATOM      3  O   UNL     1      10.620  11.470  24.368  0.00  0.00    -0.276 OA
ATOM      4  N   UNL     1      12.254  11.837  22.752  0.00  0.00    -0.312 N 
ATOM     21  C   UNL     1      11.241  12.214  23.614  0.00  0.00    +0.216 C 
ATOM     31  H   UNL     1      12.666  12.531  22.134  0.00  0.00    +0.149 HD
BRANCH  21  23
ATOM     23  C   UNL     1      10.972  13.690  23.559  0.00  0.00    +0.075 C 
ATOM     26  C   UNL     1      12.288  14.461  23.427  0.00  0.00    +0.013 C 
ATOM     27  C   UNL     1      10.140  14.143  24.761  0.00  0.00    +0.013 C 
ATOM     28  C   UNL     1      13.071  14.538  24.736  0.00  0.00    +0.001 C 
ATOM     29  C   UNL     1      10.945  14.241  26.056  0.00  0.00    +0.001 C 
ATOM     30  C   UNL     1      12.210  15.072  25.876  0.00  0.00    +0.000 C 
ENDBRANCH  21  23
ENDBRANCH  13   4
BRANCH   9   1
ATOM      1  O   UNL     1      16.916   9.214  21.896  0.00  0.00    -0.391 OA
ATOM     32  H   UNL     1      17.511   8.489  22.153  0.00  0.00    +0.210 HD
ENDBRANCH   9   1
BRANCH  11  17
ATOM     17  C   UNL     1      17.568   6.993  20.086  0.00  0.00    +0.077 C 
ATOM     19  C   UNL     1      17.417   5.905  19.027  0.00  0.00    +0.017 C 
BRANCH  17  20
ATOM      2  O   UNL     1      18.592   6.742  22.271  0.00  0.00    -0.276 OA
ATOM      5  N   UNL     1      19.840   6.218  20.390  0.00  0.00    -0.312 N 
ATOM     20  C   UNL     1      18.697   6.644  21.050  0.00  0.00    +0.216 C 
ATOM     33  H   UNL     1      19.851   6.169  19.375  0.00  0.00    +0.149 HD
BRANCH   5  22
ATOM     22  C   UNL     1      21.038   5.842  21.086  0.00  0.00    +0.073 C 
ATOM     24  C   UNL     1      22.393   6.161  20.528  0.00  0.00    +0.024 C 
ATOM     25  C   UNL     1      21.918   4.739  20.577  0.00  0.00    +0.024 C 
ENDBRANCH   5  22
ENDBRANCH  17  20
ENDBRANCH  11  17
TORSDOF 6
ENDMDL
MODEL 4
REMARK VINA RESULT:      -6.6     23.780     25.758
REMARK  Name = 45361453
REMARK  9 active torsions:
REMARK  status: ('A' for Active; 'I' for Inactive)
REMARK    1  A    between atoms: O_1  and  C_9
REMARK    2  A    between atoms: N_4  and  C_13
REMARK    3  A    between atoms: N_5  and  C_22
REMARK    4  A    between atoms: C_6  and  C_16
REMARK    5  A    between atoms: C_8  and  C_18
REMARK    6  A    between atoms: C_11  and  C_17
REMARK    7  A    between atoms: C_17  and  C_19
REMARK    8  A    between atoms: C_17  and  C_20
REMARK    9  A    between atoms: C_21  and  C_23
REMARK                            x       y       z     vdW  Elec       q    Type
REMARK                         _______ _______ _______ _____ _____    ______ ____
ROOT
ATOM      6  C   UNL     1      13.664   5.035   0.875  0.00  0.00    -0.027 C 
ATOM      7  C   UNL     1      12.116   5.213   1.023  0.00  0.00    +0.028 C 
ATOM      8  C   UNL     1      11.708   5.328   2.536  0.00  0.00    +0.012 C 
ATOM      9  C   UNL     1      11.344   4.138   0.204  0.00  0.00    +0.122 C 
ATOM     10  C   UNL     1      14.042   5.037  -0.624  0.00  0.00    +0.007 C 
ATOM     11  C   UNL     1      11.801   4.075  -1.272  0.00  0.00    +0.029 C 
ATOM     12  C   UNL     1      14.374   6.235   1.543  0.00  0.00    +0.009 C 
ATOM     13  C   UNL     1      12.485   6.491   3.215  0.00  0.00    +0.076 C 
ATOM     14  C   UNL     1      13.317   3.961  -1.423  0.00  0.00    +0.007 C 
ATOM     15  C   UNL     1      13.997   6.415   3.006  0.00  0.00    +0.023 C 
ATOM     16  C   UNL     1      14.174   3.719   1.515  0.00  0.00    +0.011 C 
ATOM     18  C   UNL     1      10.199   5.534   2.754  0.00  0.00    +0.010 C 
ENDROOT
BRANCH  13   4
ATOM      3  O   UNL     1      11.500   8.765   4.729  0.00  0.00    -0.276 OA
ATOM      4  N   UNL     1      12.222   6.554   4.638  0.00  0.00    -0.312 N 
ATOM     21  C   UNL     1      11.750   7.690   5.269  0.00  0.00    +0.216 C 
ATOM     31  H   UNL     1      12.445   5.732   5.193  0.00  0.00    +0.149 HD
BRANCH  21  23
ATOM     23  C   UNL     1      11.541   7.474   6.740  0.00  0.00    +0.075 C 
ATOM     26  C   UNL     1      10.845   6.132   6.981  0.00  0.00    +0.013 C 
ATOM     27  C   UNL     1      10.789   8.651   7.366  0.00  0.00    +0.013 C 
ATOM     28  C   UNL     1       9.353   6.165   6.658  0.00  0.00    +0.001 C 
ATOM     29  C   UNL     1       9.293   8.652   7.056  0.00  0.00    +0.001 C 
ATOM     30  C   UNL     1       8.646   7.310   7.375  0.00  0.00    +0.000 C 
ENDBRANCH  21  23
ENDBRANCH  13   4
BRANCH   9   1
ATOM      1  O   UNL     1       9.953   4.460   0.187  0.00  0.00    -0.391 OA
ATOM     32  H   UNL     1       9.827   5.228  -0.396  0.00  0.00    +0.210 HD
ENDBRANCH   9   1
BRANCH  11  17
ATOM     17  C   UNL     1      11.124   2.925  -2.028  0.00  0.00    +0.077 C 
ATOM     19  C   UNL     1      12.172   1.929  -2.516  0.00  0.00    +0.017 C 
BRANCH  17  20
ATOM      2  O   UNL     1      10.462   3.067  -4.357  0.00  0.00    -0.276 OA
ATOM      5  N   UNL     1       9.383   4.413  -2.810  0.00  0.00    -0.312 N 
ATOM     20  C   UNL     1      10.305   3.453  -3.201  0.00  0.00    +0.216 C 
ATOM     33  H   UNL     1       9.316   4.684  -1.833  0.00  0.00    +0.149 HD
BRANCH   5  22
ATOM     22  C   UNL     1       8.502   5.061  -3.740  0.00  0.00    +0.073 C 
ATOM     24  C   UNL     1       8.816   6.422  -4.286  0.00  0.00    +0.024 C 
ATOM     25  C   UNL     1       7.673   6.241  -3.331  0.00  0.00    +0.024 C 
ENDBRANCH   5  22
ENDBRANCH  17  20
ENDBRANCH  11  17
TORSDOF 6
ENDMDL
MODEL 5
REMARK VINA RESULT:      -6.4     23.473     26.650
REMARK  Name = 45361453
REMARK  9 active torsions:
REMARK  status: ('A' for Active; 'I' for Inactive)
REMARK    1  A    between atoms: O_1  and  C_9
REMARK    2  A    between atoms: N_4  and  C_13
REMARK    3  A    between atoms: N_5  and  C_22
REMARK    4  A    between atoms: C_6  and  C_16
REMARK    5  A    between atoms: C_8  and  C_18
REMARK    6  A    between atoms: C_11  and  C_17
REMARK    7  A    between atoms: C_17  and  C_19
REMARK    8  A    between atoms: C_17  and  C_20
REMARK    9  A    between atoms: C_21  and  C_23
REMARK                            x       y       z     vdW  Elec       q    Type
REMARK                         _______ _______ _______ _____ _____    ______ ____
ROOT
ATOM      6  C   UNL     1       9.844   6.547   6.213  0.00  0.00    -0.027 C 
ATOM      7  C   UNL     1      10.480   7.455   5.107  0.00  0.00    +0.028 C 
ATOM      8  C   UNL     1      11.546   6.657   4.273  0.00  0.00    +0.012 C 
ATOM      9  C   UNL     1      10.972   8.806   5.701  0.00  0.00    +0.122 C 
ATOM     10  C   UNL     1       8.724   7.327   6.939  0.00  0.00    +0.007 C 
ATOM     11  C   UNL     1       9.875   9.532   6.515  0.00  0.00    +0.029 C 
ATOM     12  C   UNL     1       9.201   5.312   5.542  0.00  0.00    +0.009 C 
ATOM     13  C   UNL     1      10.905   5.377   3.666  0.00  0.00    +0.076 C 
ATOM     14  C   UNL     1       9.210   8.633   7.555  0.00  0.00    +0.007 C 
ATOM     15  C   UNL     1      10.180   4.512   4.696  0.00  0.00    +0.023 C 
ATOM     16  C   UNL     1      10.882   6.075   7.262  0.00  0.00    +0.011 C 
ATOM     18  C   UNL     1      12.191   7.482   3.148  0.00  0.00    +0.010 C 
ENDROOT
BRANCH  13   4
ATOM      3  O   UNL     1      10.708   4.228   1.006  0.00  0.00    -0.276 OA
ATOM      4  N   UNL     1      11.886   4.556   2.987  0.00  0.00    -0.312 N 
ATOM     21  C   UNL     1      11.698   4.054   1.712  0.00  0.00    +0.216 C 
ATOM     31  H   UNL     1      12.725   4.306   3.502  0.00  0.00    +0.149 HD
BRANCH  21  23
ATOM     23  C   UNL     1      12.879   3.258   1.238  0.00  0.00    +0.075 C 
ATOM     26  C   UNL     1      14.172   3.839   1.817  0.00  0.00    +0.013 C 
ATOM     27  C   UNL     1      12.903   3.167  -0.290  0.00  0.00    +0.013 C 
ATOM     28  C   UNL     1      14.615   5.124   1.121  0.00  0.00    +0.001 C 
ATOM     29  C   UNL     1      13.376   4.452  -0.968  0.00  0.00    +0.001 C 
ATOM     30  C   UNL     1      14.698   4.946  -0.391  0.00  0.00    +0.000 C 
ENDBRANCH  21  23
ENDBRANCH  13   4
BRANCH   9   1
ATOM      1  O   UNL     1      11.343   9.686   4.639  0.00  0.00    -0.391 OA
ATOM     32  H   UNL     1      10.748  10.455   4.661  0.00  0.00    +0.210 HD
ENDBRANCH   9   1
BRANCH  11  17
ATOM     17  C   UNL     1      10.416  10.794   7.199  0.00  0.00    +0.077 C 
ATOM     19  C   UNL     1      11.308  10.412   8.376  0.00  0.00    +0.017 C 
BRANCH  17  20
ATOM      2  O   UNL     1       8.516  12.270   6.891  0.00  0.00    -0.276 OA
ATOM      5  N   UNL     1       9.206  11.779   9.048  0.00  0.00    -0.312 N 
ATOM     20  C   UNL     1       9.275  11.691   7.665  0.00  0.00    +0.216 C 
ATOM     33  H   UNL     1       9.874  11.274   9.623  0.00  0.00    +0.149 HD
BRANCH   5  22
ATOM     22  C   UNL     1       8.217  12.573   9.722  0.00  0.00    +0.073 C 
ATOM     24  C   UNL     1       8.566  13.902  10.323  0.00  0.00    +0.024 C 
ATOM     25  C   UNL     1       8.239  12.739  11.212  0.00  0.00    +0.024 C 
ENDBRANCH   5  22
ENDBRANCH  17  20
ENDBRANCH  11  17
TORSDOF 6
ENDMDL
MODEL 6
REMARK VINA RESULT:      -6.4      3.008      5.478
REMARK  Name = 45361453
REMARK  9 active torsions:
REMARK  status: ('A' for Active; 'I' for Inactive)
REMARK    1  A    between atoms: O_1  and  C_9
REMARK    2  A    between atoms: N_4  and  C_13
REMARK    3  A    between atoms: N_5  and  C_22
REMARK    4  A    between atoms: C_6  and  C_16
REMARK    5  A    between atoms: C_8  and  C_18
REMARK    6  A    between atoms: C_11  and  C_17
REMARK    7  A    between atoms: C_17  and  C_19
REMARK    8  A    between atoms: C_17  and  C_20
REMARK    9  A    between atoms: C_21  and  C_23
REMARK                            x       y       z     vdW  Elec       q    Type
REMARK                         _______ _______ _______ _____ _____    ______ ____
ROOT
ATOM      6  C   UNL     1      -4.564 -11.274  17.239  0.00  0.00    -0.027 C 
ATOM      7  C   UNL     1      -5.573 -10.508  16.320  0.00  0.00    +0.028 C 
ATOM      8  C   UNL     1      -7.030 -10.584  16.902  0.00  0.00    +0.012 C 
ATOM      9  C   UNL     1      -5.424 -10.943  14.834  0.00  0.00    +0.122 C 
ATOM     10  C   UNL     1      -3.128 -11.084  16.700  0.00  0.00    +0.007 C 
ATOM     11  C   UNL     1      -3.965 -10.849  14.331  0.00  0.00    +0.029 C 
ATOM     12  C   UNL     1      -4.618 -10.669  18.661  0.00  0.00    +0.009 C 
ATOM     13  C   UNL     1      -7.057 -10.042  18.359  0.00  0.00    +0.076 C 
ATOM     14  C   UNL     1      -2.968 -11.546  15.256  0.00  0.00    +0.007 C 
ATOM     15  C   UNL     1      -6.013 -10.690  19.268  0.00  0.00    +0.023 C 
ATOM     16  C   UNL     1      -4.869 -12.791  17.320  0.00  0.00    +0.011 C 
ATOM     18  C   UNL     1      -8.070  -9.825  16.061  0.00  0.00    +0.010 C 
ENDROOT
BRANCH  13   4
ATOM      3  O   UNL     1      -8.413 -12.531  18.991  0.00  0.00    -0.276 OA
ATOM      4  N   UNL     1      -8.360 -10.204  18.969  0.00  0.00    -0.312 N 
ATOM     21  C   UNL     1      -8.922 -11.440  19.232  0.00  0.00    +0.216 C 
ATOM     31  H   UNL     1      -8.895  -9.362  19.163  0.00  0.00    +0.149 HD
BRANCH  21  23
ATOM     23  C   UNL     1     -10.267 -11.321  19.889  0.00  0.00    +0.075 C 
ATOM     26  C   UNL     1     -11.197 -12.429  19.391  0.00  0.00    +0.013 C 
ATOM     27  C   UNL     1     -10.854  -9.921  19.690  0.00  0.00    +0.013 C 
ATOM     28  C   UNL     1     -11.736 -12.172  17.985  0.00  0.00    +0.001 C 
ATOM     29  C   UNL     1     -11.414  -9.691  18.287  0.00  0.00    +0.001 C 
ATOM     30  C   UNL     1     -12.380 -10.794  17.873  0.00  0.00    +0.000 C 
ENDBRANCH  21  23
ENDBRANCH  13   4
BRANCH   9   1
ATOM      1  O   UNL     1      -6.199 -10.076  14.003  0.00  0.00    -0.391 OA
ATOM     32  H   UNL     1      -6.459 -10.573  13.208  0.00  0.00    +0.210 HD
ENDBRANCH   9   1
BRANCH  11  17
ATOM     17  C   UNL     1      -3.816 -11.404  12.909  0.00  0.00    +0.077 C 
ATOM     19  C   UNL     1      -2.777 -12.520  12.887  0.00  0.00    +0.017 C 
BRANCH  17  20
ATOM      2  O   UNL     1      -2.266  -9.985  11.698  0.00  0.00    -0.276 OA
ATOM      5  N   UNL     1      -4.540  -9.698  11.352  0.00  0.00    -0.312 N 
ATOM     20  C   UNL     1      -3.431 -10.300  11.931  0.00  0.00    +0.216 C 
ATOM     33  H   UNL     1      -5.474 -10.012  11.600  0.00  0.00    +0.149 HD
BRANCH   5  22
ATOM     22  C   UNL     1      -4.428  -8.627  10.404  0.00  0.00    +0.073 C 
ATOM     24  C   UNL     1      -5.607  -8.189   9.585  0.00  0.00    +0.024 C 
ATOM     25  C   UNL     1      -4.455  -8.890   8.927  0.00  0.00    +0.024 C 
ENDBRANCH   5  22
ENDBRANCH  17  20
ENDBRANCH  11  17
TORSDOF 6
ENDMDL
MODEL 7
REMARK VINA RESULT:      -6.2     25.647     30.567
REMARK  Name = 45361453
REMARK  9 active torsions:
REMARK  status: ('A' for Active; 'I' for Inactive)
REMARK    1  A    between atoms: O_1  and  C_9
REMARK    2  A    between atoms: N_4  and  C_13
REMARK    3  A    between atoms: N_5  and  C_22
REMARK    4  A    between atoms: C_6  and  C_16
REMARK    5  A    between atoms: C_8  and  C_18
REMARK    6  A    between atoms: C_11  and  C_17
REMARK    7  A    between atoms: C_17  and  C_19
REMARK    8  A    between atoms: C_17  and  C_20
REMARK    9  A    between atoms: C_21  and  C_23
REMARK                            x       y       z     vdW  Elec       q    Type
REMARK                         _______ _______ _______ _____ _____    ______ ____
ROOT
ATOM      6  C   UNL     1     -12.799   9.175  34.043  0.00  0.00    -0.027 C 
ATOM      7  C   UNL     1     -12.726   7.885  34.927  0.00  0.00    +0.028 C 
ATOM      8  C   UNL     1     -13.827   6.850  34.498  0.00  0.00    +0.012 C 
ATOM      9  C   UNL     1     -12.698   8.240  36.441  0.00  0.00    +0.122 C 
ATOM     10  C   UNL     1     -11.634  10.121  34.416  0.00  0.00    +0.007 C 
ATOM     11  C   UNL     1     -11.596   9.268  36.790  0.00  0.00    +0.029 C 
ATOM     12  C   UNL     1     -12.628   8.778  32.558  0.00  0.00    +0.009 C 
ATOM     13  C   UNL     1     -13.692   6.516  32.985  0.00  0.00    +0.076 C 
ATOM     14  C   UNL     1     -11.626  10.502  35.891  0.00  0.00    +0.007 C 
ATOM     15  C   UNL     1     -13.652   7.755  32.091  0.00  0.00    +0.023 C 
ATOM     16  C   UNL     1     -14.136   9.939  34.216  0.00  0.00    +0.011 C 
ATOM     18  C   UNL     1     -13.795   5.543  35.308  0.00  0.00    +0.010 C 
ENDROOT
BRANCH  13   4
ATOM      3  O   UNL     1     -13.461   3.813  31.951  0.00  0.00    -0.276 OA
ATOM      4  N   UNL     1     -14.762   5.654  32.527  0.00  0.00    -0.312 N 
ATOM     21  C   UNL     1     -14.548   4.374  32.050  0.00  0.00    +0.216 C 
ATOM     31  H   UNL     1     -15.702   6.040  32.516  0.00  0.00    +0.149 HD
BRANCH  21  23
ATOM     23  C   UNL     1     -15.830   3.693  31.666  0.00  0.00    +0.075 C 
ATOM     26  C   UNL     1     -15.532   2.394  30.914  0.00  0.00    +0.013 C 
ATOM     27  C   UNL     1     -16.740   4.638  30.877  0.00  0.00    +0.013 C 
ATOM     28  C   UNL     1     -15.090   2.626  29.471  0.00  0.00    +0.001 C 
ATOM     29  C   UNL     1     -16.300   4.836  29.427  0.00  0.00    +0.001 C 
ATOM     30  C   UNL     1     -16.079   3.507  28.714  0.00  0.00    +0.000 C 
ENDBRANCH  21  23
ENDBRANCH  13   4
BRANCH   9   1
ATOM      1  O   UNL     1     -12.415   7.064  37.201  0.00  0.00    -0.391 OA
ATOM     32  H   UNL     1     -11.914   6.451  36.636  0.00  0.00    +0.210 HD
ENDBRANCH   9   1
BRANCH  11  17
ATOM     17  C   UNL     1     -11.668   9.702  38.259  0.00  0.00    +0.077 C 
ATOM     19  C   UNL     1     -11.733  11.224  38.354  0.00  0.00    +0.017 C 
BRANCH  17  20
ATOM      2  O   UNL     1      -9.344   9.649  38.952  0.00  0.00    -0.276 OA
ATOM      5  N   UNL     1     -10.810   8.096  39.852  0.00  0.00    -0.312 N 
ATOM     20  C   UNL     1     -10.473   9.172  39.043  0.00  0.00    +0.216 C 
ATOM     33  H   UNL     1     -11.767   7.754  39.869  0.00  0.00    +0.149 HD
BRANCH   5  22
ATOM     22  C   UNL     1      -9.849   7.423  40.680  0.00  0.00    +0.073 C 
ATOM     24  C   UNL     1     -10.274   6.663  41.901  0.00  0.00    +0.024 C 
ATOM     25  C   UNL     1      -9.500   7.941  42.043  0.00  0.00    +0.024 C 
ENDBRANCH   5  22
ENDBRANCH  17  20
ENDBRANCH  11  17
TORSDOF 6
ENDMDL
MODEL 8
REMARK VINA RESULT:      -6.1     28.259     30.695
REMARK  Name = 45361453
REMARK  9 active torsions:
REMARK  status: ('A' for Active; 'I' for Inactive)
REMARK    1  A    between atoms: O_1  and  C_9
REMARK    2  A    between atoms: N_4  and  C_13
REMARK    3  A    between atoms: N_5  and  C_22
REMARK    4  A    between atoms: C_6  and  C_16
REMARK    5  A    between atoms: C_8  and  C_18
REMARK    6  A    between atoms: C_11  and  C_17
REMARK    7  A    between atoms: C_17  and  C_19
REMARK    8  A    between atoms: C_17  and  C_20
REMARK    9  A    between atoms: C_21  and  C_23
REMARK                            x       y       z     vdW  Elec       q    Type
REMARK                         _______ _______ _______ _____ _____    ______ ____
ROOT
ATOM      6  C   UNL     1      16.877  10.485  21.192  0.00  0.00    -0.027 C 
ATOM      7  C   UNL     1      16.729   8.948  20.936  0.00  0.00    +0.028 C 
ATOM      8  C   UNL     1      18.136   8.254  20.866  0.00  0.00    +0.012 C 
ATOM      9  C   UNL     1      15.785   8.667  19.731  0.00  0.00    +0.122 C 
ATOM     10  C   UNL     1      15.476  11.117  21.367  0.00  0.00    +0.007 C 
ATOM     11  C   UNL     1      14.422   9.386  19.863  0.00  0.00    +0.029 C 
ATOM     12  C   UNL     1      17.660  10.703  22.507  0.00  0.00    +0.009 C 
ATOM     13  C   UNL     1      18.943   8.543  22.163  0.00  0.00    +0.076 C 
ATOM     14  C   UNL     1      14.562  10.876  20.172  0.00  0.00    +0.007 C 
ATOM     15  C   UNL     1      19.024  10.029  22.510  0.00  0.00    +0.023 C 
ATOM     16  C   UNL     1      17.610  11.212  20.036  0.00  0.00    +0.011 C 
ATOM     18  C   UNL     1      18.063   6.734  20.644  0.00  0.00    +0.010 C 
ENDROOT
BRANCH  13   4
ATOM      3  O   UNL     1      20.153   6.534  23.875  0.00  0.00    -0.276 OA
ATOM      4  N   UNL     1      20.290   8.016  22.086  0.00  0.00    -0.312 N 
ATOM     21  C   UNL     1      20.775   7.054  22.953  0.00  0.00    +0.216 C 
ATOM     31  H   UNL     1      20.911   8.416  21.388  0.00  0.00    +0.149 HD
BRANCH  21  23
ATOM     23  C   UNL     1      22.191   6.669  22.635  0.00  0.00    +0.075 C 
ATOM     26  C   UNL     1      22.421   6.711  21.122  0.00  0.00    +0.013 C 
ATOM     27  C   UNL     1      22.543   5.312  23.249  0.00  0.00    +0.013 C 
ATOM     28  C   UNL     1      21.812   5.517  20.391  0.00  0.00    +0.001 C 
ATOM     29  C   UNL     1      21.949   4.128  22.489  0.00  0.00    +0.001 C 
ATOM     30  C   UNL     1      22.264   4.193  20.999  0.00  0.00    +0.000 C 
ENDBRANCH  21  23
ENDBRANCH  13   4
BRANCH   9   1
ATOM      1  O   UNL     1      15.503   7.268  19.663  0.00  0.00    -0.391 OA
ATOM     32  H   UNL     1      16.348   6.787  19.690  0.00  0.00    +0.210 HD
ENDBRANCH   9   1
BRANCH  11  17
ATOM     17  C   UNL     1      13.558   9.203  18.609  0.00  0.00    +0.077 C 
ATOM     19  C   UNL     1      13.255  10.558  17.978  0.00  0.00    +0.017 C 
BRANCH  17  20
ATOM      2  O   UNL     1      11.238   8.580  18.275  0.00  0.00    -0.276 OA
ATOM      5  N   UNL     1      12.383   7.681  20.078  0.00  0.00    -0.312 N 
ATOM     20  C   UNL     1      12.264   8.469  18.943  0.00  0.00    +0.216 C 
ATOM     33  H   UNL     1      13.265   7.645  20.581  0.00  0.00    +0.149 HD
BRANCH   5  22
ATOM     22  C   UNL     1      11.293   6.901  20.593  0.00  0.00    +0.073 C 
ATOM     24  C   UNL     1      10.613   7.270  21.878  0.00  0.00    +0.024 C 
ATOM     25  C   UNL     1      11.462   6.036  21.806  0.00  0.00    +0.024 C 
ENDBRANCH   5  22
ENDBRANCH  17  20
ENDBRANCH  11  17
TORSDOF 6
ENDMDL
MODEL 9
REMARK VINA RESULT:      -6.1     23.774     26.388
REMARK  Name = 45361453
REMARK  9 active torsions:
REMARK  status: ('A' for Active; 'I' for Inactive)
REMARK    1  A    between atoms: O_1  and  C_9
REMARK    2  A    between atoms: N_4  and  C_13
REMARK    3  A    between atoms: N_5  and  C_22
REMARK    4  A    between atoms: C_6  and  C_16
REMARK    5  A    between atoms: C_8  and  C_18
REMARK    6  A    between atoms: C_11  and  C_17
REMARK    7  A    between atoms: C_17  and  C_19
REMARK    8  A    between atoms: C_17  and  C_20
REMARK    9  A    between atoms: C_21  and  C_23
REMARK                            x       y       z     vdW  Elec       q    Type
REMARK                         _______ _______ _______ _____ _____    ______ ____
ROOT
ATOM      6  C   UNL     1       9.475   6.133   6.012  0.00  0.00    -0.027 C 
ATOM      7  C   UNL     1      10.501   7.192   5.484  0.00  0.00    +0.028 C 
ATOM      8  C   UNL     1      10.061   8.646   5.886  0.00  0.00    +0.012 C 
ATOM      9  C   UNL     1      10.803   6.980   3.973  0.00  0.00    +0.122 C 
ATOM     10  C   UNL     1       9.994   4.711   5.697  0.00  0.00    +0.007 C 
ATOM     11  C   UNL     1      11.221   5.527   3.649  0.00  0.00    +0.029 C 
ATOM     12  C   UNL     1       9.361   6.265   7.548  0.00  0.00    +0.009 C 
ATOM     13  C   UNL     1       9.876   8.745   7.427  0.00  0.00    +0.076 C 
ATOM     14  C   UNL     1      10.254   4.487   4.213  0.00  0.00    +0.007 C 
ATOM     15  C   UNL     1       8.963   7.662   8.001  0.00  0.00    +0.023 C 
ATOM     16  C   UNL     1       8.070   6.302   5.380  0.00  0.00    +0.011 C 
ATOM     18  C   UNL     1      11.042   9.736   5.424  0.00  0.00    +0.010 C 
ENDROOT
BRANCH  13   4
ATOM      3  O   UNL     1      11.159  10.709   9.139  0.00  0.00    -0.276 OA
ATOM      4  N   UNL     1       9.360  10.038   7.824  0.00  0.00    -0.312 N 
ATOM     21  C   UNL     1      10.051  10.907   8.647  0.00  0.00    +0.216 C 
ATOM     31  H   UNL     1       8.423  10.283   7.515  0.00  0.00    +0.149 HD
BRANCH  21  23
ATOM     23  C   UNL     1       9.299  12.186   8.878  0.00  0.00    +0.075 C 
ATOM     26  C   UNL     1       8.665  12.668   7.571  0.00  0.00    +0.013 C 
ATOM     27  C   UNL     1      10.197  13.243   9.525  0.00  0.00    +0.013 C 
ATOM     28  C   UNL     1       9.674  13.301   6.614  0.00  0.00    +0.001 C 
ATOM     29  C   UNL     1      11.180  13.886   8.548  0.00  0.00    +0.001 C 
ATOM     30  C   UNL     1      10.481  14.401   7.295  0.00  0.00    +0.000 C 
ENDBRANCH  21  23
ENDBRANCH  13   4
BRANCH   9   1
ATOM      1  O   UNL     1      11.893   7.816   3.583  0.00  0.00    -0.391 OA
ATOM     32  H   UNL     1      11.963   8.542   4.226  0.00  0.00    +0.210 HD
ENDBRANCH   9   1
BRANCH  11  17
ATOM     17  C   UNL     1      11.388   5.306   2.140  0.00  0.00    +0.077 C 
ATOM     19  C   UNL     1      10.161   4.597   1.575  0.00  0.00    +0.017 C 
BRANCH  17  20
ATOM      2  O   UNL     1      12.707   3.279   1.947  0.00  0.00    -0.276 OA
ATOM      5  N   UNL     1      13.709   5.311   1.457  0.00  0.00    -0.312 N 
ATOM     20  C   UNL     1      12.650   4.503   1.844  0.00  0.00    +0.216 C 
ATOM     33  H   UNL     1      13.585   6.318   1.400  0.00  0.00    +0.149 HD
BRANCH   5  22
ATOM     22  C   UNL     1      15.004   4.782   1.133  0.00  0.00    +0.073 C 
ATOM     24  C   UNL     1      15.915   5.492   0.176  0.00  0.00    +0.024 C 
ATOM     25  C   UNL     1      15.285   4.187  -0.214  0.00  0.00    +0.024 C 
ENDBRANCH   5  22
ENDBRANCH  17  20
ENDBRANCH  11  17
TORSDOF 6
ENDMDL
MODEL 10
REMARK VINA RESULT:      -6.1     21.571     25.783
REMARK  Name = 45361453
REMARK  9 active torsions:
REMARK  status: ('A' for Active; 'I' for Inactive)
REMARK    1  A    between atoms: O_1  and  C_9
REMARK    2  A    between atoms: N_4  and  C_13
REMARK    3  A    between atoms: N_5  and  C_22
REMARK    4  A    between atoms: C_6  and  C_16
REMARK    5  A    between atoms: C_8  and  C_18
REMARK    6  A    between atoms: C_11  and  C_17
REMARK    7  A    between atoms: C_17  and  C_19
REMARK    8  A    between atoms: C_17  and  C_20
REMARK    9  A    between atoms: C_21  and  C_23
REMARK                            x       y       z     vdW  Elec       q    Type
REMARK                         _______ _______ _______ _____ _____    ______ ____
ROOT
ATOM      6  C   UNL     1     -14.979   1.753  30.915  0.00  0.00    -0.027 C 
ATOM      7  C   UNL     1     -15.653   3.118  30.551  0.00  0.00    +0.028 C 
ATOM      8  C   UNL     1     -15.714   3.314  28.993  0.00  0.00    +0.012 C 
ATOM      9  C   UNL     1     -15.013   4.292  31.346  0.00  0.00    +0.122 C 
ATOM     10  C   UNL     1     -15.037   1.542  32.446  0.00  0.00    +0.007 C 
ATOM     11  C   UNL     1     -14.978   4.029  32.870  0.00  0.00    +0.029 C 
ATOM     12  C   UNL     1     -15.775   0.606  30.250  0.00  0.00    +0.009 C 
ATOM     13  C   UNL     1     -16.451   2.117  28.329  0.00  0.00    +0.076 C 
ATOM     14  C   UNL     1     -14.376   2.671  33.227  0.00  0.00    +0.007 C 
ATOM     15  C   UNL     1     -15.893   0.755  28.741  0.00  0.00    +0.023 C 
ATOM     16  C   UNL     1     -13.501   1.679  30.457  0.00  0.00    +0.011 C 
ATOM     18  C   UNL     1     -16.391   4.626  28.563  0.00  0.00    +0.010 C 
ENDROOT
BRANCH  13   4
ATOM      3  O   UNL     1     -18.703   1.907  26.508  0.00  0.00    -0.276 OA
ATOM      4  N   UNL     1     -16.426   2.205  26.884  0.00  0.00    -0.312 N 
ATOM     21  C   UNL     1     -17.559   2.092  26.100  0.00  0.00    +0.216 C 
ATOM     31  H   UNL     1     -15.519   2.306  26.436  0.00  0.00    +0.149 HD
BRANCH  21  23
ATOM     23  C   UNL     1     -17.254   2.247  24.639  0.00  0.00    +0.075 C 
ATOM     26  C   UNL     1     -16.002   3.107  24.450  0.00  0.00    +0.013 C 
ATOM     27  C   UNL     1     -18.465   2.791  23.879  0.00  0.00    +0.013 C 
ATOM     28  C   UNL     1     -16.260   4.596  24.670  0.00  0.00    +0.001 C 
ATOM     29  C   UNL     1     -18.692   4.287  24.087  0.00  0.00    +0.001 C 
ATOM     30  C   UNL     1     -17.427   5.096  23.824  0.00  0.00    +0.000 C 
ENDBRANCH  21  23
ENDBRANCH  13   4
BRANCH   9   1
ATOM      1  O   UNL     1     -15.787   5.477  31.154  0.00  0.00    -0.391 OA
ATOM     32  H   UNL     1     -16.049   5.813  32.029  0.00  0.00    +0.210 HD
ENDBRANCH   9   1
BRANCH  11  17
ATOM     17  C   UNL     1     -14.229   5.135  33.622  0.00  0.00    +0.077 C 
ATOM     19  C   UNL     1     -14.175   4.813  35.112  0.00  0.00    +0.017 C 
BRANCH  17  20
ATOM      2  O   UNL     1     -16.038   6.746  33.746  0.00  0.00    -0.276 OA
ATOM      5  N   UNL     1     -14.047   7.384  32.746  0.00  0.00    -0.312 N 
ATOM     20  C   UNL     1     -14.888   6.491  33.395  0.00  0.00    +0.216 C 
ATOM     33  H   UNL     1     -13.109   7.096  32.482  0.00  0.00    +0.149 HD
BRANCH   5  22
ATOM     22  C   UNL     1     -14.449   8.722  32.417  0.00  0.00    +0.073 C 
ATOM     24  C   UNL     1     -15.172   9.022  31.137  0.00  0.00    +0.024 C 
ATOM     25  C   UNL     1     -13.761   9.494  31.331  0.00  0.00    +0.024 C 
ENDBRANCH   5  22
ENDBRANCH  17  20
ENDBRANCH  11  17
TORSDOF 6
ENDMDL
