MODEL 1
REMARK VINA RESULT:      -8.1      0.000      0.000
REMARK  Name = 40777169
REMARK  8 active torsions:
REMARK  status: ('A' for Active; 'I' for Inactive)
REMARK    1  A    between atoms: S_1  and  N_8
REMARK    2  A    between atoms: S_1  and  C_23
REMARK    3  A    between atoms: N_8  and  C_18
REMARK    4  A    between atoms: C_12  and  C_19
REMARK    5  A    between atoms: C_13  and  C_18
REMARK    6  A    between atoms: C_21  and  C_24
REMARK    7  A    between atoms: C_22  and  C_25
REMARK    8  A    between atoms: C_30  and  C_31
REMARK                            x       y       z     vdW  Elec       q    Type
REMARK                         _______ _______ _______ _____ _____    ______ ____
ROOT
ATOM      9  N   UNL     1      15.136   9.955  21.031  0.00  0.00    -0.237 NA
ATOM     10  N   UNL     1      17.473   9.388  20.862  0.00  0.00    -0.232 NA
ATOM     19  C   UNL     1      14.870   8.645  21.215  0.00  0.00    +0.050 A 
ATOM     20  C   UNL     1      15.838   7.661  21.235  0.00  0.00    +0.052 A 
ATOM     21  C   UNL     1      17.135   8.096  21.052  0.00  0.00    +0.075 A 
ATOM     22  C   UNL     1      16.440  10.252  20.863  0.00  0.00    +0.127 A 
ATOM     25  C   UNL     1      16.773  11.690  20.655  0.00  0.00    +0.088 C 
ENDROOT
BRANCH  19  12
ATOM      7  N   UNL     1      11.199   8.787  20.309  0.00  0.00    -0.297 NA
ATOM     11  C   UNL     1      12.923   6.907  20.831  0.00  0.00    +0.002 C 
ATOM     12  C   UNL     1      13.410   8.265  21.407  0.00  0.00    +0.055 C 
ATOM     13  C   UNL     1      11.517   8.031  19.069  0.00  0.00    +0.072 C 
ATOM     14  C   UNL     1      12.685   7.052  19.313  0.00  0.00    +0.024 C 
ATOM     15  C   UNL     1      11.552   6.614  21.479  0.00  0.00    +0.019 C 
ATOM     16  C   UNL     1      12.440   9.363  20.885  0.00  0.00    +0.094 C 
ATOM     17  C   UNL     1      10.633   7.832  21.291  0.00  0.00    +0.085 C 
BRANCH  13  18
ATOM     18  C   UNL     1      11.785   8.952  17.876  0.00  0.00    +0.124 C 
BRANCH  18   8
ATOM      8  N   UNL     1      12.567   8.285  16.882  0.00  0.00    -0.193 NA
ATOM     32  H   UNL     1      12.154   7.412  16.530  0.00  0.00    +0.148 HD
BRANCH   8   1
ATOM      1  S   UNL     1      13.474   9.194  15.724  0.00  0.00    +0.027 S 
ATOM      5  O   UNL     1      12.574  10.081  15.013  0.00  0.00    -0.158 OA
ATOM      6  O   UNL     1      14.372   8.314  15.003  0.00  0.00    -0.158 OA
ATOM     23  C   UNL     1      14.467  10.185  16.817  0.00  0.00    +0.214 C 
ENDBRANCH   8   1
ENDBRANCH  18   8
ENDBRANCH  13  18
ENDBRANCH  19  12
BRANCH  21  24
ATOM     24  C   UNL     1      18.239   7.165  21.050  0.00  0.00    +0.000 A 
ATOM     26  C   UNL     1      18.285   6.142  20.103  0.00  0.00    +0.010 A 
ATOM     27  C   UNL     1      19.258   7.290  21.993  0.00  0.00    +0.010 A 
ATOM     28  C   UNL     1      19.352   5.242  20.100  0.00  0.00    +0.013 A 
ATOM     29  C   UNL     1      20.325   6.390  21.991  0.00  0.00    +0.013 A 
ATOM     30  C   UNL     1      20.371   5.367  21.044  0.00  0.00    +0.055 A 
BRANCH  30  31
ATOM      2  F   UNL     1      22.470   4.731  20.126  0.00  0.00    -0.166 F 
ATOM      3  F   UNL     1      22.162   4.324  22.239  0.00  0.00    -0.166 F 
ATOM      4  F   UNL     1      21.145   3.123  20.746  0.00  0.00    -0.166 F 
ATOM     31  C   UNL     1      21.511   4.406  21.041  0.00  0.00    +0.417 C 
ENDBRANCH  30  31
ENDBRANCH  21  24
TORSDOF 6
ENDMDL
MODEL 2
REMARK VINA RESULT:      -8.0      3.033      4.334
REMARK  Name = 40777169
REMARK  8 active torsions:
REMARK  status: ('A' for Active; 'I' for Inactive)
REMARK    1  A    between atoms: S_1  and  N_8
REMARK    2  A    between atoms: S_1  and  C_23
REMARK    3  A    between atoms: N_8  and  C_18
REMARK    4  A    between atoms: C_12  and  C_19
REMARK    5  A    between atoms: C_13  and  C_18
REMARK    6  A    between atoms: C_21  and  C_24
REMARK    7  A    between atoms: C_22  and  C_25
REMARK    8  A    between atoms: C_30  and  C_31
REMARK                            x       y       z     vdW  Elec       q    Type
REMARK                         _______ _______ _______ _____ _____    ______ ____
ROOT
ATOM      9  N   UNL     1      13.457   9.382  19.149  0.00  0.00    -0.237 NA
ATOM     10  N   UNL     1      14.953   7.516  18.853  0.00  0.00    -0.232 NA
ATOM     19  C   UNL     1      14.337   9.900  20.031  0.00  0.00    +0.050 A 
ATOM     20  C   UNL     1      15.530   9.294  20.369  0.00  0.00    +0.052 A 
ATOM     21  C   UNL     1      15.788   8.092  19.742  0.00  0.00    +0.075 A 
ATOM     22  C   UNL     1      13.822   8.205  18.606  0.00  0.00    +0.127 A 
ATOM     25  C   UNL     1      12.873   7.600  17.628  0.00  0.00    +0.088 C 
ENDROOT
BRANCH  19  12
ATOM      7  N   UNL     1      11.917  12.271  21.716  0.00  0.00    -0.297 NA
ATOM     11  C   UNL     1      14.354  11.465  22.155  0.00  0.00    +0.002 C 
ATOM     12  C   UNL     1      13.963  11.229  20.670  0.00  0.00    +0.055 C 
ATOM     13  C   UNL     1      11.953  11.392  22.915  0.00  0.00    +0.072 C 
ATOM     14  C   UNL     1      13.344  10.740  23.070  0.00  0.00    +0.024 C 
ATOM     15  C   UNL     1      14.202  12.978  22.420  0.00  0.00    +0.019 C 
ATOM     16  C   UNL     1      12.446  11.543  20.535  0.00  0.00    +0.094 C 
ATOM     17  C   UNL     1      12.801  13.431  21.977  0.00  0.00    +0.085 C 
BRANCH  13  18
ATOM     18  C   UNL     1      10.833  10.349  22.908  0.00  0.00    +0.124 C 
BRANCH  18   8
ATOM      8  N   UNL     1      11.369   9.024  22.933  0.00  0.00    -0.193 NA
ATOM     32  H   UNL     1      11.526   8.646  23.876  0.00  0.00    +0.148 HD
BRANCH   8   1
ATOM      1  S   UNL     1      10.897   7.865  21.740  0.00  0.00    +0.027 S 
ATOM      5  O   UNL     1      10.637   8.555  20.491  0.00  0.00    -0.158 OA
ATOM      6  O   UNL     1       9.920   6.952  22.301  0.00  0.00    -0.158 OA
ATOM     23  C   UNL     1      12.421   6.966  21.560  0.00  0.00    +0.214 C 
ENDBRANCH   8   1
ENDBRANCH  18   8
ENDBRANCH  13  18
ENDBRANCH  19  12
BRANCH  21  24
ATOM     24  C   UNL     1      17.000   7.356  20.012  0.00  0.00    +0.000 A 
ATOM     26  C   UNL     1      17.901   7.824  20.968  0.00  0.00    +0.010 A 
ATOM     27  C   UNL     1      17.270   6.177  19.317  0.00  0.00    +0.010 A 
ATOM     28  C   UNL     1      19.074   7.114  21.229  0.00  0.00    +0.013 A 
ATOM     29  C   UNL     1      18.443   5.467  19.577  0.00  0.00    +0.013 A 
ATOM     30  C   UNL     1      19.343   5.935  20.533  0.00  0.00    +0.055 A 
BRANCH  30  31
ATOM      2  F   UNL     1      21.679   5.690  20.159  0.00  0.00    -0.166 F 
ATOM      3  F   UNL     1      20.941   5.154  22.132  0.00  0.00    -0.166 F 
ATOM      4  F   UNL     1      20.534   3.863  20.438  0.00  0.00    -0.166 F 
ATOM     31  C   UNL     1      20.596   5.175  20.812  0.00  0.00    +0.417 C 
ENDBRANCH  30  31
ENDBRANCH  21  24
TORSDOF 6
ENDMDL
MODEL 3
REMARK VINA RESULT:      -7.0     14.631     17.953
REMARK  Name = 40777169
REMARK  8 active torsions:
REMARK  status: ('A' for Active; 'I' for Inactive)
REMARK    1  A    between atoms: S_1  and  N_8
REMARK    2  A    between atoms: S_1  and  C_23
REMARK    3  A    between atoms: N_8  and  C_18
REMARK    4  A    between atoms: C_12  and  C_19
REMARK    5  A    between atoms: C_13  and  C_18
REMARK    6  A    between atoms: C_21  and  C_24
REMARK    7  A    between atoms: C_22  and  C_25
REMARK    8  A    between atoms: C_30  and  C_31
REMARK                            x       y       z     vdW  Elec       q    Type
REMARK                         _______ _______ _______ _____ _____    ______ ____
ROOT
ATOM      9  N   UNL     1       9.358   7.492   1.584  0.00  0.00    -0.237 NA
ATOM     10  N   UNL     1       8.658   7.644   3.885  0.00  0.00    -0.232 NA
ATOM     19  C   UNL     1      10.122   6.434   1.926  0.00  0.00    +0.050 A 
ATOM     20  C   UNL     1      10.205   5.929   3.208  0.00  0.00    +0.052 A 
ATOM     21  C   UNL     1       9.443   6.581   4.156  0.00  0.00    +0.075 A 
ATOM     22  C   UNL     1       8.662   8.041   2.599  0.00  0.00    +0.127 A 
ATOM     25  C   UNL     1       7.807   9.214   2.261  0.00  0.00    +0.088 C 
ENDROOT
BRANCH  19  12
ATOM      7  N   UNL     1      13.243   5.990  -0.168  0.00  0.00    -0.297 NA
ATOM     11  C   UNL     1      11.601   4.413   1.094  0.00  0.00    +0.002 C 
ATOM     12  C   UNL     1      10.927   5.783   0.810  0.00  0.00    +0.055 C 
ATOM     13  C   UNL     1      13.913   5.410   1.026  0.00  0.00    +0.072 C 
ATOM     14  C   UNL     1      12.899   4.640   1.898  0.00  0.00    +0.024 C 
ATOM     15  C   UNL     1      12.011   3.825  -0.273  0.00  0.00    +0.019 C 
ATOM     16  C   UNL     1      12.023   6.729   0.243  0.00  0.00    +0.094 C 
ATOM     17  C   UNL     1      12.832   4.871  -1.047  0.00  0.00    +0.085 C 
BRANCH  13  18
ATOM     18  C   UNL     1      14.678   6.461   1.834  0.00  0.00    +0.124 C 
BRANCH  18   8
ATOM      8  N   UNL     1      14.496   6.256   3.238  0.00  0.00    -0.193 NA
ATOM     32  H   UNL     1      15.182   5.622   3.667  0.00  0.00    +0.148 HD
BRANCH   8   1
ATOM      1  S   UNL     1      13.947   7.546   4.248  0.00  0.00    +0.027 S 
ATOM      5  O   UNL     1      15.095   8.290   4.728  0.00  0.00    -0.158 OA
ATOM      6  O   UNL     1      12.943   7.053   5.172  0.00  0.00    -0.158 OA
ATOM     23  C   UNL     1      13.110   8.550   3.042  0.00  0.00    +0.214 C 
ENDBRANCH   8   1
ENDBRANCH  18   8
ENDBRANCH  13  18
ENDBRANCH  19  12
BRANCH  21  24
ATOM     24  C   UNL     1       9.444   6.153   5.535  0.00  0.00    +0.000 A 
ATOM     26  C   UNL     1       9.031   7.030   6.536  0.00  0.00    +0.010 A 
ATOM     27  C   UNL     1       9.857   4.862   5.864  0.00  0.00    +0.010 A 
ATOM     28  C   UNL     1       9.032   6.618   7.870  0.00  0.00    +0.013 A 
ATOM     29  C   UNL     1       9.858   4.449   7.197  0.00  0.00    +0.013 A 
ATOM     30  C   UNL     1       9.446   5.327   8.199  0.00  0.00    +0.055 A 
BRANCH  30  31
ATOM      2  F   UNL     1      10.481   5.416  10.338  0.00  0.00    -0.166 F 
ATOM      3  F   UNL     1       8.315   5.232  10.305  0.00  0.00    -0.166 F 
ATOM      4  F   UNL     1       9.553   3.532   9.776  0.00  0.00    -0.166 F 
ATOM     31  C   UNL     1       9.446   4.885   9.623  0.00  0.00    +0.417 C 
ENDBRANCH  30  31
ENDBRANCH  21  24
TORSDOF 6
ENDMDL
MODEL 4
REMARK VINA RESULT:      -7.0     26.823     29.570
REMARK  Name = 40777169
REMARK  8 active torsions:
REMARK  status: ('A' for Active; 'I' for Inactive)
REMARK    1  A    between atoms: S_1  and  N_8
REMARK    2  A    between atoms: S_1  and  C_23
REMARK    3  A    between atoms: N_8  and  C_18
REMARK    4  A    between atoms: C_12  and  C_19
REMARK    5  A    between atoms: C_13  and  C_18
REMARK    6  A    between atoms: C_21  and  C_24
REMARK    7  A    between atoms: C_22  and  C_25
REMARK    8  A    between atoms: C_30  and  C_31
REMARK                            x       y       z     vdW  Elec       q    Type
REMARK                         _______ _______ _______ _____ _____    ______ ____
ROOT
ATOM      9  N   UNL     1      -3.086 -10.542  16.356  0.00  0.00    -0.237 NA
ATOM     10  N   UNL     1      -2.477 -10.670  14.028  0.00  0.00    -0.232 NA
ATOM     19  C   UNL     1      -4.380 -10.501  15.977  0.00  0.00    +0.050 A 
ATOM     20  C   UNL     1      -4.795 -10.540  14.662  0.00  0.00    +0.052 A 
ATOM     21  C   UNL     1      -3.790 -10.625  13.721  0.00  0.00    +0.075 A 
ATOM     22  C   UNL     1      -2.200 -10.625  15.345  0.00  0.00    +0.127 A 
ATOM     25  C   UNL     1      -0.759 -10.671  15.725  0.00  0.00    +0.088 C 
ENDROOT
BRANCH  19  12
ATOM      7  N   UNL     1      -7.497 -11.645  17.792  0.00  0.00    -0.297 NA
ATOM     11  C   UNL     1      -5.064 -11.016  18.473  0.00  0.00    +0.002 C 
ATOM     12  C   UNL     1      -5.415 -10.406  17.088  0.00  0.00    +0.055 C 
ATOM     13  C   UNL     1      -6.756 -12.864  18.213  0.00  0.00    +0.072 C 
ATOM     14  C   UNL     1      -5.260 -12.546  18.421  0.00  0.00    +0.024 C 
ATOM     15  C   UNL     1      -6.094 -10.461  19.479  0.00  0.00    +0.019 C 
ATOM     16  C   UNL     1      -6.794 -10.987  16.663  0.00  0.00    +0.094 C 
ATOM     17  C   UNL     1      -7.513 -10.705  18.938  0.00  0.00    +0.085 C 
BRANCH  13  18
ATOM     18  C   UNL     1      -6.961 -14.034  17.248  0.00  0.00    +0.124 C 
BRANCH  18   8
ATOM      8  N   UNL     1      -5.706 -14.563  16.813  0.00  0.00    -0.193 NA
ATOM     32  H   UNL     1      -5.435 -15.444  17.268  0.00  0.00    +0.148 HD
BRANCH   8   1
ATOM      1  S   UNL     1      -5.208 -14.396  15.166  0.00  0.00    +0.027 S 
ATOM      5  O   UNL     1      -3.841 -13.913  15.134  0.00  0.00    -0.158 OA
ATOM      6  O   UNL     1      -6.247 -13.732  14.404  0.00  0.00    -0.158 OA
ATOM     23  C   UNL     1      -5.196 -16.104  14.671  0.00  0.00    +0.214 C 
ENDBRANCH   8   1
ENDBRANCH  18   8
ENDBRANCH  13  18
ENDBRANCH  19  12
BRANCH  21  24
ATOM     24  C   UNL     1      -4.092 -10.671  12.309  0.00  0.00    +0.000 A 
ATOM     26  C   UNL     1      -3.291  -9.977  11.403  0.00  0.00    +0.010 A 
ATOM     27  C   UNL     1      -5.185 -11.407  11.853  0.00  0.00    +0.010 A 
ATOM     28  C   UNL     1      -3.582 -10.020  10.039  0.00  0.00    +0.013 A 
ATOM     29  C   UNL     1      -5.477 -11.450  10.489  0.00  0.00    +0.013 A 
ATOM     30  C   UNL     1      -4.675 -10.757   9.583  0.00  0.00    +0.055 A 
BRANCH  30  31
ATOM      2  F   UNL     1      -4.890  -9.579   7.528  0.00  0.00    -0.166 F 
ATOM      3  F   UNL     1      -4.159 -11.624   7.414  0.00  0.00    -0.166 F 
ATOM      4  F   UNL     1      -6.249 -11.245   7.850  0.00  0.00    -0.166 F 
ATOM     31  C   UNL     1      -4.987 -10.803   8.125  0.00  0.00    +0.417 C 
ENDBRANCH  30  31
ENDBRANCH  21  24
TORSDOF 6
ENDMDL
MODEL 5
REMARK VINA RESULT:      -7.0     15.949     18.673
REMARK  Name = 40777169
REMARK  8 active torsions:
REMARK  status: ('A' for Active; 'I' for Inactive)
REMARK    1  A    between atoms: S_1  and  N_8
REMARK    2  A    between atoms: S_1  and  C_23
REMARK    3  A    between atoms: N_8  and  C_18
REMARK    4  A    between atoms: C_12  and  C_19
REMARK    5  A    between atoms: C_13  and  C_18
REMARK    6  A    between atoms: C_21  and  C_24
REMARK    7  A    between atoms: C_22  and  C_25
REMARK    8  A    between atoms: C_30  and  C_31
REMARK                            x       y       z     vdW  Elec       q    Type
REMARK                         _______ _______ _______ _____ _____    ______ ____
ROOT
ATOM      9  N   UNL     1      12.190   7.684   4.225  0.00  0.00    -0.237 NA
ATOM     10  N   UNL     1      12.602   7.124   1.918  0.00  0.00    -0.232 NA
ATOM     19  C   UNL     1      11.641   6.462   4.385  0.00  0.00    +0.050 A 
ATOM     20  C   UNL     1      11.538   5.529   3.373  0.00  0.00    +0.052 A 
ATOM     21  C   UNL     1      12.040   5.919   2.148  0.00  0.00    +0.075 A 
ATOM     22  C   UNL     1      12.644   7.945   2.984  0.00  0.00    +0.127 A 
ATOM     25  C   UNL     1      13.256   9.287   2.768  0.00  0.00    +0.088 C 
ENDROOT
BRANCH  19  12
ATOM      7  N   UNL     1       9.648   7.214   7.512  0.00  0.00    -0.297 NA
ATOM     11  C   UNL     1       9.873   5.198   5.881  0.00  0.00    +0.002 C 
ATOM     12  C   UNL     1      11.115   6.125   5.772  0.00  0.00    +0.055 C 
ATOM     13  C   UNL     1       8.406   7.072   6.707  0.00  0.00    +0.072 C 
ATOM     14  C   UNL     1       8.597   6.018   5.595  0.00  0.00    +0.024 C 
ATOM     15  C   UNL     1       9.793   4.730   7.350  0.00  0.00    +0.019 C 
ATOM     16  C   UNL     1      10.817   7.397   6.616  0.00  0.00    +0.094 C 
ATOM     17  C   UNL     1       9.842   5.959   8.275  0.00  0.00    +0.085 C 
BRANCH  13  18
ATOM     18  C   UNL     1       7.917   8.409   6.146  0.00  0.00    +0.124 C 
BRANCH  18   8
ATOM      8  N   UNL     1       7.559   8.284   4.767  0.00  0.00    -0.193 NA
ATOM     32  H   UNL     1       6.548   8.313   4.586  0.00  0.00    +0.148 HD
BRANCH   8   1
ATOM      1  S   UNL     1       8.553   8.982   3.537  0.00  0.00    +0.027 S 
ATOM      5  O   UNL     1       8.912   7.952   2.582  0.00  0.00    -0.158 OA
ATOM      6  O   UNL     1       9.569   9.820   4.143  0.00  0.00    -0.158 OA
ATOM     23  C   UNL     1       7.372  10.060   2.759  0.00  0.00    +0.214 C 
ENDBRANCH   8   1
ENDBRANCH  18   8
ENDBRANCH  13  18
ENDBRANCH  19  12
BRANCH  21  24
ATOM     24  C   UNL     1      11.991   5.035   1.007  0.00  0.00    +0.000 A 
ATOM     26  C   UNL     1      12.970   4.057   0.841  0.00  0.00    +0.010 A 
ATOM     27  C   UNL     1      10.964   5.161   0.072  0.00  0.00    +0.010 A 
ATOM     28  C   UNL     1      12.923   3.203  -0.262  0.00  0.00    +0.013 A 
ATOM     29  C   UNL     1      10.917   4.308  -1.031  0.00  0.00    +0.013 A 
ATOM     30  C   UNL     1      11.896   3.329  -1.197  0.00  0.00    +0.055 A 
BRANCH  30  31
ATOM      2  F   UNL     1      12.042   1.109  -2.037  0.00  0.00    -0.166 F 
ATOM      3  F   UNL     1      10.653   2.447  -3.041  0.00  0.00    -0.166 F 
ATOM      4  F   UNL     1      12.789   2.694  -3.323  0.00  0.00    -0.166 F 
ATOM     31  C   UNL     1      11.845   2.417  -2.376  0.00  0.00    +0.417 C 
ENDBRANCH  30  31
ENDBRANCH  21  24
TORSDOF 6
ENDMDL
MODEL 6
REMARK VINA RESULT:      -6.8     15.307     18.402
REMARK  Name = 40777169
REMARK  8 active torsions:
REMARK  status: ('A' for Active; 'I' for Inactive)
REMARK    1  A    between atoms: S_1  and  N_8
REMARK    2  A    between atoms: S_1  and  C_23
REMARK    3  A    between atoms: N_8  and  C_18
REMARK    4  A    between atoms: C_12  and  C_19
REMARK    5  A    between atoms: C_13  and  C_18
REMARK    6  A    between atoms: C_21  and  C_24
REMARK    7  A    between atoms: C_22  and  C_25
REMARK    8  A    between atoms: C_30  and  C_31
REMARK                            x       y       z     vdW  Elec       q    Type
REMARK                         _______ _______ _______ _____ _____    ______ ____
ROOT
ATOM      9  N   UNL     1      12.587   7.296   1.636  0.00  0.00    -0.237 NA
ATOM     10  N   UNL     1      11.947   7.754   3.914  0.00  0.00    -0.232 NA
ATOM     19  C   UNL     1      12.208   6.015   1.827  0.00  0.00    +0.050 A 
ATOM     20  C   UNL     1      11.696   5.536   3.015  0.00  0.00    +0.052 A 
ATOM     21  C   UNL     1      11.587   6.460   4.034  0.00  0.00    +0.075 A 
ATOM     22  C   UNL     1      12.432   8.100   2.706  0.00  0.00    +0.127 A 
ATOM     25  C   UNL     1      12.842   9.523   2.534  0.00  0.00    +0.088 C 
ENDROOT
BRANCH  19  12
ATOM      7  N   UNL     1      13.947   4.792  -1.304  0.00  0.00    -0.297 NA
ATOM     11  C   UNL     1      13.056   3.701   0.886  0.00  0.00    +0.002 C 
ATOM     12  C   UNL     1      12.367   5.072   0.644  0.00  0.00    +0.055 C 
ATOM     13  C   UNL     1      15.086   4.358  -0.452  0.00  0.00    +0.072 C 
ATOM     14  C   UNL     1      14.586   3.899   0.934  0.00  0.00    +0.024 C 
ATOM     15  C   UNL     1      12.750   2.824  -0.347  0.00  0.00    +0.019 C 
ATOM     16  C   UNL     1      13.089   5.747  -0.557  0.00  0.00    +0.094 C 
ATOM     17  C   UNL     1      13.135   3.594  -1.622  0.00  0.00    +0.085 C 
BRANCH  13  18
ATOM     18  C   UNL     1      16.173   5.430  -0.340  0.00  0.00    +0.124 C 
BRANCH  18   8
ATOM      8  N   UNL     1      16.169   6.027   0.959  0.00  0.00    -0.193 NA
ATOM     32  H   UNL     1      16.439   5.391   1.720  0.00  0.00    +0.148 HD
BRANCH   8   1
ATOM      1  S   UNL     1      16.643   7.676   1.168  0.00  0.00    +0.027 S 
ATOM      5  O   UNL     1      15.777   8.519   0.368  0.00  0.00    -0.158 OA
ATOM      6  O   UNL     1      18.086   7.788   1.070  0.00  0.00    -0.158 OA
ATOM     23  C   UNL     1      16.208   7.910   2.876  0.00  0.00    +0.214 C 
ENDBRANCH   8   1
ENDBRANCH  18   8
ENDBRANCH  13  18
ENDBRANCH  19  12
BRANCH  21  24
ATOM     24  C   UNL     1      11.069   6.084   5.329  0.00  0.00    +0.000 A 
ATOM     26  C   UNL     1      11.673   6.569   6.488  0.00  0.00    +0.010 A 
ATOM     27  C   UNL     1       9.964   5.238   5.419  0.00  0.00    +0.010 A 
ATOM     28  C   UNL     1      11.173   6.207   7.739  0.00  0.00    +0.013 A 
ATOM     29  C   UNL     1       9.464   4.875   6.670  0.00  0.00    +0.013 A 
ATOM     30  C   UNL     1      10.069   5.359   7.829  0.00  0.00    +0.055 A 
BRANCH  30  31
ATOM      2  F   UNL     1       9.097   3.679   9.203  0.00  0.00    -0.166 F 
ATOM      3  F   UNL     1      10.449   5.077  10.174  0.00  0.00    -0.166 F 
ATOM      4  F   UNL     1       8.470   5.728   9.570  0.00  0.00    -0.166 F 
ATOM     31  C   UNL     1       9.534   4.972   9.166  0.00  0.00    +0.417 C 
ENDBRANCH  30  31
ENDBRANCH  21  24
TORSDOF 6
ENDMDL
MODEL 7
REMARK VINA RESULT:      -6.7     27.683     29.694
REMARK  Name = 40777169
REMARK  8 active torsions:
REMARK  status: ('A' for Active; 'I' for Inactive)
REMARK    1  A    between atoms: S_1  and  N_8
REMARK    2  A    between atoms: S_1  and  C_23
REMARK    3  A    between atoms: N_8  and  C_18
REMARK    4  A    between atoms: C_12  and  C_19
REMARK    5  A    between atoms: C_13  and  C_18
REMARK    6  A    between atoms: C_21  and  C_24
REMARK    7  A    between atoms: C_22  and  C_25
REMARK    8  A    between atoms: C_30  and  C_31
REMARK                            x       y       z     vdW  Elec       q    Type
REMARK                         _______ _______ _______ _____ _____    ______ ____
ROOT
ATOM      9  N   UNL     1      -5.648 -11.340  19.004  0.00  0.00    -0.237 NA
ATOM     10  N   UNL     1      -4.001 -11.437  17.247  0.00  0.00    -0.232 NA
ATOM     19  C   UNL     1      -6.511 -10.807  18.114  0.00  0.00    +0.050 A 
ATOM     20  C   UNL     1      -6.197 -10.564  16.793  0.00  0.00    +0.052 A 
ATOM     21  C   UNL     1      -4.915 -10.902  16.411  0.00  0.00    +0.075 A 
ATOM     22  C   UNL     1      -4.427 -11.627  18.510  0.00  0.00    +0.127 A 
ATOM     25  C   UNL     1      -3.445 -12.215  19.464  0.00  0.00    +0.088 C 
ENDROOT
BRANCH  19  12
ATOM      7  N   UNL     1     -10.172  -9.970  17.649  0.00  0.00    -0.297 NA
ATOM     11  C   UNL     1      -8.807 -11.629  19.121  0.00  0.00    +0.002 C 
ATOM     12  C   UNL     1      -7.901 -10.467  18.631  0.00  0.00    +0.055 C 
ATOM     13  C   UNL     1     -10.389 -11.364  17.179  0.00  0.00    +0.072 C 
ATOM     14  C   UNL     1      -9.433 -12.337  17.901  0.00  0.00    +0.024 C 
ATOM     15  C   UNL     1      -9.964 -10.988  19.916  0.00  0.00    +0.019 C 
ATOM     16  C   UNL     1      -8.725  -9.638  17.605  0.00  0.00    +0.094 C 
ATOM     17  C   UNL     1     -10.621  -9.892  19.060  0.00  0.00    +0.085 C 
BRANCH  13  18
ATOM     18  C   UNL     1     -10.287 -11.488  15.657  0.00  0.00    +0.124 C 
BRANCH  18   8
ATOM      8  N   UNL     1     -11.106 -10.512  15.009  0.00  0.00    -0.193 NA
ATOM     32  H   UNL     1     -11.981 -10.296  15.503  0.00  0.00    +0.148 HD
BRANCH   8   1
ATOM      1  S   UNL     1     -10.388  -9.188  14.161  0.00  0.00    +0.027 S 
ATOM      5  O   UNL     1      -9.006  -9.512  13.867  0.00  0.00    -0.158 OA
ATOM      6  O   UNL     1     -10.735  -7.940  14.813  0.00  0.00    -0.158 OA
ATOM     23  C   UNL     1     -11.303  -9.262  12.638  0.00  0.00    +0.214 C 
ENDBRANCH   8   1
ENDBRANCH  18   8
ENDBRANCH  13  18
ENDBRANCH  19  12
BRANCH  21  24
ATOM     24  C   UNL     1      -4.461 -10.695  15.056  0.00  0.00    +0.000 A 
ATOM     26  C   UNL     1      -3.106 -10.814  14.750  0.00  0.00    +0.010 A 
ATOM     27  C   UNL     1      -5.378 -10.377  14.055  0.00  0.00    +0.010 A 
ATOM     28  C   UNL     1      -2.667 -10.614  13.440  0.00  0.00    +0.013 A 
ATOM     29  C   UNL     1      -4.939 -10.176  12.745  0.00  0.00    +0.013 A 
ATOM     30  C   UNL     1      -3.584 -10.295  12.439  0.00  0.00    +0.055 A 
BRANCH  30  31
ATOM      2  F   UNL     1      -1.888  -9.486  10.982  0.00  0.00    -0.166 F 
ATOM      3  F   UNL     1      -2.996 -11.235  10.320  0.00  0.00    -0.166 F 
ATOM      4  F   UNL     1      -3.943  -9.284  10.301  0.00  0.00    -0.166 F 
ATOM     31  C   UNL     1      -3.115 -10.081  11.039  0.00  0.00    +0.417 C 
ENDBRANCH  30  31
ENDBRANCH  21  24
TORSDOF 6
ENDMDL
MODEL 8
REMARK VINA RESULT:      -6.6     29.406     32.160
REMARK  Name = 40777169
REMARK  8 active torsions:
REMARK  status: ('A' for Active; 'I' for Inactive)
REMARK    1  A    between atoms: S_1  and  N_8
REMARK    2  A    between atoms: S_1  and  C_23
REMARK    3  A    between atoms: N_8  and  C_18
REMARK    4  A    between atoms: C_12  and  C_19
REMARK    5  A    between atoms: C_13  and  C_18
REMARK    6  A    between atoms: C_21  and  C_24
REMARK    7  A    between atoms: C_22  and  C_25
REMARK    8  A    between atoms: C_30  and  C_31
REMARK                            x       y       z     vdW  Elec       q    Type
REMARK                         _______ _______ _______ _____ _____    ______ ____
ROOT
ATOM      9  N   UNL     1     -15.318   7.771  33.518  0.00  0.00    -0.237 NA
ATOM     10  N   UNL     1     -16.202   5.650  32.793  0.00  0.00    -0.232 NA
ATOM     19  C   UNL     1     -14.092   7.345  33.148  0.00  0.00    +0.050 A 
ATOM     20  C   UNL     1     -13.846   6.102  32.600  0.00  0.00    +0.052 A 
ATOM     21  C   UNL     1     -14.950   5.289  32.445  0.00  0.00    +0.075 A 
ATOM     22  C   UNL     1     -16.313   6.886  33.316  0.00  0.00    +0.127 A 
ATOM     25  C   UNL     1     -17.682   7.320  33.715  0.00  0.00    +0.088 C 
ENDROOT
BRANCH  19  12
ATOM      7  N   UNL     1     -11.312   9.601  31.924  0.00  0.00    -0.297 NA
ATOM     11  C   UNL     1     -13.274   9.808  33.623  0.00  0.00    +0.002 C 
ATOM     12  C   UNL     1     -12.939   8.314  33.360  0.00  0.00    +0.055 C 
ATOM     13  C   UNL     1     -12.349  10.524  31.392  0.00  0.00    +0.072 C 
ATOM     14  C   UNL     1     -13.608  10.499  32.284  0.00  0.00    +0.024 C 
ATOM     15  C   UNL     1     -11.986  10.465  34.163  0.00  0.00    +0.019 C 
ATOM     16  C   UNL     1     -11.908   8.269  32.197  0.00  0.00    +0.094 C 
ATOM     17  C   UNL     1     -10.822  10.159  33.206  0.00  0.00    +0.085 C 
BRANCH  13  18
ATOM     18  C   UNL     1     -12.684  10.242  29.925  0.00  0.00    +0.124 C 
BRANCH  18   8
ATOM      8  N   UNL     1     -11.493  10.042  29.159  0.00  0.00    -0.193 NA
ATOM     32  H   UNL     1     -10.955   9.206  29.420  0.00  0.00    +0.148 HD
BRANCH   8   1
ATOM      1  S   UNL     1     -11.450  10.459  27.482  0.00  0.00    +0.027 S 
ATOM      5  O   UNL     1     -12.592   9.860  26.819  0.00  0.00    -0.158 OA
ATOM      6  O   UNL     1     -10.108  10.271  26.964  0.00  0.00    -0.158 OA
ATOM     23  C   UNL     1     -11.736  12.210  27.589  0.00  0.00    +0.214 C 
ENDBRANCH   8   1
ENDBRANCH  18   8
ENDBRANCH  13  18
ENDBRANCH  19  12
BRANCH  21  24
ATOM     24  C   UNL     1     -14.826   3.963  31.886  0.00  0.00    +0.000 A 
ATOM     26  C   UNL     1     -14.694   2.862  32.730  0.00  0.00    +0.010 A 
ATOM     27  C   UNL     1     -14.837   3.786  30.503  0.00  0.00    +0.010 A 
ATOM     28  C   UNL     1     -14.574   1.580  32.190  0.00  0.00    +0.013 A 
ATOM     29  C   UNL     1     -14.717   2.505  29.963  0.00  0.00    +0.013 A 
ATOM     30  C   UNL     1     -14.585   1.403  30.807  0.00  0.00    +0.055 A 
BRANCH  30  31
ATOM      2  F   UNL     1     -13.174  -0.433  30.264  0.00  0.00    -0.166 F 
ATOM      3  F   UNL     1     -15.205  -0.906  30.879  0.00  0.00    -0.166 F 
ATOM      4  F   UNL     1     -14.840  -0.047  28.921  0.00  0.00    -0.166 F 
ATOM     31  C   UNL     1     -14.457   0.033  30.230  0.00  0.00    +0.417 C 
ENDBRANCH  30  31
ENDBRANCH  21  24
TORSDOF 6
ENDMDL
MODEL 9
REMARK VINA RESULT:      -6.5     27.625     30.240
REMARK  Name = 40777169
REMARK  8 active torsions:
REMARK  status: ('A' for Active; 'I' for Inactive)
REMARK    1  A    between atoms: S_1  and  N_8
REMARK    2  A    between atoms: S_1  and  C_23
REMARK    3  A    between atoms: N_8  and  C_18
REMARK    4  A    between atoms: C_12  and  C_19
REMARK    5  A    between atoms: C_13  and  C_18
REMARK    6  A    between atoms: C_21  and  C_24
REMARK    7  A    between atoms: C_22  and  C_25
REMARK    8  A    between atoms: C_30  and  C_31
REMARK                            x       y       z     vdW  Elec       q    Type
REMARK                         _______ _______ _______ _____ _____    ______ ____
ROOT
ATOM      9  N   UNL     1     -10.557  -9.558  18.477  0.00  0.00    -0.237 NA
ATOM     10  N   UNL     1      -8.437 -10.692  18.635  0.00  0.00    -0.232 NA
ATOM     19  C   UNL     1     -10.044  -8.816  17.474  0.00  0.00    +0.050 A 
ATOM     20  C   UNL     1      -8.754  -8.953  17.002  0.00  0.00    +0.052 A 
ATOM     21  C   UNL     1      -7.989  -9.916  17.626  0.00  0.00    +0.075 A 
ATOM     22  C   UNL     1      -9.711 -10.464  19.005  0.00  0.00    +0.127 A 
ATOM     25  C   UNL     1     -10.243 -11.302  20.118  0.00  0.00    +0.088 C 
ENDROOT
BRANCH  19  12
ATOM      7  N   UNL     1     -11.444  -6.875  14.543  0.00  0.00    -0.297 NA
ATOM     11  C   UNL     1     -12.437  -8.183  16.564  0.00  0.00    +0.002 C 
ATOM     12  C   UNL     1     -10.965  -7.779  16.850  0.00  0.00    +0.055 C 
ATOM     13  C   UNL     1     -12.085  -8.130  14.070  0.00  0.00    +0.072 C 
ATOM     14  C   UNL     1     -12.495  -9.016  15.266  0.00  0.00    +0.024 C 
ATOM     15  C   UNL     1     -13.215  -6.876  16.299  0.00  0.00    +0.019 C 
ATOM     16  C   UNL     1     -10.384  -7.188  15.534  0.00  0.00    +0.094 C 
ATOM     17  C   UNL     1     -12.482  -6.061  15.219  0.00  0.00    +0.085 C 
BRANCH  13  18
ATOM     18  C   UNL     1     -11.210  -8.890  13.070  0.00  0.00    +0.124 C 
BRANCH  18   8
ATOM      8  N   UNL     1     -10.860 -10.181  13.578  0.00  0.00    -0.193 NA
ATOM     32  H   UNL     1     -11.650 -10.834  13.660  0.00  0.00    +0.148 HD
BRANCH   8   1
ATOM      1  S   UNL     1      -9.343 -10.901  13.169  0.00  0.00    +0.027 S 
ATOM      5  O   UNL     1      -8.327  -9.867  13.129  0.00  0.00    -0.158 OA
ATOM      6  O   UNL     1      -9.516 -11.815  12.057  0.00  0.00    -0.158 OA
ATOM     23  C   UNL     1      -9.064 -11.884  14.625  0.00  0.00    +0.214 C 
ENDBRANCH   8   1
ENDBRANCH  18   8
ENDBRANCH  13  18
ENDBRANCH  19  12
BRANCH  21  24
ATOM     24  C   UNL     1      -6.622 -10.156  17.228  0.00  0.00    +0.000 A 
ATOM     26  C   UNL     1      -5.713 -10.686  18.143  0.00  0.00    +0.010 A 
ATOM     27  C   UNL     1      -6.211  -9.857  15.929  0.00  0.00    +0.010 A 
ATOM     28  C   UNL     1      -4.391 -10.919  17.758  0.00  0.00    +0.013 A 
ATOM     29  C   UNL     1      -4.890 -10.089  15.545  0.00  0.00    +0.013 A 
ATOM     30  C   UNL     1      -3.981 -10.619  16.459  0.00  0.00    +0.055 A 
BRANCH  30  31
ATOM      2  F   UNL     1      -2.423 -12.027  15.343  0.00  0.00    -0.166 F 
ATOM      3  F   UNL     1      -2.050  -9.887  15.252  0.00  0.00    -0.166 F 
ATOM      4  F   UNL     1      -1.703 -10.967  17.100  0.00  0.00    -0.166 F 
ATOM     31  C   UNL     1      -2.569 -10.867  16.048  0.00  0.00    +0.417 C 
ENDBRANCH  30  31
ENDBRANCH  21  24
TORSDOF 6
ENDMDL
MODEL 10
REMARK VINA RESULT:      -6.5     15.260     18.250
REMARK  Name = 40777169
REMARK  8 active torsions:
REMARK  status: ('A' for Active; 'I' for Inactive)
REMARK    1  A    between atoms: S_1  and  N_8
REMARK    2  A    between atoms: S_1  and  C_23
REMARK    3  A    between atoms: N_8  and  C_18
REMARK    4  A    between atoms: C_12  and  C_19
REMARK    5  A    between atoms: C_13  and  C_18
REMARK    6  A    between atoms: C_21  and  C_24
REMARK    7  A    between atoms: C_22  and  C_25
REMARK    8  A    between atoms: C_30  and  C_31
REMARK                            x       y       z     vdW  Elec       q    Type
REMARK                         _______ _______ _______ _____ _____    ______ ____
ROOT
ATOM      9  N   UNL     1       8.507   7.924   3.950  0.00  0.00    -0.237 NA
ATOM     10  N   UNL     1       9.211   7.454   1.694  0.00  0.00    -0.232 NA
ATOM     19  C   UNL     1       9.186   6.829   4.351  0.00  0.00    +0.050 A 
ATOM     20  C   UNL     1       9.893   6.009   3.494  0.00  0.00    +0.052 A 
ATOM     21  C   UNL     1       9.870   6.374   2.164  0.00  0.00    +0.075 A 
ATOM     22  C   UNL     1       8.560   8.174   2.628  0.00  0.00    +0.127 A 
ATOM     25  C   UNL     1       7.819   9.374   2.147  0.00  0.00    +0.088 C 
ENDROOT
BRANCH  19  12
ATOM      7  N   UNL     1      10.767   5.696   7.597  0.00  0.00    -0.297 NA
ATOM     11  C   UNL     1       9.265   7.686   6.845  0.00  0.00    +0.002 C 
ATOM     12  C   UNL     1       9.151   6.509   5.838  0.00  0.00    +0.055 C 
ATOM     13  C   UNL     1      11.553   6.958   7.608  0.00  0.00    +0.072 C 
ATOM     14  C   UNL     1      10.744   8.108   6.971  0.00  0.00    +0.024 C 
ATOM     15  C   UNL     1       8.831   7.138   8.222  0.00  0.00    +0.019 C 
ATOM     16  C   UNL     1      10.218   5.451   6.239  0.00  0.00    +0.094 C 
ATOM     17  C   UNL     1       9.630   5.861   8.532  0.00  0.00    +0.085 C 
BRANCH  13  18
ATOM     18  C   UNL     1      12.927   6.796   6.953  0.00  0.00    +0.124 C 
BRANCH  18   8
ATOM      8  N   UNL     1      13.757   7.929   7.222  0.00  0.00    -0.193 NA
ATOM     32  H   UNL     1      14.228   7.903   8.136  0.00  0.00    +0.148 HD
BRANCH   8   1
ATOM      1  S   UNL     1      14.650   8.684   5.949  0.00  0.00    +0.027 S 
ATOM      5  O   UNL     1      13.805   8.781   4.775  0.00  0.00    -0.158 OA
ATOM      6  O   UNL     1      15.974   8.098   5.864  0.00  0.00    -0.158 OA
ATOM     23  C   UNL     1      14.836  10.317   6.627  0.00  0.00    +0.214 C 
ENDBRANCH   8   1
ENDBRANCH  18   8
ENDBRANCH  13  18
ENDBRANCH  19  12
BRANCH  21  24
ATOM     24  C   UNL     1      10.567   5.598   1.166  0.00  0.00    +0.000 A 
ATOM     26  C   UNL     1       9.994   5.403  -0.090  0.00  0.00    +0.010 A 
ATOM     27  C   UNL     1      11.813   5.044   1.459  0.00  0.00    +0.010 A 
ATOM     28  C   UNL     1      10.668   4.653  -1.055  0.00  0.00    +0.013 A 
ATOM     29  C   UNL     1      12.486   4.293   0.494  0.00  0.00    +0.013 A 
ATOM     30  C   UNL     1      11.913   4.098  -0.762  0.00  0.00    +0.055 A 
BRANCH  30  31
ATOM      2  F   UNL     1      12.421   1.954  -1.658  0.00  0.00    -0.166 F 
ATOM      3  F   UNL     1      12.268   3.597  -3.074  0.00  0.00    -0.166 F 
ATOM      4  F   UNL     1      13.989   3.457  -1.762  0.00  0.00    -0.166 F 
ATOM     31  C   UNL     1      12.633   3.296  -1.793  0.00  0.00    +0.417 C 
ENDBRANCH  30  31
ENDBRANCH  21  24
TORSDOF 6
ENDMDL
