REMARK  Name = 25388796
REMARK  8 active torsions:
REMARK  status: ('A' for Active; 'I' for Inactive)
REMARK    1  A    between atoms: N_4  and  C_14
REMARK    2  A    between atoms: N_4  and  C_16
REMARK    3  A    between atoms: N_4  and  C_17
REMARK    4  A    between atoms: N_5  and  C_15
REMARK    5  A    between atoms: N_6  and  C_22
REMARK    6  A    between atoms: C_8  and  C_14
REMARK    7  A    between atoms: C_9  and  C_15
REMARK    8  A    between atoms: C_16  and  C_19
REMARK                            x       y       z     vdW  Elec       q    Type
REMARK                         _______ _______ _______ _____ _____    ______ ____
ROOT
ATOM      3  N   UNL     1       2.549  -2.970   0.206  0.00  0.00    -0.298 NA
ATOM      7  C   UNL     1       3.025  -0.721  -1.011  0.00  0.00    -0.003 C 
ATOM      8  C   UNL     1       3.526  -0.674   0.450  0.00  0.00    +0.020 C 
ATOM      9  C   UNL     1       1.301  -2.457  -0.423  0.00  0.00    +0.074 C 
ATOM     10  C   UNL     1       1.521  -1.051  -1.024  0.00  0.00    +0.024 C 
ATOM     11  C   UNL     1       3.090  -1.974   1.162  0.00  0.00    +0.089 C 
ATOM     12  C   UNL     1       3.755  -1.891  -1.698  0.00  0.00    +0.019 C 
ATOM     13  C   UNL     1       3.551  -3.172  -0.868  0.00  0.00    +0.085 C 
ENDROOT
BRANCH   8  14
ATOM     14  C   UNL     1       3.060   0.567   1.208  0.00  0.00    +0.089 C 
BRANCH  14   4
ATOM      4  N   UNL     1       3.458   1.780   0.511  0.00  0.00    -0.301 NA
ATOM     17  C   UNL     1       4.863   2.097   0.782  0.00  0.00    +0.105 C 
BRANCH   4  16
ATOM     16  C   UNL     1       2.604   2.905   0.899  0.00  0.00    +0.119 C 
BRANCH  16  19
ATOM     19  C   UNL     1       1.260   2.848   0.222  0.00  0.00    -0.033 A 
ATOM     20  C   UNL     1       1.074   3.470  -1.013  0.00  0.00    +0.005 A 
ATOM     21  C   UNL     1       0.201   2.172   0.829  0.00  0.00    +0.005 A 
ATOM     23  C   UNL     1      -0.170   3.417  -1.641  0.00  0.00    +0.000 A 
ATOM     24  C   UNL     1      -1.043   2.119   0.201  0.00  0.00    +0.000 A 
ATOM     25  C   UNL     1      -1.229   2.741  -1.034  0.00  0.00    +0.000 A 
ENDBRANCH  16  19
ENDBRANCH   4  16
ENDBRANCH  14   4
ENDBRANCH   8  14
BRANCH   9  15
ATOM     15  C   UNL     1       0.110  -2.485   0.537  0.00  0.00    +0.124 C 
BRANCH  15   5
ATOM      2  O   UNL     1      -2.176  -1.183   1.669  0.00  0.00    -0.253 OA
ATOM      5  N   UNL     1      -1.118  -2.127  -0.154  0.00  0.00    -0.298 N 
ATOM      6  N   UNL     1      -3.222  -1.276  -0.430  0.00  0.00    -0.269 N 
ATOM     18  C   UNL     1      -2.184  -1.492   0.480  0.00  0.00    +0.304 C 
ATOM     29  H   UNL     1      -1.244  -2.447  -1.110  0.00  0.00    +0.150 HD
ATOM     30  H   UNL     1      -3.078  -1.589  -1.387  0.00  0.00    +0.156 HD
BRANCH   6  22
ATOM      1  S   UNL     1      -6.836   0.273  -0.569  0.00  0.00    -0.103 S 
ATOM     22  C   UNL     1      -4.473  -0.663  -0.191  0.00  0.00    +0.042 A 
ATOM     26  C   UNL     1      -4.899  -0.144   1.066  0.00  0.00    +0.031 A 
ATOM     27  C   UNL     1      -5.431  -0.502  -1.168  0.00  0.00    +0.068 A 
ATOM     28  C   UNL     1      -6.165   0.394   1.002  0.00  0.00    +0.047 A 
ENDBRANCH   6  22
ENDBRANCH  15   5
ENDBRANCH   9  15
TORSDOF 7
