MODEL 1
REMARK VINA RESULT:      -7.9      0.000      0.000
REMARK  Name = 26744680
REMARK  9 active torsions:
REMARK  status: ('A' for Active; 'I' for Inactive)
REMARK    1  A    between atoms: O_2  and  C_12
REMARK    2  A    between atoms: O_3  and  C_13
REMARK    3  A    between atoms: O_6  and  C_33
REMARK    4  A    between atoms: O_6  and  C_34
REMARK    5  A    between atoms: N_9  and  C_16
REMARK    6  A    between atoms: C_11  and  C_15
REMARK    7  A    between atoms: C_14  and  C_16
REMARK    8  A    between atoms: C_15  and  C_17
REMARK    9  A    between atoms: C_23  and  C_25
REMARK                            x       y       z     vdW  Elec       q    Type
REMARK                         _______ _______ _______ _____ _____    ______ ____
ROOT
ATOM      1  O   UNL     1      13.566   9.187  19.788  0.00  0.00    -0.366 OA
ATOM     11  C   UNL     1      14.714   8.451  19.308  0.00  0.00    +0.159 C 
ATOM     12  C   UNL     1      14.209   7.557  18.180  0.00  0.00    +0.175 C 
ATOM     13  C   UNL     1      12.767   7.326  18.583  0.00  0.00    +0.176 C 
ATOM     14  C   UNL     1      12.383   8.686  19.139  0.00  0.00    +0.167 C 
ENDROOT
BRANCH  12   2
ATOM      2  O   UNL     1      14.270   8.300  16.965  0.00  0.00    -0.387 OA
ATOM     35  H   UNL     1      14.967   8.971  17.068  0.00  0.00    +0.210 HD
ENDBRANCH  12   2
BRANCH  13   3
ATOM      3  O   UNL     1      11.940   6.942  17.506  0.00  0.00    -0.387 OA
ATOM     36  H   UNL     1      12.306   7.345  16.699  0.00  0.00    +0.210 HD
ENDBRANCH  13   3
BRANCH  11  15
ATOM     15  C   UNL     1      15.286   7.665  20.480  0.00  0.00    +0.130 C 
BRANCH  15  17
ATOM      4  O   UNL     1      16.327   9.561  21.460  0.00  0.00    -0.276 OA
ATOM      7  N   UNL     1      17.670   7.697  21.113  0.00  0.00    -0.298 N 
ATOM      8  N   UNL     1      20.159   6.261  21.460  0.00  0.00    -0.312 N 
ATOM     10  N   UNL     1      21.977   5.035  20.582  0.00  0.00    -0.240 NA
ATOM     17  C   UNL     1      16.466   8.402  21.064  0.00  0.00    +0.218 C 
ATOM     18  C   UNL     1      18.861   8.343  21.660  0.00  0.00    +0.126 C 
ATOM     19  C   UNL     1      17.832   6.316  20.652  0.00  0.00    +0.126 C 
ATOM     20  C   UNL     1      19.777   7.346  22.367  0.00  0.00    +0.125 C 
ATOM     21  C   UNL     1      19.283   5.968  20.323  0.00  0.00    +0.125 C 
ATOM     22  C   UNL     1      21.342   5.553  21.657  0.00  0.00    +0.121 A 
ATOM     24  C   UNL     1      21.795   5.424  22.961  0.00  0.00    +0.043 A 
ATOM     26  C   UNL     1      22.975   4.720  23.174  0.00  0.00    +0.005 A 
ATOM     27  C   UNL     1      23.121   4.357  20.827  0.00  0.00    +0.113 A 
ATOM     30  C   UNL     1      23.656   4.173  22.092  0.00  0.00    +0.020 A 
ENDBRANCH  15  17
ENDBRANCH  11  15
BRANCH  14  16
ATOM     16  C   UNL     1      11.240   8.629  20.136  0.00  0.00    +0.138 C 
BRANCH  16   9
ATOM      5  O   UNL     1      10.921   8.711  22.988  0.00  0.00    -0.270 OA
ATOM      9  N   UNL     1      11.212   9.802  20.961  0.00  0.00    -0.309 N 
ATOM     23  C   UNL     1      11.052   9.748  22.343  0.00  0.00    +0.244 C 
ATOM     37  H   UNL     1      11.370  10.690  20.498  0.00  0.00    +0.149 HD
BRANCH  23  25
ATOM     25  C   UNL     1      11.018  11.054  23.051  0.00  0.00    +0.037 A 
ATOM     28  C   UNL     1      10.989  12.242  22.321  0.00  0.00    +0.016 A 
ATOM     29  C   UNL     1      11.016  11.090  24.445  0.00  0.00    +0.016 A 
ATOM     31  C   UNL     1      10.957  13.467  22.987  0.00  0.00    +0.046 A 
ATOM     32  C   UNL     1      10.985  12.316  25.110  0.00  0.00    +0.046 A 
ATOM     33  C   UNL     1      10.955  13.505  24.381  0.00  0.00    +0.120 A 
BRANCH  33   6
ATOM      6  O   UNL     1      10.925  14.701  25.031  0.00  0.00    -0.495 OA
ATOM     34  C   UNL     1      11.039  14.670  26.453  0.00  0.00    +0.277 C 
ENDBRANCH  33   6
ENDBRANCH  23  25
ENDBRANCH  16   9
ENDBRANCH  14  16
TORSDOF 8
ENDMDL
MODEL 2
REMARK VINA RESULT:      -7.6     27.559     32.156
REMARK  Name = 26744680
REMARK  9 active torsions:
REMARK  status: ('A' for Active; 'I' for Inactive)
REMARK    1  A    between atoms: O_2  and  C_12
REMARK    2  A    between atoms: O_3  and  C_13
REMARK    3  A    between atoms: O_6  and  C_33
REMARK    4  A    between atoms: O_6  and  C_34
REMARK    5  A    between atoms: N_9  and  C_16
REMARK    6  A    between atoms: C_11  and  C_15
REMARK    7  A    between atoms: C_14  and  C_16
REMARK    8  A    between atoms: C_15  and  C_17
REMARK    9  A    between atoms: C_23  and  C_25
REMARK                            x       y       z     vdW  Elec       q    Type
REMARK                         _______ _______ _______ _____ _____    ______ ____
ROOT
ATOM      1  O   UNL     1     -16.454   2.140  24.346  0.00  0.00    -0.366 OA
ATOM     11  C   UNL     1     -17.817   1.718  24.113  0.00  0.00    +0.159 C 
ATOM     12  C   UNL     1     -18.324   2.538  22.930  0.00  0.00    +0.175 C 
ATOM     13  C   UNL     1     -17.508   3.807  23.055  0.00  0.00    +0.176 C 
ATOM     14  C   UNL     1     -16.160   3.262  23.494  0.00  0.00    +0.167 C 
ENDROOT
BRANCH  12   2
ATOM      2  O   UNL     1     -17.982   1.844  21.732  0.00  0.00    -0.387 OA
ATOM     35  H   UNL     1     -17.156   1.359  21.901  0.00  0.00    +0.210 HD
ENDBRANCH  12   2
BRANCH  13   3
ATOM      3  O   UNL     1     -17.416   4.534  21.848  0.00  0.00    -0.387 OA
ATOM     36  H   UNL     1     -18.183   5.133  21.809  0.00  0.00    +0.210 HD
ENDBRANCH  13   3
BRANCH  11  15
ATOM     15  C   UNL     1     -18.607   1.966  25.391  0.00  0.00    +0.130 C 
BRANCH  15  17
ATOM      4  O   UNL     1     -18.266  -0.150  26.416  0.00  0.00    -0.276 OA
ATOM      7  N   UNL     1     -17.444   1.704  27.551  0.00  0.00    -0.298 N 
ATOM      8  N   UNL     1     -15.895   2.891  29.688  0.00  0.00    -0.312 N 
ATOM     10  N   UNL     1     -15.677   4.407  31.486  0.00  0.00    -0.240 NA
ATOM     17  C   UNL     1     -18.094   1.070  26.492  0.00  0.00    +0.218 C 
ATOM     18  C   UNL     1     -16.924   0.906  28.658  0.00  0.00    +0.126 C 
ATOM     19  C   UNL     1     -17.231   3.151  27.634  0.00  0.00    +0.126 C 
ATOM     20  C   UNL     1     -15.655   1.513  29.252  0.00  0.00    +0.125 C 
ATOM     21  C   UNL     1     -16.994   3.633  29.066  0.00  0.00    +0.125 C 
ATOM     22  C   UNL     1     -15.120   3.464  30.694  0.00  0.00    +0.121 A 
ATOM     24  C   UNL     1     -13.812   3.022  30.817  0.00  0.00    +0.043 A 
ATOM     26  C   UNL     1     -13.025   3.584  31.816  0.00  0.00    +0.005 A 
ATOM     27  C   UNL     1     -14.882   4.932  32.446  0.00  0.00    +0.113 A 
ATOM     30  C   UNL     1     -13.564   4.558  32.650  0.00  0.00    +0.020 A 
ENDBRANCH  15  17
ENDBRANCH  11  15
BRANCH  14  16
ATOM     16  C   UNL     1     -15.320   4.273  24.254  0.00  0.00    +0.138 C 
BRANCH  16   9
ATOM      5  O   UNL     1     -15.758   6.896  23.175  0.00  0.00    -0.270 OA
ATOM      9  N   UNL     1     -14.448   4.991  23.371  0.00  0.00    -0.309 N 
ATOM     23  C   UNL     1     -14.742   6.266  22.894  0.00  0.00    +0.244 C 
ATOM     37  H   UNL     1     -13.565   4.551  23.142  0.00  0.00    +0.149 HD
BRANCH  23  25
ATOM     25  C   UNL     1     -13.749   6.865  21.966  0.00  0.00    +0.037 A 
ATOM     28  C   UNL     1     -12.678   6.100  21.504  0.00  0.00    +0.016 A 
ATOM     29  C   UNL     1     -13.887   8.192  21.558  0.00  0.00    +0.016 A 
ATOM     31  C   UNL     1     -11.745   6.664  20.632  0.00  0.00    +0.046 A 
ATOM     32  C   UNL     1     -12.955   8.754  20.686  0.00  0.00    +0.046 A 
ATOM     33  C   UNL     1     -11.884   7.990  20.223  0.00  0.00    +0.120 A 
BRANCH  33   6
ATOM      6  O   UNL     1     -10.973   8.540  19.374  0.00  0.00    -0.495 OA
ATOM     34  C   UNL     1     -10.577   9.887  19.631  0.00  0.00    +0.277 C 
ENDBRANCH  33   6
ENDBRANCH  23  25
ENDBRANCH  16   9
ENDBRANCH  14  16
TORSDOF 8
ENDMDL
MODEL 3
REMARK VINA RESULT:      -7.6     27.823     31.206
REMARK  Name = 26744680
REMARK  9 active torsions:
REMARK  status: ('A' for Active; 'I' for Inactive)
REMARK    1  A    between atoms: O_2  and  C_12
REMARK    2  A    between atoms: O_3  and  C_13
REMARK    3  A    between atoms: O_6  and  C_33
REMARK    4  A    between atoms: O_6  and  C_34
REMARK    5  A    between atoms: N_9  and  C_16
REMARK    6  A    between atoms: C_11  and  C_15
REMARK    7  A    between atoms: C_14  and  C_16
REMARK    8  A    between atoms: C_15  and  C_17
REMARK    9  A    between atoms: C_23  and  C_25
REMARK                            x       y       z     vdW  Elec       q    Type
REMARK                         _______ _______ _______ _____ _____    ______ ____
ROOT
ATOM      1  O   UNL     1      -3.869 -11.424  18.169  0.00  0.00    -0.366 OA
ATOM     11  C   UNL     1      -5.211 -11.766  18.583  0.00  0.00    +0.159 C 
ATOM     12  C   UNL     1      -5.845 -12.508  17.411  0.00  0.00    +0.175 C 
ATOM     13  C   UNL     1      -5.113 -11.911  16.227  0.00  0.00    +0.176 C 
ATOM     14  C   UNL     1      -3.706 -11.764  16.781  0.00  0.00    +0.167 C 
ENDROOT
BRANCH  12   2
ATOM      2  O   UNL     1      -5.530 -13.893  17.541  0.00  0.00    -0.387 OA
ATOM     35  H   UNL     1      -5.760 -14.324  16.700  0.00  0.00    +0.210 HD
ENDBRANCH  12   2
BRANCH  13   3
ATOM      3  O   UNL     1      -5.146 -12.729  15.077  0.00  0.00    -0.387 OA
ATOM     36  H   UNL     1      -4.981 -13.644  15.366  0.00  0.00    +0.210 HD
ENDBRANCH  13   3
BRANCH  11  15
ATOM     15  C   UNL     1      -5.935 -10.473  18.932  0.00  0.00    +0.130 C 
BRANCH  15  17
ATOM      4  O   UNL     1      -7.764 -11.462  20.080  0.00  0.00    -0.276 OA
ATOM      7  N   UNL     1      -8.278 -10.160  18.225  0.00  0.00    -0.298 N 
ATOM      8  N   UNL     1     -10.190  -8.817  16.517  0.00  0.00    -0.312 N 
ATOM     10  N   UNL     1     -11.079  -8.348  14.380  0.00  0.00    -0.240 NA
ATOM     17  C   UNL     1      -7.404 -10.749  19.140  0.00  0.00    +0.218 C 
ATOM     18  C   UNL     1      -9.716 -10.382  18.356  0.00  0.00    +0.126 C 
ATOM     19  C   UNL     1      -7.850  -9.303  17.117  0.00  0.00    +0.126 C 
ATOM     20  C   UNL     1     -10.525  -9.171  17.899  0.00  0.00    +0.125 C 
ATOM     21  C   UNL     1      -8.885  -9.227  15.994  0.00  0.00    +0.125 C 
ATOM     22  C   UNL     1     -11.105  -8.139  15.715  0.00  0.00    +0.121 A 
ATOM     24  C   UNL     1     -11.993  -7.284  16.348  0.00  0.00    +0.043 A 
ATOM     26  C   UNL     1     -12.913  -6.600  15.561  0.00  0.00    +0.005 A 
ATOM     27  C   UNL     1     -11.988  -7.666  13.646  0.00  0.00    +0.113 A 
ATOM     30  C   UNL     1     -12.916  -6.790  14.183  0.00  0.00    +0.020 A 
ENDBRANCH  15  17
ENDBRANCH  11  15
BRANCH  14  16
ATOM     16  C   UNL     1      -2.892 -10.689  16.084  0.00  0.00    +0.138 C 
BRANCH  16   9
ATOM      5  O   UNL     1      -1.755 -11.332  13.528  0.00  0.00    -0.270 OA
ATOM      9  N   UNL     1      -3.443 -10.374  14.798  0.00  0.00    -0.309 N 
ATOM     23  C   UNL     1      -2.820 -10.726  13.603  0.00  0.00    +0.244 C 
ATOM     37  H   UNL     1      -4.350  -9.922  14.788  0.00  0.00    +0.149 HD
BRANCH  23  25
ATOM     25  C   UNL     1      -3.506 -10.303  12.355  0.00  0.00    +0.037 A 
ATOM     28  C   UNL     1      -2.756  -9.967  11.228  0.00  0.00    +0.016 A 
ATOM     29  C   UNL     1      -4.899 -10.241  12.312  0.00  0.00    +0.016 A 
ATOM     31  C   UNL     1      -3.401  -9.570  10.056  0.00  0.00    +0.046 A 
ATOM     32  C   UNL     1      -5.543  -9.844  11.140  0.00  0.00    +0.046 A 
ATOM     33  C   UNL     1      -4.794  -9.509  10.012  0.00  0.00    +0.120 A 
BRANCH  33   6
ATOM      6  O   UNL     1      -5.423  -9.120   8.869  0.00  0.00    -0.495 OA
ATOM     34  C   UNL     1      -5.236  -9.937   7.714  0.00  0.00    +0.277 C 
ENDBRANCH  33   6
ENDBRANCH  23  25
ENDBRANCH  16   9
ENDBRANCH  14  16
TORSDOF 8
ENDMDL
MODEL 4
REMARK VINA RESULT:      -7.6     28.480     30.532
REMARK  Name = 26744680
REMARK  9 active torsions:
REMARK  status: ('A' for Active; 'I' for Inactive)
REMARK    1  A    between atoms: O_2  and  C_12
REMARK    2  A    between atoms: O_3  and  C_13
REMARK    3  A    between atoms: O_6  and  C_33
REMARK    4  A    between atoms: O_6  and  C_34
REMARK    5  A    between atoms: N_9  and  C_16
REMARK    6  A    between atoms: C_11  and  C_15
REMARK    7  A    between atoms: C_14  and  C_16
REMARK    8  A    between atoms: C_15  and  C_17
REMARK    9  A    between atoms: C_23  and  C_25
REMARK                            x       y       z     vdW  Elec       q    Type
REMARK                         _______ _______ _______ _____ _____    ______ ____
ROOT
ATOM      1  O   UNL     1      -8.016 -12.305  18.899  0.00  0.00    -0.366 OA
ATOM     11  C   UNL     1      -6.609 -11.971  18.926  0.00  0.00    +0.159 C 
ATOM     12  C   UNL     1      -6.525 -10.456  18.766  0.00  0.00    +0.175 C 
ATOM     13  C   UNL     1      -7.774 -10.155  17.965  0.00  0.00    +0.176 C 
ATOM     14  C   UNL     1      -8.771 -11.124  18.576  0.00  0.00    +0.167 C 
ENDROOT
BRANCH  12   2
ATOM      2  O   UNL     1      -6.614  -9.868  20.063  0.00  0.00    -0.387 OA
ATOM     35  H   UNL     1      -5.728  -9.544  20.297  0.00  0.00    +0.210 HD
ENDBRANCH  12   2
BRANCH  13   3
ATOM      3  O   UNL     1      -8.202  -8.814  18.078  0.00  0.00    -0.387 OA
ATOM     36  H   UNL     1      -8.909  -8.677  17.425  0.00  0.00    +0.210 HD
ENDBRANCH  13   3
BRANCH  11  15
ATOM     15  C   UNL     1      -5.929 -12.728  17.794  0.00  0.00    +0.130 C 
BRANCH  15  17
ATOM      4  O   UNL     1      -3.719 -11.926  18.131  0.00  0.00    -0.276 OA
ATOM      7  N   UNL     1      -4.709 -11.429  16.088  0.00  0.00    -0.298 N 
ATOM      8  N   UNL     1      -4.575 -10.401  13.386  0.00  0.00    -0.312 N 
ATOM     10  N   UNL     1      -5.399  -9.016  11.659  0.00  0.00    -0.240 NA
ATOM     17  C   UNL     1      -4.682 -11.996  17.364  0.00  0.00    +0.218 C 
ATOM     18  C   UNL     1      -3.541 -10.699  15.600  0.00  0.00    +0.126 C 
ATOM     19  C   UNL     1      -5.849 -11.522  15.173  0.00  0.00    +0.126 C 
ATOM     20  C   UNL     1      -3.368 -10.843  14.090  0.00  0.00    +0.125 C 
ATOM     21  C   UNL     1      -5.847 -10.421  14.112  0.00  0.00    +0.125 C 
ATOM     22  C   UNL     1      -4.504  -9.941  12.073  0.00  0.00    +0.121 A 
ATOM     24  C   UNL     1      -3.508 -10.471  11.268  0.00  0.00    +0.043 A 
ATOM     26  C   UNL     1      -3.424 -10.022   9.955  0.00  0.00    +0.005 A 
ATOM     27  C   UNL     1      -5.287  -8.603  10.376  0.00  0.00    +0.113 A 
ATOM     30  C   UNL     1      -4.327  -9.070   9.493  0.00  0.00    +0.020 A 
ENDBRANCH  15  17
ENDBRANCH  11  15
BRANCH  14  16
ATOM     16  C   UNL     1      -9.910 -11.487  17.641  0.00  0.00    +0.138 C 
BRANCH  16   9
ATOM      5  O   UNL     1     -11.987  -9.742  18.583  0.00  0.00    -0.270 OA
ATOM      9  N   UNL     1     -10.422 -10.326  16.972  0.00  0.00    -0.309 N 
ATOM     23  C   UNL     1     -11.436  -9.534  17.505  0.00  0.00    +0.244 C 
ATOM     37  H   UNL     1      -9.973 -10.066  16.102  0.00  0.00    +0.149 HD
BRANCH  23  25
ATOM     25  C   UNL     1     -11.873  -8.381  16.676  0.00  0.00    +0.037 A 
ATOM     28  C   UNL     1     -11.056  -7.256  16.562  0.00  0.00    +0.016 A 
ATOM     29  C   UNL     1     -13.099  -8.424  16.012  0.00  0.00    +0.016 A 
ATOM     31  C   UNL     1     -11.467  -6.174  15.783  0.00  0.00    +0.046 A 
ATOM     32  C   UNL     1     -13.509  -7.342  15.234  0.00  0.00    +0.046 A 
ATOM     33  C   UNL     1     -12.693  -6.217  15.119  0.00  0.00    +0.120 A 
BRANCH  33   6
ATOM      6  O   UNL     1     -13.095  -5.160  14.361  0.00  0.00    -0.495 OA
ATOM     34  C   UNL     1     -12.209  -4.728  13.329  0.00  0.00    +0.277 C 
ENDBRANCH  33   6
ENDBRANCH  23  25
ENDBRANCH  16   9
ENDBRANCH  14  16
TORSDOF 8
ENDMDL
MODEL 5
REMARK VINA RESULT:      -7.5     28.122     30.204
REMARK  Name = 26744680
REMARK  9 active torsions:
REMARK  status: ('A' for Active; 'I' for Inactive)
REMARK    1  A    between atoms: O_2  and  C_12
REMARK    2  A    between atoms: O_3  and  C_13
REMARK    3  A    between atoms: O_6  and  C_33
REMARK    4  A    between atoms: O_6  and  C_34
REMARK    5  A    between atoms: N_9  and  C_16
REMARK    6  A    between atoms: C_11  and  C_15
REMARK    7  A    between atoms: C_14  and  C_16
REMARK    8  A    between atoms: C_15  and  C_17
REMARK    9  A    between atoms: C_23  and  C_25
REMARK                            x       y       z     vdW  Elec       q    Type
REMARK                         _______ _______ _______ _____ _____    ______ ____
ROOT
ATOM      1  O   UNL     1      -5.286 -12.765  17.349  0.00  0.00    -0.366 OA
ATOM     11  C   UNL     1      -4.247 -11.775  17.517  0.00  0.00    +0.159 C 
ATOM     12  C   UNL     1      -4.423 -11.201  18.919  0.00  0.00    +0.175 C 
ATOM     13  C   UNL     1      -5.911 -11.371  19.143  0.00  0.00    +0.176 C 
ATOM     14  C   UNL     1      -6.168 -12.715  18.485  0.00  0.00    +0.167 C 
ENDROOT
BRANCH  12   2
ATOM      2  O   UNL     1      -3.689 -12.019  19.828  0.00  0.00    -0.387 OA
ATOM     35  H   UNL     1      -3.780 -11.626  20.713  0.00  0.00    +0.210 HD
ENDBRANCH  12   2
BRANCH  13   3
ATOM      3  O   UNL     1      -6.275 -11.373  20.508  0.00  0.00    -0.387 OA
ATOM     36  H   UNL     1      -5.858 -12.150  20.920  0.00  0.00    +0.210 HD
ENDBRANCH  13   3
BRANCH  11  15
ATOM     15  C   UNL     1      -4.417 -10.731  16.421  0.00  0.00    +0.130 C 
BRANCH  15  17
ATOM      4  O   UNL     1      -2.125 -10.999  15.855  0.00  0.00    -0.276 OA
ATOM      7  N   UNL     1      -3.609 -10.709  14.090  0.00  0.00    -0.298 N 
ATOM      8  N   UNL     1      -4.215 -10.693  11.260  0.00  0.00    -0.312 N 
ATOM     10  N   UNL     1      -5.128  -9.648   9.349  0.00  0.00    -0.240 NA
ATOM     17  C   UNL     1      -3.274 -10.827  15.440  0.00  0.00    +0.218 C 
ATOM     18  C   UNL     1      -2.558 -10.787  13.078  0.00  0.00    +0.126 C 
ATOM     19  C   UNL     1      -4.975 -10.517  13.597  0.00  0.00    +0.126 C 
ATOM     20  C   UNL     1      -3.058 -11.424  11.784  0.00  0.00    +0.125 C 
ATOM     21  C   UNL     1      -5.018  -9.905  12.197  0.00  0.00    +0.125 C 
ATOM     22  C   UNL     1      -4.517 -10.721   9.900  0.00  0.00    +0.121 A 
ATOM     24  C   UNL     1      -4.168 -11.862   9.196  0.00  0.00    +0.043 A 
ATOM     26  C   UNL     1      -4.463 -11.905   7.838  0.00  0.00    +0.005 A 
ATOM     27  C   UNL     1      -5.400  -9.726   8.026  0.00  0.00    +0.113 A 
ATOM     30  C   UNL     1      -5.091 -10.820   7.234  0.00  0.00    +0.020 A 
ENDBRANCH  15  17
ENDBRANCH  11  15
BRANCH  14  16
ATOM     16  C   UNL     1      -7.603 -12.897  18.025  0.00  0.00    +0.138 C 
BRANCH  16   9
ATOM      5  O   UNL     1      -8.253 -11.829  15.440  0.00  0.00    -0.270 OA
ATOM      9  N   UNL     1      -8.224 -11.634  17.752  0.00  0.00    -0.309 N 
ATOM     23  C   UNL     1      -8.504 -11.193  16.461  0.00  0.00    +0.244 C 
ATOM     37  H   UNL     1      -8.508 -11.082  18.553  0.00  0.00    +0.149 HD
BRANCH  23  25
ATOM     25  C   UNL     1      -9.126  -9.849  16.345  0.00  0.00    +0.037 A 
ATOM     28  C   UNL     1      -9.519  -9.369  15.096  0.00  0.00    +0.016 A 
ATOM     29  C   UNL     1      -9.314  -9.068  17.485  0.00  0.00    +0.016 A 
ATOM     31  C   UNL     1     -10.103  -8.106  14.989  0.00  0.00    +0.046 A 
ATOM     32  C   UNL     1      -9.898  -7.806  17.377  0.00  0.00    +0.046 A 
ATOM     33  C   UNL     1     -10.293  -7.325  16.128  0.00  0.00    +0.120 A 
BRANCH  33   6
ATOM      6  O   UNL     1     -10.861  -6.092  16.023  0.00  0.00    -0.495 OA
ATOM     34  C   UNL     1     -11.726  -5.870  14.910  0.00  0.00    +0.277 C 
ENDBRANCH  33   6
ENDBRANCH  23  25
ENDBRANCH  16   9
ENDBRANCH  14  16
TORSDOF 8
ENDMDL
MODEL 6
REMARK VINA RESULT:      -7.4     15.435     18.263
REMARK  Name = 26744680
REMARK  9 active torsions:
REMARK  status: ('A' for Active; 'I' for Inactive)
REMARK    1  A    between atoms: O_2  and  C_12
REMARK    2  A    between atoms: O_3  and  C_13
REMARK    3  A    between atoms: O_6  and  C_33
REMARK    4  A    between atoms: O_6  and  C_34
REMARK    5  A    between atoms: N_9  and  C_16
REMARK    6  A    between atoms: C_11  and  C_15
REMARK    7  A    between atoms: C_14  and  C_16
REMARK    8  A    between atoms: C_15  and  C_17
REMARK    9  A    between atoms: C_23  and  C_25
REMARK                            x       y       z     vdW  Elec       q    Type
REMARK                         _______ _______ _______ _____ _____    ______ ____
ROOT
ATOM      1  O   UNL     1      11.131   6.438   6.518  0.00  0.00    -0.366 OA
ATOM     11  C   UNL     1      11.334   7.870   6.531  0.00  0.00    +0.159 C 
ATOM     12  C   UNL     1       9.955   8.497   6.712  0.00  0.00    +0.175 C 
ATOM     13  C   UNL     1       9.052   7.459   6.079  0.00  0.00    +0.176 C 
ATOM     14  C   UNL     1       9.718   6.166   6.518  0.00  0.00    +0.167 C 
ENDROOT
BRANCH  12   2
ATOM      2  O   UNL     1       9.693   8.595   8.110  0.00  0.00    -0.387 OA
ATOM     35  H   UNL     1      10.477   8.992   8.527  0.00  0.00    +0.210 HD
ENDBRANCH  12   2
BRANCH  13   3
ATOM      3  O   UNL     1       7.713   7.540   6.519  0.00  0.00    -0.387 OA
ATOM     36  H   UNL     1       7.148   7.577   5.727  0.00  0.00    +0.210 HD
ENDBRANCH  13   3
BRANCH  11  15
ATOM     15  C   UNL     1      11.998   8.258   5.217  0.00  0.00    +0.130 C 
BRANCH  15  17
ATOM      4  O   UNL     1      12.509  10.523   5.713  0.00  0.00    -0.276 OA
ATOM      7  N   UNL     1      14.311   9.108   5.326  0.00  0.00    -0.298 N 
ATOM      8  N   UNL     1      17.153   8.560   5.318  0.00  0.00    -0.312 N 
ATOM     10  N   UNL     1      19.105   7.786   4.237  0.00  0.00    -0.240 NA
ATOM     17  C   UNL     1      12.952   9.404   5.443  0.00  0.00    +0.218 C 
ATOM     18  C   UNL     1      15.299  10.166   5.526  0.00  0.00    +0.126 C 
ATOM     19  C   UNL     1      14.836   7.776   5.017  0.00  0.00    +0.126 C 
ATOM     20  C   UNL     1      16.589   9.632   6.143  0.00  0.00    +0.125 C 
ATOM     21  C   UNL     1      16.250   7.817   4.436  0.00  0.00    +0.125 C 
ATOM     22  C   UNL     1      18.518   8.282   5.349  0.00  0.00    +0.121 A 
ATOM     24  C   UNL     1      19.190   8.535   6.534  0.00  0.00    +0.043 A 
ATOM     26  C   UNL     1      20.553   8.262   6.580  0.00  0.00    +0.005 A 
ATOM     27  C   UNL     1      20.431   7.533   4.319  0.00  0.00    +0.113 A 
ATOM     30  C   UNL     1      21.192   7.752   5.455  0.00  0.00    +0.020 A 
ENDBRANCH  15  17
ENDBRANCH  11  15
BRANCH  14  16
ATOM     16  C   UNL     1       9.424   4.994   5.598  0.00  0.00    +0.138 C 
BRANCH  16   9
ATOM      5  O   UNL     1       9.824   5.962   2.926  0.00  0.00    -0.270 OA
ATOM      9  N   UNL     1      10.541   4.713   4.744  0.00  0.00    -0.309 N 
ATOM     23  C   UNL     1      10.654   5.227   3.455  0.00  0.00    +0.244 C 
ATOM     37  H   UNL     1      11.289   4.155   5.140  0.00  0.00    +0.149 HD
BRANCH  23  25
ATOM     25  C   UNL     1      11.859   4.819   2.688  0.00  0.00    +0.037 A 
ATOM     28  C   UNL     1      11.936   3.538   2.141  0.00  0.00    +0.016 A 
ATOM     29  C   UNL     1      12.912   5.717   2.517  0.00  0.00    +0.016 A 
ATOM     31  C   UNL     1      13.068   3.156   1.421  0.00  0.00    +0.046 A 
ATOM     32  C   UNL     1      14.044   5.334   1.797  0.00  0.00    +0.046 A 
ATOM     33  C   UNL     1      14.122   4.054   1.249  0.00  0.00    +0.120 A 
BRANCH  33   6
ATOM      6  O   UNL     1      15.228   3.680   0.548  0.00  0.00    -0.495 OA
ATOM     34  C   UNL     1      15.977   4.718  -0.084  0.00  0.00    +0.277 C 
ENDBRANCH  33   6
ENDBRANCH  23  25
ENDBRANCH  16   9
ENDBRANCH  14  16
TORSDOF 8
ENDMDL
MODEL 7
REMARK VINA RESULT:      -7.4     27.000     31.634
REMARK  Name = 26744680
REMARK  9 active torsions:
REMARK  status: ('A' for Active; 'I' for Inactive)
REMARK    1  A    between atoms: O_2  and  C_12
REMARK    2  A    between atoms: O_3  and  C_13
REMARK    3  A    between atoms: O_6  and  C_33
REMARK    4  A    between atoms: O_6  and  C_34
REMARK    5  A    between atoms: N_9  and  C_16
REMARK    6  A    between atoms: C_11  and  C_15
REMARK    7  A    between atoms: C_14  and  C_16
REMARK    8  A    between atoms: C_15  and  C_17
REMARK    9  A    between atoms: C_23  and  C_25
REMARK                            x       y       z     vdW  Elec       q    Type
REMARK                         _______ _______ _______ _____ _____    ______ ____
ROOT
ATOM      1  O   UNL     1     -15.470   3.959  22.715  0.00  0.00    -0.366 OA
ATOM     11  C   UNL     1     -16.916   3.966  22.698  0.00  0.00    +0.159 C 
ATOM     12  C   UNL     1     -17.327   4.880  21.549  0.00  0.00    +0.175 C 
ATOM     13  C   UNL     1     -16.162   5.844  21.480  0.00  0.00    +0.176 C 
ATOM     14  C   UNL     1     -14.987   4.924  21.763  0.00  0.00    +0.167 C 
ENDROOT
BRANCH  12   2
ATOM      2  O   UNL     1     -17.390   4.094  20.359  0.00  0.00    -0.387 OA
ATOM     35  H   UNL     1     -16.574   3.567  20.315  0.00  0.00    +0.210 HD
ENDBRANCH  12   2
BRANCH  13   3
ATOM      3  O   UNL     1     -16.040   6.488  20.229  0.00  0.00    -0.387 OA
ATOM     36  H   UNL     1     -16.578   5.987  19.591  0.00  0.00    +0.210 HD
ENDBRANCH  13   3
BRANCH  11  15
ATOM     15  C   UNL     1     -17.395   4.463  24.055  0.00  0.00    +0.130 C 
BRANCH  15  17
ATOM      4  O   UNL     1     -19.018   2.746  24.290  0.00  0.00    -0.276 OA
ATOM      7  N   UNL     1     -17.553   3.047  26.069  0.00  0.00    -0.298 N 
ATOM      8  N   UNL     1     -16.431   2.213  28.603  0.00  0.00    -0.312 N 
ATOM     10  N   UNL     1     -15.796   2.670  30.832  0.00  0.00    -0.240 NA
ATOM     17  C   UNL     1     -18.068   3.340  24.805  0.00  0.00    +0.218 C 
ATOM     18  C   UNL     1     -18.153   1.975  26.860  0.00  0.00    +0.126 C 
ATOM     19  C   UNL     1     -16.417   3.746  26.674  0.00  0.00    +0.126 C 
ATOM     20  C   UNL     1     -17.121   1.261  27.729  0.00  0.00    +0.125 C 
ATOM     21  C   UNL     1     -16.388   3.620  28.198  0.00  0.00    +0.125 C 
ATOM     22  C   UNL     1     -15.864   1.793  29.805  0.00  0.00    +0.121 A 
ATOM     24  C   UNL     1     -15.401   0.489  29.866  0.00  0.00    +0.043 A 
ATOM     26  C   UNL     1     -14.833   0.055  31.059  0.00  0.00    +0.005 A 
ATOM     27  C   UNL     1     -15.237   2.213  31.976  0.00  0.00    +0.113 A 
ATOM     30  C   UNL     1     -14.746   0.928  32.138  0.00  0.00    +0.020 A 
ENDBRANCH  15  17
ENDBRANCH  11  15
BRANCH  14  16
ATOM     16  C   UNL     1     -13.780   5.645  22.336  0.00  0.00    +0.138 C 
BRANCH  16   9
ATOM      5  O   UNL     1     -13.481   8.466  21.898  0.00  0.00    -0.270 OA
ATOM      9  N   UNL     1     -13.012   6.274  21.301  0.00  0.00    -0.309 N 
ATOM     23  C   UNL     1     -12.923   7.657  21.162  0.00  0.00    +0.244 C 
ATOM     37  H   UNL     1     -12.481   5.664  20.691  0.00  0.00    +0.149 HD
BRANCH  23  25
ATOM     25  C   UNL     1     -12.109   8.152  20.023  0.00  0.00    +0.037 A 
ATOM     28  C   UNL     1     -12.353   7.676  18.734  0.00  0.00    +0.016 A 
ATOM     29  C   UNL     1     -11.101   9.090  20.242  0.00  0.00    +0.016 A 
ATOM     31  C   UNL     1     -11.588   8.141  17.664  0.00  0.00    +0.046 A 
ATOM     32  C   UNL     1     -10.337   9.554  19.172  0.00  0.00    +0.046 A 
ATOM     33  C   UNL     1     -10.580   9.080  17.883  0.00  0.00    +0.120 A 
BRANCH  33   6
ATOM      6  O   UNL     1      -9.832   9.532  16.839  0.00  0.00    -0.495 OA
ATOM     34  C   UNL     1     -10.451  10.463  15.952  0.00  0.00    +0.277 C 
ENDBRANCH  33   6
ENDBRANCH  23  25
ENDBRANCH  16   9
ENDBRANCH  14  16
TORSDOF 8
ENDMDL
MODEL 8
REMARK VINA RESULT:      -7.4     15.828     20.905
REMARK  Name = 26744680
REMARK  9 active torsions:
REMARK  status: ('A' for Active; 'I' for Inactive)
REMARK    1  A    between atoms: O_2  and  C_12
REMARK    2  A    between atoms: O_3  and  C_13
REMARK    3  A    between atoms: O_6  and  C_33
REMARK    4  A    between atoms: O_6  and  C_34
REMARK    5  A    between atoms: N_9  and  C_16
REMARK    6  A    between atoms: C_11  and  C_15
REMARK    7  A    between atoms: C_14  and  C_16
REMARK    8  A    between atoms: C_15  and  C_17
REMARK    9  A    between atoms: C_23  and  C_25
REMARK                            x       y       z     vdW  Elec       q    Type
REMARK                         _______ _______ _______ _____ _____    ______ ____
ROOT
ATOM      1  O   UNL     1      11.074   6.885   7.390  0.00  0.00    -0.366 OA
ATOM     11  C   UNL     1       9.982   6.364   8.181  0.00  0.00    +0.159 C 
ATOM     12  C   UNL     1       9.624   5.009   7.578  0.00  0.00    +0.175 C 
ATOM     13  C   UNL     1      10.022   5.195   6.129  0.00  0.00    +0.176 C 
ATOM     14  C   UNL     1      11.292   6.017   6.263  0.00  0.00    +0.167 C 
ENDROOT
BRANCH  12   2
ATOM      2  O   UNL     1      10.445   4.019   8.194  0.00  0.00    -0.387 OA
ATOM     35  H   UNL     1      10.634   4.319   9.100  0.00  0.00    +0.210 HD
ENDBRANCH  12   2
BRANCH  13   3
ATOM      3  O   UNL     1      10.249   3.977   5.450  0.00  0.00    -0.387 OA
ATOM     36  H   UNL     1      11.173   3.720   5.615  0.00  0.00    +0.210 HD
ENDBRANCH  13   3
BRANCH  11  15
ATOM     15  C   UNL     1       8.838   7.367   8.114  0.00  0.00    +0.130 C 
BRANCH  15  17
ATOM      4  O   UNL     1      10.027   9.406   8.373  0.00  0.00    -0.276 OA
ATOM      7  N   UNL     1       9.014   9.044   6.313  0.00  0.00    -0.298 N 
ATOM      8  N   UNL     1       8.556   9.766   3.548  0.00  0.00    -0.312 N 
ATOM     10  N   UNL     1       7.098  10.212   1.744  0.00  0.00    -0.240 NA
ATOM     17  C   UNL     1       9.352   8.698   7.623  0.00  0.00    +0.218 C 
ATOM     18  C   UNL     1       9.470  10.320   5.766  0.00  0.00    +0.126 C 
ATOM     19  C   UNL     1       8.222   8.197   5.419  0.00  0.00    +0.126 C 
ATOM     20  C   UNL     1       9.745  10.231   4.266  0.00  0.00    +0.125 C 
ATOM     21  C   UNL     1       7.561   8.985   4.288  0.00  0.00    +0.125 C 
ATOM     22  C   UNL     1       8.362  10.090   2.207  0.00  0.00    +0.121 A 
ATOM     24  C   UNL     1       9.494  10.267   1.428  0.00  0.00    +0.043 A 
ATOM     26  C   UNL     1       9.318  10.591   0.087  0.00  0.00    +0.005 A 
ATOM     27  C   UNL     1       6.965  10.527   0.435  0.00  0.00    +0.113 A 
ATOM     30  C   UNL     1       8.032  10.726  -0.426  0.00  0.00    +0.020 A 
ENDBRANCH  15  17
ENDBRANCH  11  15
BRANCH  14  16
ATOM     16  C   UNL     1      11.605   6.848   5.032  0.00  0.00    +0.138 C 
BRANCH  16   9
ATOM      5  O   UNL     1      10.173   6.820   2.545  0.00  0.00    -0.270 OA
ATOM      9  N   UNL     1      11.876   6.014   3.898  0.00  0.00    -0.309 N 
ATOM     23  C   UNL     1      11.126   6.067   2.726  0.00  0.00    +0.244 C 
ATOM     37  H   UNL     1      12.684   5.406   3.961  0.00  0.00    +0.149 HD
BRANCH  23  25
ATOM     25  C   UNL     1      11.517   5.118   1.652  0.00  0.00    +0.037 A 
ATOM     28  C   UNL     1      10.727   4.996   0.509  0.00  0.00    +0.016 A 
ATOM     29  C   UNL     1      12.673   4.349   1.788  0.00  0.00    +0.016 A 
ATOM     31  C   UNL     1      11.096   4.105  -0.499  0.00  0.00    +0.046 A 
ATOM     32  C   UNL     1      13.040   3.459   0.780  0.00  0.00    +0.046 A 
ATOM     33  C   UNL     1      12.252   3.337  -0.364  0.00  0.00    +0.120 A 
BRANCH  33   6
ATOM      6  O   UNL     1      12.610   2.465  -1.347  0.00  0.00    -0.495 OA
ATOM     34  C   UNL     1      11.738   2.363  -2.473  0.00  0.00    +0.277 C 
ENDBRANCH  33   6
ENDBRANCH  23  25
ENDBRANCH  16   9
ENDBRANCH  14  16
TORSDOF 8
ENDMDL
MODEL 9
REMARK VINA RESULT:      -7.3      3.136      7.028
REMARK  Name = 26744680
REMARK  9 active torsions:
REMARK  status: ('A' for Active; 'I' for Inactive)
REMARK    1  A    between atoms: O_2  and  C_12
REMARK    2  A    between atoms: O_3  and  C_13
REMARK    3  A    between atoms: O_6  and  C_33
REMARK    4  A    between atoms: O_6  and  C_34
REMARK    5  A    between atoms: N_9  and  C_16
REMARK    6  A    between atoms: C_11  and  C_15
REMARK    7  A    between atoms: C_14  and  C_16
REMARK    8  A    between atoms: C_15  and  C_17
REMARK    9  A    between atoms: C_23  and  C_25
REMARK                            x       y       z     vdW  Elec       q    Type
REMARK                         _______ _______ _______ _____ _____    ______ ____
ROOT
ATOM      1  O   UNL     1      11.271  13.448  23.516  0.00  0.00    -0.366 OA
ATOM     11  C   UNL     1      10.875  12.059  23.458  0.00  0.00    +0.159 C 
ATOM     12  C   UNL     1      11.564  11.367  24.630  0.00  0.00    +0.175 C 
ATOM     13  C   UNL     1      12.808  12.213  24.808  0.00  0.00    +0.176 C 
ATOM     14  C   UNL     1      12.270  13.608  24.540  0.00  0.00    +0.167 C 
ENDROOT
BRANCH  12   2
ATOM      2  O   UNL     1      10.718  11.485  25.773  0.00  0.00    -0.387 OA
ATOM     35  H   UNL     1      10.065  12.180  25.581  0.00  0.00    +0.210 HD
ENDBRANCH  12   2
BRANCH  13   3
ATOM      3  O   UNL     1      13.379  12.104  26.095  0.00  0.00    -0.387 OA
ATOM     36  H   UNL     1      14.346  12.104  25.985  0.00  0.00    +0.210 HD
ENDBRANCH  13   3
BRANCH  11  15
ATOM     15  C   UNL     1      11.305  11.508  22.105  0.00  0.00    +0.130 C 
BRANCH  15  17
ATOM      4  O   UNL     1      10.258   9.400  22.420  0.00  0.00    -0.276 OA
ATOM      7  N   UNL     1      12.510   9.371  21.847  0.00  0.00    -0.298 N 
ATOM      8  N   UNL     1      14.908   7.961  21.047  0.00  0.00    -0.312 N 
ATOM     10  N   UNL     1      17.203   7.473  21.313  0.00  0.00    -0.240 NA
ATOM     17  C   UNL     1      11.299  10.000  22.140  0.00  0.00    +0.218 C 
ATOM     18  C   UNL     1      12.586   7.912  21.865  0.00  0.00    +0.126 C 
ATOM     19  C   UNL     1      13.743  10.084  21.504  0.00  0.00    +0.126 C 
ATOM     20  C   UNL     1      13.580   7.380  20.834  0.00  0.00    +0.125 C 
ATOM     21  C   UNL     1      14.998   9.245  21.746  0.00  0.00    +0.125 C 
ATOM     22  C   UNL     1      16.054   7.290  20.626  0.00  0.00    +0.121 A 
ATOM     24  C   UNL     1      15.936   6.469  19.516  0.00  0.00    +0.043 A 
ATOM     26  C   UNL     1      17.071   5.792  19.083  0.00  0.00    +0.005 A 
ATOM     27  C   UNL     1      18.286   6.799  20.864  0.00  0.00    +0.113 A 
ATOM     30  C   UNL     1      18.272   5.955  19.765  0.00  0.00    +0.020 A 
ENDBRANCH  15  17
ENDBRANCH  11  15
BRANCH  14  16
ATOM     16  C   UNL     1      13.333  14.583  24.068  0.00  0.00    +0.138 C 
BRANCH  16   9
ATOM      5  O   UNL     1      13.868  14.095  21.290  0.00  0.00    -0.270 OA
ATOM      9  N   UNL     1      14.465  13.893  23.523  0.00  0.00    -0.309 N 
ATOM     23  C   UNL     1      14.645  13.700  22.155  0.00  0.00    +0.244 C 
ATOM     37  H   UNL     1      15.174  13.588  24.180  0.00  0.00    +0.149 HD
BRANCH  23  25
ATOM     25  C   UNL     1      15.857  12.942  21.752  0.00  0.00    +0.037 A 
ATOM     28  C   UNL     1      16.707  12.419  22.727  0.00  0.00    +0.016 A 
ATOM     29  C   UNL     1      16.144  12.754  20.401  0.00  0.00    +0.016 A 
ATOM     31  C   UNL     1      17.846  11.707  22.347  0.00  0.00    +0.046 A 
ATOM     32  C   UNL     1      17.282  12.042  20.022  0.00  0.00    +0.046 A 
ATOM     33  C   UNL     1      18.133  11.518  20.996  0.00  0.00    +0.120 A 
BRANCH  33   6
ATOM      6  O   UNL     1      19.245  10.825  20.626  0.00  0.00    -0.495 OA
ATOM     34  C   UNL     1      20.500  11.309  21.102  0.00  0.00    +0.277 C 
ENDBRANCH  33   6
ENDBRANCH  23  25
ENDBRANCH  16   9
ENDBRANCH  14  16
TORSDOF 8
ENDMDL
MODEL 10
REMARK VINA RESULT:      -7.3      2.896      6.301
REMARK  Name = 26744680
REMARK  9 active torsions:
REMARK  status: ('A' for Active; 'I' for Inactive)
REMARK    1  A    between atoms: O_2  and  C_12
REMARK    2  A    between atoms: O_3  and  C_13
REMARK    3  A    between atoms: O_6  and  C_33
REMARK    4  A    between atoms: O_6  and  C_34
REMARK    5  A    between atoms: N_9  and  C_16
REMARK    6  A    between atoms: C_11  and  C_15
REMARK    7  A    between atoms: C_14  and  C_16
REMARK    8  A    between atoms: C_15  and  C_17
REMARK    9  A    between atoms: C_23  and  C_25
REMARK                            x       y       z     vdW  Elec       q    Type
REMARK                         _______ _______ _______ _____ _____    ______ ____
ROOT
ATOM      1  O   UNL     1      11.702   9.164  20.367  0.00  0.00    -0.366 OA
ATOM     11  C   UNL     1      10.950   8.051  20.901  0.00  0.00    +0.159 C 
ATOM     12  C   UNL     1      10.682   8.378  22.367  0.00  0.00    +0.175 C 
ATOM     13  C   UNL     1      11.869   9.251  22.716  0.00  0.00    +0.176 C 
ATOM     14  C   UNL     1      12.040  10.059  21.441  0.00  0.00    +0.167 C 
ENDROOT
BRANCH  12   2
ATOM      2  O   UNL     1       9.474   9.133  22.438  0.00  0.00    -0.387 OA
ATOM     35  H   UNL     1       8.825   8.701  21.857  0.00  0.00    +0.210 HD
ENDBRANCH  12   2
BRANCH  13   3
ATOM      3  O   UNL     1      11.645  10.076  23.840  0.00  0.00    -0.387 OA
ATOM     36  H   UNL     1      12.515  10.364  24.168  0.00  0.00    +0.210 HD
ENDBRANCH  13   3
BRANCH  11  15
ATOM     15  C   UNL     1      11.786   6.792  20.715  0.00  0.00    +0.130 C 
BRANCH  15  17
ATOM      4  O   UNL     1      12.490   7.136  18.473  0.00  0.00    -0.276 OA
ATOM      7  N   UNL     1      14.155   7.095  20.095  0.00  0.00    -0.298 N 
ATOM      8  N   UNL     1      16.902   7.472  20.922  0.00  0.00    -0.312 N 
ATOM     10  N   UNL     1      18.861   6.703  21.995  0.00  0.00    -0.240 NA
ATOM     17  C   UNL     1      12.833   7.024  19.653  0.00  0.00    +0.218 C 
ATOM     18  C   UNL     1      15.227   7.313  19.126  0.00  0.00    +0.126 C 
ATOM     19  C   UNL     1      14.559   6.972  21.497  0.00  0.00    +0.126 C 
ATOM     20  C   UNL     1      16.376   8.123  19.720  0.00  0.00    +0.125 C 
ATOM     21  C   UNL     1      16.022   6.560  21.657  0.00  0.00    +0.125 C 
ATOM     22  C   UNL     1      18.217   7.688  21.331  0.00  0.00    +0.121 A 
ATOM     24  C   UNL     1      18.782   8.916  21.026  0.00  0.00    +0.043 A 
ATOM     26  C   UNL     1      20.093   9.147  21.427  0.00  0.00    +0.005 A 
ATOM     27  C   UNL     1      20.134   6.963  22.370  0.00  0.00    +0.113 A 
ATOM     30  C   UNL     1      20.789   8.157  22.112  0.00  0.00    +0.020 A 
ENDBRANCH  15  17
ENDBRANCH  11  15
BRANCH  14  16
ATOM     16  C   UNL     1      13.451  10.582  21.244  0.00  0.00    +0.138 C 
BRANCH  16   9
ATOM      5  O   UNL     1      13.112  12.661  19.293  0.00  0.00    -0.270 OA
ATOM      9  N   UNL     1      13.835  10.531  19.864  0.00  0.00    -0.309 N 
ATOM     23  C   UNL     1      13.631  11.592  18.984  0.00  0.00    +0.244 C 
ATOM     37  H   UNL     1      14.319   9.696  19.554  0.00  0.00    +0.149 HD
BRANCH  23  25
ATOM     25  C   UNL     1      14.061  11.372  17.579  0.00  0.00    +0.037 A 
ATOM     28  C   UNL     1      14.790  12.356  16.912  0.00  0.00    +0.016 A 
ATOM     29  C   UNL     1      13.734  10.182  16.928  0.00  0.00    +0.016 A 
ATOM     31  C   UNL     1      15.193  12.149  15.592  0.00  0.00    +0.046 A 
ATOM     32  C   UNL     1      14.137   9.976  15.609  0.00  0.00    +0.046 A 
ATOM     33  C   UNL     1      14.867  10.959  14.941  0.00  0.00    +0.120 A 
BRANCH  33   6
ATOM      6  O   UNL     1      15.259  10.758  13.653  0.00  0.00    -0.495 OA
ATOM     34  C   UNL     1      15.258  11.894  12.789  0.00  0.00    +0.277 C 
ENDBRANCH  33   6
ENDBRANCH  23  25
ENDBRANCH  16   9
ENDBRANCH  14  16
TORSDOF 8
ENDMDL
