MODEL 1
REMARK VINA RESULT:      -8.0      0.000      0.000
REMARK  Name = 11880087
REMARK  11 active torsions:
REMARK  status: ('A' for Active; 'I' for Inactive)
REMARK    1  A    between atoms: O_3  and  C_25
REMARK    2  A    between atoms: O_3  and  C_36
REMARK    3  A    between atoms: N_8  and  C_16
REMARK    4  A    between atoms: N_9  and  C_24
REMARK    5  A    between atoms: C_18  and  C_21
REMARK    6  A    between atoms: C_22  and  C_25
REMARK    7  A    between atoms: C_23  and  C_28
REMARK    8  A    between atoms: C_24  and  C_26
REMARK    9  A    between atoms: C_24  and  C_30
REMARK   10  A    between atoms: C_26  and  C_29
REMARK   11  A    between atoms: C_27  and  C_32
REMARK                            x       y       z     vdW  Elec       q    Type
REMARK                         _______ _______ _______ _____ _____    ______ ____
ROOT
ATOM      2  O   UNL     1      12.130   6.840  18.619  0.00  0.00    -0.273 OA
ATOM      7  N   UNL     1      14.011   7.101  19.968  0.00  0.00    -0.288 N 
ATOM     16  C   UNL     1      16.917   6.986  20.223  0.00  0.00    +0.113 C 
ATOM     17  C   UNL     1      16.008   6.642  21.416  0.00  0.00    +0.059 C 
ATOM     18  C   UNL     1      14.610   7.257  21.304  0.00  0.00    +0.164 C 
ATOM     19  C   UNL     1      16.209   6.670  18.900  0.00  0.00    +0.046 C 
ATOM     20  C   UNL     1      14.874   7.402  18.819  0.00  0.00    +0.111 C 
ATOM     22  C   UNL     1      12.655   6.837  19.736  0.00  0.00    +0.242 C 
ENDROOT
BRANCH  16   8
ATOM      8  N   UNL     1      18.236   6.348  20.324  0.00  0.00    -0.236 N 
ATOM     10  N   UNL     1      18.459   5.160  19.739  0.00  0.00    -0.064 NA
ATOM     11  N   UNL     1      19.721   4.828  19.988  0.00  0.00    -0.124 NA
ATOM     23  C   UNL     1      19.346   6.808  20.964  0.00  0.00    +0.156 A 
ATOM     27  C   UNL     1      20.278   5.826  20.738  0.00  0.00    +0.179 A 
BRANCH  23  28
ATOM      4  O   UNL     1      19.652   9.146  21.140  0.00  0.00    -0.269 OA
ATOM     13  N   UNL     1      19.301   7.994  23.075  0.00  0.00    -0.324 N 
ATOM     28  C   UNL     1      19.452   8.035  21.684  0.00  0.00    +0.262 C 
ATOM     42  H   UNL     1      19.123   7.124  23.565  0.00  0.00    +0.145 HD
ATOM     43  H   UNL     1      19.358   8.839  23.635  0.00  0.00    +0.145 HD
ENDBRANCH  23  28
BRANCH  27  32
ATOM      6  O   UNL     1      22.587   6.298  20.551  0.00  0.00    -0.269 OA
ATOM     15  N   UNL     1      21.899   5.185  22.418  0.00  0.00    -0.324 N 
ATOM     32  C   UNL     1      21.634   5.794  21.188  0.00  0.00    +0.264 C 
ATOM     46  H   UNL     1      22.844   5.142  22.787  0.00  0.00    +0.145 HD
ATOM     47  H   UNL     1      21.165   4.769  22.982  0.00  0.00    +0.145 HD
ENDBRANCH  27  32
ENDBRANCH  16   8
BRANCH  18  21
ATOM      1  O   UNL     1      15.600   9.290  22.072  0.00  0.00    -0.274 OA
ATOM      9  N   UNL     1      13.387   9.318  21.349  0.00  0.00    -0.302 N 
ATOM     21  C   UNL     1      14.610   8.725  21.615  0.00  0.00    +0.234 C 
ATOM     40  H   UNL     1      12.655   8.764  20.913  0.00  0.00    +0.150 HD
BRANCH   9  24
ATOM     24  C   UNL     1      13.119  10.717  21.584  0.00  0.00    +0.163 C 
BRANCH  24  30
ATOM      5  O   UNL     1      13.039  11.577  19.312  0.00  0.00    -0.274 OA
ATOM     14  N   UNL     1      14.851  12.104  20.623  0.00  0.00    -0.328 N 
ATOM     30  C   UNL     1      13.645  11.482  20.378  0.00  0.00    +0.231 C 
ATOM     44  H   UNL     1      15.305  12.659  19.905  0.00  0.00    +0.145 HD
ATOM     45  H   UNL     1      15.329  12.036  21.515  0.00  0.00    +0.145 HD
ENDBRANCH  24  30
BRANCH  24  26
ATOM     26  C   UNL     1      11.624  10.997  21.787  0.00  0.00    +0.069 C 
BRANCH  26  29
ATOM     12  N   UNL     1      10.881  11.548  25.344  0.00  0.00    -0.360 N 
ATOM     29  C   UNL     1      11.301  11.498  23.166  0.00  0.00    -0.020 A 
ATOM     31  C   UNL     1      11.063  12.850  23.542  0.00  0.00    +0.003 A 
ATOM     33  C   UNL     1      11.182  10.721  24.295  0.00  0.00    +0.087 A 
ATOM     34  C   UNL     1      10.802  12.853  24.914  0.00  0.00    +0.047 A 
ATOM     35  C   UNL     1      11.044  14.074  22.845  0.00  0.00    +0.010 A 
ATOM     37  C   UNL     1      10.522  14.024  25.627  0.00  0.00    +0.026 A 
ATOM     38  C   UNL     1      10.766  15.253  23.546  0.00  0.00    +0.001 A 
ATOM     39  C   UNL     1      10.509  15.227  24.915  0.00  0.00    +0.002 A 
ATOM     41  H   UNL     1      10.737  11.244  26.297  0.00  0.00    +0.165 HD
ENDBRANCH  26  29
ENDBRANCH  24  26
ENDBRANCH   9  24
ENDBRANCH  18  21
BRANCH  22  25
ATOM     25  C   UNL     1      11.807   6.523  20.944  0.00  0.00    +0.255 C 
BRANCH  25   3
ATOM      3  O   UNL     1      10.855   7.554  21.045  0.00  0.00    -0.374 OA
ATOM     36  C   UNL     1      10.312   7.655  22.360  0.00  0.00    +0.194 C 
ENDBRANCH  25   3
ENDBRANCH  22  25
TORSDOF 10
ENDMDL
MODEL 2
REMARK VINA RESULT:      -7.8      3.154      7.957
REMARK  Name = 11880087
REMARK  11 active torsions:
REMARK  status: ('A' for Active; 'I' for Inactive)
REMARK    1  A    between atoms: O_3  and  C_25
REMARK    2  A    between atoms: O_3  and  C_36
REMARK    3  A    between atoms: N_8  and  C_16
REMARK    4  A    between atoms: N_9  and  C_24
REMARK    5  A    between atoms: C_18  and  C_21
REMARK    6  A    between atoms: C_22  and  C_25
REMARK    7  A    between atoms: C_23  and  C_28
REMARK    8  A    between atoms: C_24  and  C_26
REMARK    9  A    between atoms: C_24  and  C_30
REMARK   10  A    between atoms: C_26  and  C_29
REMARK   11  A    between atoms: C_27  and  C_32
REMARK                            x       y       z     vdW  Elec       q    Type
REMARK                         _______ _______ _______ _____ _____    ______ ____
ROOT
ATOM      2  O   UNL     1      14.383  14.073  24.023  0.00  0.00    -0.273 OA
ATOM      7  N   UNL     1      13.684  12.979  22.089  0.00  0.00    -0.288 N 
ATOM     16  C   UNL     1      14.305  12.093  19.377  0.00  0.00    +0.113 C 
ATOM     17  C   UNL     1      12.873  12.499  19.764  0.00  0.00    +0.059 C 
ATOM     18  C   UNL     1      12.606  12.404  21.269  0.00  0.00    +0.164 C 
ATOM     19  C   UNL     1      15.327  12.851  20.234  0.00  0.00    +0.046 C 
ATOM     20  C   UNL     1      15.059  12.621  21.717  0.00  0.00    +0.111 C 
ATOM     22  C   UNL     1      13.478  13.708  23.267  0.00  0.00    +0.242 C 
ENDROOT
BRANCH  16   8
ATOM      8  N   UNL     1      14.557  12.238  17.938  0.00  0.00    -0.236 N 
ATOM     10  N   UNL     1      15.074  13.378  17.453  0.00  0.00    -0.064 NA
ATOM     11  N   UNL     1      15.195  13.230  16.138  0.00  0.00    -0.124 NA
ATOM     23  C   UNL     1      14.333  11.329  16.949  0.00  0.00    +0.156 A 
ATOM     27  C   UNL     1      14.745  11.980  15.814  0.00  0.00    +0.179 A 
BRANCH  23  28
ATOM      4  O   UNL     1      14.493   8.993  17.277  0.00  0.00    -0.269 OA
ATOM     13  N   UNL     1      12.399   9.882  17.134  0.00  0.00    -0.324 N 
ATOM     28  C   UNL     1      13.792  10.019  17.120  0.00  0.00    +0.262 C 
ATOM     42  H   UNL     1      11.785  10.681  17.026  0.00  0.00    +0.145 HD
ATOM     43  H   UNL     1      11.963   8.974  17.260  0.00  0.00    +0.145 HD
ENDBRANCH  23  28
BRANCH  27  32
ATOM      6  O   UNL     1      13.757  11.611  13.698  0.00  0.00    -0.269 OA
ATOM     15  N   UNL     1      15.881  10.843  14.002  0.00  0.00    -0.324 N 
ATOM     32  C   UNL     1      14.731  11.484  14.473  0.00  0.00    +0.264 C 
ATOM     46  H   UNL     1      15.926  10.480  13.056  0.00  0.00    +0.145 HD
ATOM     47  H   UNL     1      16.705  10.720  14.583  0.00  0.00    +0.145 HD
ENDBRANCH  27  32
ENDBRANCH  16   8
BRANCH  18  21
ATOM      1  O   UNL     1      12.245  10.701  22.905  0.00  0.00    -0.274 OA
ATOM      9  N   UNL     1      12.491  10.086  20.673  0.00  0.00    -0.302 N 
ATOM     21  C   UNL     1      12.419  10.986  21.723  0.00  0.00    +0.234 C 
ATOM     40  H   UNL     1      12.576  10.440  19.725  0.00  0.00    +0.150 HD
BRANCH   9  24
ATOM     24  C   UNL     1      12.366   8.657  20.846  0.00  0.00    +0.163 C 
BRANCH  24  30
ATOM      5  O   UNL     1      10.534   8.458  19.263  0.00  0.00    -0.274 OA
ATOM     14  N   UNL     1      10.240   7.644  21.392  0.00  0.00    -0.328 N 
ATOM     30  C   UNL     1      10.964   8.273  20.400  0.00  0.00    +0.231 C 
ATOM     44  H   UNL     1       9.292   7.324  21.220  0.00  0.00    +0.145 HD
ATOM     45  H   UNL     1      10.616   7.477  22.319  0.00  0.00    +0.145 HD
ENDBRANCH  24  30
BRANCH  24  26
ATOM     26  C   UNL     1      13.417   7.880  20.043  0.00  0.00    +0.069 C 
BRANCH  26  29
ATOM     12  N   UNL     1      16.427   8.276  22.115  0.00  0.00    -0.360 N 
ATOM     29  C   UNL     1      14.768   7.864  20.700  0.00  0.00    -0.020 A 
ATOM     31  C   UNL     1      15.915   7.146  20.261  0.00  0.00    +0.003 A 
ATOM     33  C   UNL     1      15.113   8.549  21.842  0.00  0.00    +0.087 A 
ATOM     34  C   UNL     1      16.943   7.422  21.166  0.00  0.00    +0.047 A 
ATOM     35  C   UNL     1      16.180   6.286  19.177  0.00  0.00    +0.010 A 
ATOM     37  C   UNL     1      18.226   6.879  21.041  0.00  0.00    +0.026 A 
ATOM     38  C   UNL     1      17.459   5.735  19.040  0.00  0.00    +0.001 A 
ATOM     39  C   UNL     1      18.465   6.027  19.958  0.00  0.00    +0.002 A 
ATOM     41  H   UNL     1      16.944   8.648  22.899  0.00  0.00    +0.165 HD
ENDBRANCH  26  29
ENDBRANCH  24  26
ENDBRANCH   9  24
ENDBRANCH  18  21
BRANCH  22  25
ATOM     25  C   UNL     1      12.052  14.064  23.606  0.00  0.00    +0.255 C 
BRANCH  25   3
ATOM      3  O   UNL     1      11.883  13.785  24.975  0.00  0.00    -0.374 OA
ATOM     36  C   UNL     1      10.790  12.900  25.211  0.00  0.00    +0.194 C 
ENDBRANCH  25   3
ENDBRANCH  22  25
TORSDOF 10
ENDMDL
MODEL 3
REMARK VINA RESULT:      -7.1     16.834     20.705
REMARK  Name = 11880087
REMARK  11 active torsions:
REMARK  status: ('A' for Active; 'I' for Inactive)
REMARK    1  A    between atoms: O_3  and  C_25
REMARK    2  A    between atoms: O_3  and  C_36
REMARK    3  A    between atoms: N_8  and  C_16
REMARK    4  A    between atoms: N_9  and  C_24
REMARK    5  A    between atoms: C_18  and  C_21
REMARK    6  A    between atoms: C_22  and  C_25
REMARK    7  A    between atoms: C_23  and  C_28
REMARK    8  A    between atoms: C_24  and  C_26
REMARK    9  A    between atoms: C_24  and  C_30
REMARK   10  A    between atoms: C_26  and  C_29
REMARK   11  A    between atoms: C_27  and  C_32
REMARK                            x       y       z     vdW  Elec       q    Type
REMARK                         _______ _______ _______ _____ _____    ______ ____
ROOT
ATOM      2  O   UNL     1      14.910  11.544   2.522  0.00  0.00    -0.273 OA
ATOM      7  N   UNL     1      14.546   9.360   3.246  0.00  0.00    -0.288 N 
ATOM     16  C   UNL     1      12.911   7.498   4.790  0.00  0.00    +0.113 C 
ATOM     17  C   UNL     1      14.429   7.287   4.654  0.00  0.00    +0.059 C 
ATOM     18  C   UNL     1      15.026   7.980   3.426  0.00  0.00    +0.164 C 
ATOM     19  C   UNL     1      12.567   8.990   4.696  0.00  0.00    +0.046 C 
ATOM     20  C   UNL     1      13.102   9.582   3.397  0.00  0.00    +0.111 C 
ATOM     22  C   UNL     1      15.343  10.422   2.799  0.00  0.00    +0.242 C 
ENDROOT
BRANCH  16   8
ATOM      8  N   UNL     1      12.366   6.868   5.999  0.00  0.00    -0.236 N 
ATOM     10  N   UNL     1      13.126   6.748   7.100  0.00  0.00    -0.064 NA
ATOM     11  N   UNL     1      12.386   6.150   8.028  0.00  0.00    -0.124 NA
ATOM     23  C   UNL     1      11.122   6.351   6.191  0.00  0.00    +0.156 A 
ATOM     27  C   UNL     1      11.156   5.900   7.487  0.00  0.00    +0.179 A 
BRANCH  23  28
ATOM      4  O   UNL     1       9.986   5.458   4.319  0.00  0.00    -0.269 OA
ATOM     13  N   UNL     1       9.065   7.288   5.320  0.00  0.00    -0.324 N 
ATOM     28  C   UNL     1      10.070   6.317   5.227  0.00  0.00    +0.262 C 
ATOM     42  H   UNL     1       9.076   7.997   6.044  0.00  0.00    +0.145 HD
ATOM     43  H   UNL     1       8.289   7.304   4.666  0.00  0.00    +0.145 HD
ENDBRANCH  23  28
BRANCH  27  32
ATOM      6  O   UNL     1       9.109   5.869   8.669  0.00  0.00    -0.269 OA
ATOM     15  N   UNL     1      10.187   3.878   8.402  0.00  0.00    -0.324 N 
ATOM     32  C   UNL     1      10.104   5.261   8.213  0.00  0.00    +0.264 C 
ATOM     46  H   UNL     1       9.463   3.375   8.904  0.00  0.00    +0.145 HD
ATOM     47  H   UNL     1      10.965   3.333   8.046  0.00  0.00    +0.145 HD
ENDBRANCH  27  32
ENDBRANCH  16   8
BRANCH  18  21
ATOM      1  O   UNL     1      14.779   7.790   1.057  0.00  0.00    -0.274 OA
ATOM      9  N   UNL     1      14.360   5.925   2.387  0.00  0.00    -0.302 N 
ATOM     21  C   UNL     1      14.721   7.242   2.155  0.00  0.00    +0.234 C 
ATOM     40  H   UNL     1      14.407   5.561   3.334  0.00  0.00    +0.150 HD
BRANCH   9  24
ATOM     24  C   UNL     1      13.997   5.007   1.333  0.00  0.00    +0.163 C 
BRANCH  24  30
ATOM      5  O   UNL     1      15.808   3.932   0.121  0.00  0.00    -0.274 OA
ATOM     14  N   UNL     1      15.444   3.335   2.310  0.00  0.00    -0.328 N 
ATOM     30  C   UNL     1      15.159   4.041   1.160  0.00  0.00    +0.231 C 
ATOM     44  H   UNL     1      16.207   2.666   2.333  0.00  0.00    +0.145 HD
ATOM     45  H   UNL     1      14.916   3.452   3.167  0.00  0.00    +0.145 HD
ENDBRANCH  24  30
BRANCH  24  26
ATOM     26  C   UNL     1      12.705   4.242   1.648  0.00  0.00    +0.069 C 
BRANCH  26  29
ATOM     12  N   UNL     1       9.809   4.943  -0.502  0.00  0.00    -0.360 N 
ATOM     29  C   UNL     1      11.664   4.375   0.574  0.00  0.00    -0.020 A 
ATOM     31  C   UNL     1      11.725   3.826  -0.738  0.00  0.00    +0.003 A 
ATOM     33  C   UNL     1      10.475   5.056   0.688  0.00  0.00    +0.087 A 
ATOM     34  C   UNL     1      10.548   4.197  -1.392  0.00  0.00    +0.047 A 
ATOM     35  C   UNL     1      12.671   3.046  -1.433  0.00  0.00    +0.010 A 
ATOM     37  C   UNL     1      10.269   3.826  -2.712  0.00  0.00    +0.026 A 
ATOM     38  C   UNL     1      12.404   2.669  -2.754  0.00  0.00    +0.001 A 
ATOM     39  C   UNL     1      11.222   3.053  -3.382  0.00  0.00    +0.002 A 
ATOM     41  H   UNL     1       8.904   5.347  -0.700  0.00  0.00    +0.165 HD
ENDBRANCH  26  29
ENDBRANCH  24  26
ENDBRANCH   9  24
ENDBRANCH  18  21
BRANCH  22  25
ATOM     25  C   UNL     1      16.822  10.153   2.668  0.00  0.00    +0.255 C 
BRANCH  25   3
ATOM      3  O   UNL     1      17.390  10.412   3.929  0.00  0.00    -0.374 OA
ATOM     36  C   UNL     1      18.462   9.520   4.228  0.00  0.00    +0.194 C 
ENDBRANCH  25   3
ENDBRANCH  22  25
TORSDOF 10
ENDMDL
MODEL 4
REMARK VINA RESULT:      -7.0      2.537      5.685
REMARK  Name = 11880087
REMARK  11 active torsions:
REMARK  status: ('A' for Active; 'I' for Inactive)
REMARK    1  A    between atoms: O_3  and  C_25
REMARK    2  A    between atoms: O_3  and  C_36
REMARK    3  A    between atoms: N_8  and  C_16
REMARK    4  A    between atoms: N_9  and  C_24
REMARK    5  A    between atoms: C_18  and  C_21
REMARK    6  A    between atoms: C_22  and  C_25
REMARK    7  A    between atoms: C_23  and  C_28
REMARK    8  A    between atoms: C_24  and  C_26
REMARK    9  A    between atoms: C_24  and  C_30
REMARK   10  A    between atoms: C_26  and  C_29
REMARK   11  A    between atoms: C_27  and  C_32
REMARK                            x       y       z     vdW  Elec       q    Type
REMARK                         _______ _______ _______ _____ _____    ______ ____
ROOT
ATOM      2  O   UNL     1      16.195  14.482  22.431  0.00  0.00    -0.273 OA
ATOM      7  N   UNL     1      15.994  12.216  21.931  0.00  0.00    -0.288 N 
ATOM     16  C   UNL     1      17.239   9.578  21.830  0.00  0.00    +0.113 C 
ATOM     17  C   UNL     1      16.171   9.984  20.801  0.00  0.00    +0.059 C 
ATOM     18  C   UNL     1      15.260  11.113  21.291  0.00  0.00    +0.164 C 
ATOM     19  C   UNL     1      18.001  10.812  22.328  0.00  0.00    +0.046 C 
ATOM     20  C   UNL     1      17.034  11.844  22.898  0.00  0.00    +0.111 C 
ATOM     22  C   UNL     1      15.664  13.571  21.791  0.00  0.00    +0.242 C 
ENDROOT
BRANCH  16   8
ATOM      8  N   UNL     1      18.133   8.529  21.323  0.00  0.00    -0.236 N 
ATOM     10  N   UNL     1      19.454   8.755  21.228  0.00  0.00    -0.064 NA
ATOM     11  N   UNL     1      20.010   7.648  20.747  0.00  0.00    -0.124 NA
ATOM     23  C   UNL     1      17.807   7.275  20.907  0.00  0.00    +0.156 A 
ATOM     27  C   UNL     1      19.015   6.732  20.545  0.00  0.00    +0.179 A 
BRANCH  23  28
ATOM      4  O   UNL     1      15.846   6.518  19.825  0.00  0.00    -0.269 OA
ATOM     13  N   UNL     1      15.915   6.342  22.097  0.00  0.00    -0.324 N 
ATOM     28  C   UNL     1      16.496   6.714  20.879  0.00  0.00    +0.262 C 
ATOM     42  H   UNL     1      16.403   6.465  22.978  0.00  0.00    +0.145 HD
ATOM     43  H   UNL     1      14.988   5.931  22.133  0.00  0.00    +0.145 HD
ENDBRANCH  23  28
BRANCH  27  32
ATOM      6  O   UNL     1      20.165   4.668  20.456  0.00  0.00    -0.269 OA
ATOM     15  N   UNL     1      18.424   4.952  19.013  0.00  0.00    -0.324 N 
ATOM     32  C   UNL     1      19.260   5.421  20.031  0.00  0.00    +0.264 C 
ATOM     46  H   UNL     1      18.551   4.025  18.618  0.00  0.00    +0.145 HD
ATOM     47  H   UNL     1      17.668   5.514  18.636  0.00  0.00    +0.145 HD
ENDBRANCH  27  32
ENDBRANCH  16   8
BRANCH  18  21
ATOM      1  O   UNL     1      14.526  10.450  23.466  0.00  0.00    -0.274 OA
ATOM      9  N   UNL     1      13.008  10.403  21.702  0.00  0.00    -0.302 N 
ATOM     21  C   UNL     1      14.244  10.629  22.284  0.00  0.00    +0.234 C 
ATOM     40  H   UNL     1      12.871  10.645  20.725  0.00  0.00    +0.150 HD
BRANCH   9  24
ATOM     24  C   UNL     1      11.865   9.912  22.437  0.00  0.00    +0.163 C 
BRANCH  24  30
ATOM      5  O   UNL     1      10.868  11.250  24.204  0.00  0.00    -0.274 OA
ATOM     14  N   UNL     1      10.894  12.095  22.067  0.00  0.00    -0.328 N 
ATOM     30  C   UNL     1      11.149  11.125  23.013  0.00  0.00    +0.231 C 
ATOM     44  H   UNL     1      10.432  12.962  22.323  0.00  0.00    +0.145 HD
ATOM     45  H   UNL     1      11.153  11.988  21.092  0.00  0.00    +0.145 HD
ENDBRANCH  24  30
BRANCH  24  26
ATOM     26  C   UNL     1      10.913   9.096  21.554  0.00  0.00    +0.069 C 
BRANCH  26  29
ATOM     12  N   UNL     1      12.537   6.380  19.685  0.00  0.00    -0.360 N 
ATOM     29  C   UNL     1      11.629   8.189  20.595  0.00  0.00    -0.020 A 
ATOM     31  C   UNL     1      12.194   8.558  19.342  0.00  0.00    +0.003 A 
ATOM     33  C   UNL     1      11.856   6.845  20.778  0.00  0.00    +0.087 A 
ATOM     34  C   UNL     1      12.758   7.404  18.792  0.00  0.00    +0.047 A 
ATOM     35  C   UNL     1      12.281   9.765  18.621  0.00  0.00    +0.010 A 
ATOM     37  C   UNL     1      13.406   7.398  17.551  0.00  0.00    +0.026 A 
ATOM     38  C   UNL     1      12.926   9.773  17.379  0.00  0.00    +0.001 A 
ATOM     39  C   UNL     1      13.479   8.607  16.854  0.00  0.00    +0.002 A 
ATOM     41  H   UNL     1      12.836   5.424  19.553  0.00  0.00    +0.165 HD
ENDBRANCH  26  29
ENDBRANCH  24  26
ENDBRANCH   9  24
ENDBRANCH  18  21
BRANCH  22  25
ATOM     25  C   UNL     1      14.598  13.909  20.778  0.00  0.00    +0.255 C 
BRANCH  25   3
ATOM      3  O   UNL     1      15.259  14.486  19.678  0.00  0.00    -0.374 OA
ATOM     36  C   UNL     1      15.311  13.602  18.560  0.00  0.00    +0.194 C 
ENDBRANCH  25   3
ENDBRANCH  22  25
TORSDOF 10
ENDMDL
MODEL 5
REMARK VINA RESULT:      -6.9      2.499      3.032
REMARK  Name = 11880087
REMARK  11 active torsions:
REMARK  status: ('A' for Active; 'I' for Inactive)
REMARK    1  A    between atoms: O_3  and  C_25
REMARK    2  A    between atoms: O_3  and  C_36
REMARK    3  A    between atoms: N_8  and  C_16
REMARK    4  A    between atoms: N_9  and  C_24
REMARK    5  A    between atoms: C_18  and  C_21
REMARK    6  A    between atoms: C_22  and  C_25
REMARK    7  A    between atoms: C_23  and  C_28
REMARK    8  A    between atoms: C_24  and  C_26
REMARK    9  A    between atoms: C_24  and  C_30
REMARK   10  A    between atoms: C_26  and  C_29
REMARK   11  A    between atoms: C_27  and  C_32
REMARK                            x       y       z     vdW  Elec       q    Type
REMARK                         _______ _______ _______ _____ _____    ______ ____
ROOT
ATOM      2  O   UNL     1      10.962   8.380  19.450  0.00  0.00    -0.273 OA
ATOM      7  N   UNL     1      13.005   8.352  20.568  0.00  0.00    -0.288 N 
ATOM     16  C   UNL     1      15.891   7.928  20.453  0.00  0.00    +0.113 C 
ATOM     17  C   UNL     1      15.096   7.590  21.726  0.00  0.00    +0.059 C 
ATOM     18  C   UNL     1      13.769   8.348  21.826  0.00  0.00    +0.164 C 
ATOM     19  C   UNL     1      15.003   7.782  19.212  0.00  0.00    +0.046 C 
ATOM     20  C   UNL     1      13.755   8.648  19.341  0.00  0.00    +0.111 C 
ATOM     22  C   UNL     1      11.611   8.243  20.491  0.00  0.00    +0.242 C 
ENDROOT
BRANCH  16   8
ATOM      8  N   UNL     1      17.136   7.156  20.351  0.00  0.00    -0.236 N 
ATOM     10  N   UNL     1      17.164   6.009  19.653  0.00  0.00    -0.064 NA
ATOM     11  N   UNL     1      18.402   5.531  19.728  0.00  0.00    -0.124 NA
ATOM     23  C   UNL     1      18.351   7.443  20.892  0.00  0.00    +0.156 A 
ATOM     27  C   UNL     1      19.142   6.398  20.484  0.00  0.00    +0.179 A 
BRANCH  23  28
ATOM      4  O   UNL     1      18.520   9.766  21.300  0.00  0.00    -0.269 OA
ATOM     13  N   UNL     1      19.144   8.365  22.987  0.00  0.00    -0.324 N 
ATOM     28  C   UNL     1      18.666   8.584  21.690  0.00  0.00    +0.262 C 
ATOM     42  H   UNL     1      19.268   7.430  23.357  0.00  0.00    +0.145 HD
ATOM     43  H   UNL     1      19.376   9.141  23.599  0.00  0.00    +0.145 HD
ENDBRANCH  23  28
BRANCH  27  32
ATOM      6  O   UNL     1      20.946   5.313  21.558  0.00  0.00    -0.269 OA
ATOM     15  N   UNL     1      21.457   7.001  20.114  0.00  0.00    -0.324 N 
ATOM     32  C   UNL     1      20.526   6.191  20.771  0.00  0.00    +0.264 C 
ATOM     46  H   UNL     1      22.453   6.890  20.277  0.00  0.00    +0.145 HD
ATOM     47  H   UNL     1      21.175   7.723  19.458  0.00  0.00    +0.145 HD
ENDBRANCH  27  32
ENDBRANCH  16   8
BRANCH  18  21
ATOM      1  O   UNL     1      15.011  10.382  21.992  0.00  0.00    -0.274 OA
ATOM      9  N   UNL     1      12.859  10.301  22.878  0.00  0.00    -0.302 N 
ATOM     21  C   UNL     1      13.965   9.782  22.224  0.00  0.00    +0.234 C 
ATOM     40  H   UNL     1      12.022   9.731  22.959  0.00  0.00    +0.150 HD
BRANCH   9  24
ATOM     24  C   UNL     1      12.802  11.652  23.382  0.00  0.00    +0.163 C 
BRANCH  24  30
ATOM      5  O   UNL     1      12.565  13.116  21.457  0.00  0.00    -0.274 OA
ATOM     14  N   UNL     1      10.665  12.397  22.531  0.00  0.00    -0.328 N 
ATOM     30  C   UNL     1      12.031  12.479  22.363  0.00  0.00    +0.231 C 
ATOM     44  H   UNL     1      10.034  12.891  21.908  0.00  0.00    +0.145 HD
ATOM     45  H   UNL     1      10.238  11.849  23.269  0.00  0.00    +0.145 HD
ENDBRANCH  24  30
BRANCH  24  26
ATOM     26  C   UNL     1      12.126  11.731  24.758  0.00  0.00    +0.069 C 
BRANCH  26  29
ATOM     12  N   UNL     1      13.153  14.558  26.870  0.00  0.00    -0.360 N 
ATOM     29  C   UNL     1      12.776  12.725  25.677  0.00  0.00    -0.020 A 
ATOM     31  C   UNL     1      14.018  12.568  26.354  0.00  0.00    +0.003 A 
ATOM     33  C   UNL     1      12.268  13.958  26.014  0.00  0.00    +0.087 A 
ATOM     34  C   UNL     1      14.231  13.733  27.095  0.00  0.00    +0.047 A 
ATOM     35  C   UNL     1      14.985  11.544  26.407  0.00  0.00    +0.010 A 
ATOM     37  C   UNL     1      15.366  13.925  27.890  0.00  0.00    +0.026 A 
ATOM     38  C   UNL     1      16.125  11.724  27.198  0.00  0.00    +0.001 A 
ATOM     39  C   UNL     1      16.311  12.895  27.928  0.00  0.00    +0.002 A 
ATOM     41  H   UNL     1      13.033  15.475  27.277  0.00  0.00    +0.165 HD
ENDBRANCH  26  29
ENDBRANCH  24  26
ENDBRANCH   9  24
ENDBRANCH  18  21
BRANCH  22  25
ATOM     25  C   UNL     1      10.881   7.927  21.773  0.00  0.00    +0.255 C 
BRANCH  25   3
ATOM      3  O   UNL     1      10.225   6.699  21.569  0.00  0.00    -0.374 OA
ATOM     36  C   UNL     1      11.125   5.594  21.628  0.00  0.00    +0.194 C 
ENDBRANCH  25   3
ENDBRANCH  22  25
TORSDOF 10
ENDMDL
MODEL 6
REMARK VINA RESULT:      -6.8     27.894     31.633
REMARK  Name = 11880087
REMARK  11 active torsions:
REMARK  status: ('A' for Active; 'I' for Inactive)
REMARK    1  A    between atoms: O_3  and  C_25
REMARK    2  A    between atoms: O_3  and  C_36
REMARK    3  A    between atoms: N_8  and  C_16
REMARK    4  A    between atoms: N_9  and  C_24
REMARK    5  A    between atoms: C_18  and  C_21
REMARK    6  A    between atoms: C_22  and  C_25
REMARK    7  A    between atoms: C_23  and  C_28
REMARK    8  A    between atoms: C_24  and  C_26
REMARK    9  A    between atoms: C_24  and  C_30
REMARK   10  A    between atoms: C_26  and  C_29
REMARK   11  A    between atoms: C_27  and  C_32
REMARK                            x       y       z     vdW  Elec       q    Type
REMARK                         _______ _______ _______ _____ _____    ______ ____
ROOT
ATOM      2  O   UNL     1     -18.683   1.066  23.804  0.00  0.00    -0.273 OA
ATOM      7  N   UNL     1     -17.636   2.591  25.220  0.00  0.00    -0.288 N 
ATOM     16  C   UNL     1     -16.341   3.110  27.784  0.00  0.00    +0.113 C 
ATOM     17  C   UNL     1     -17.167   4.203  27.084  0.00  0.00    +0.059 C 
ATOM     18  C   UNL     1     -17.304   3.980  25.575  0.00  0.00    +0.164 C 
ATOM     19  C   UNL     1     -16.867   1.719  27.412  0.00  0.00    +0.046 C 
ATOM     20  C   UNL     1     -16.873   1.536  25.898  0.00  0.00    +0.111 C 
ATOM     22  C   UNL     1     -18.510   2.227  24.187  0.00  0.00    +0.242 C 
ENDROOT
BRANCH  16   8
ATOM      8  N   UNL     1     -16.261   3.315  29.236  0.00  0.00    -0.236 N 
ATOM     10  N   UNL     1     -17.039   4.232  29.832  0.00  0.00    -0.064 NA
ATOM     11  N   UNL     1     -16.762   4.200  31.132  0.00  0.00    -0.124 NA
ATOM     23  C   UNL     1     -15.466   2.671  30.134  0.00  0.00    +0.156 A 
ATOM     27  C   UNL     1     -15.800   3.249  31.333  0.00  0.00    +0.179 A 
BRANCH  23  28
ATOM      4  O   UNL     1     -14.848   0.470  29.530  0.00  0.00    -0.269 OA
ATOM     13  N   UNL     1     -13.164   1.970  29.862  0.00  0.00    -0.324 N 
ATOM     28  C   UNL     1     -14.524   1.642  29.835  0.00  0.00    +0.262 C 
ATOM     42  H   UNL     1     -12.847   2.906  30.088  0.00  0.00    +0.145 HD
ATOM     43  H   UNL     1     -12.453   1.278  29.649  0.00  0.00    +0.145 HD
ENDBRANCH  23  28
BRANCH  27  32
ATOM      6  O   UNL     1     -14.121   2.472  32.804  0.00  0.00    -0.269 OA
ATOM     15  N   UNL     1     -16.057   3.227  33.741  0.00  0.00    -0.324 N 
ATOM     32  C   UNL     1     -15.264   2.949  32.623  0.00  0.00    +0.264 C 
ATOM     46  H   UNL     1     -15.720   3.040  34.680  0.00  0.00    +0.145 HD
ATOM     47  H   UNL     1     -16.987   3.623  33.655  0.00  0.00    +0.145 HD
ENDBRANCH  27  32
ENDBRANCH  16   8
BRANCH  18  21
ATOM      1  O   UNL     1     -15.031   3.651  24.921  0.00  0.00    -0.274 OA
ATOM      9  N   UNL     1     -16.186   5.494  24.091  0.00  0.00    -0.302 N 
ATOM     21  C   UNL     1     -16.048   4.333  24.834  0.00  0.00    +0.234 C 
ATOM     40  H   UNL     1     -17.096   5.944  24.043  0.00  0.00    +0.150 HD
BRANCH   9  24
ATOM     24  C   UNL     1     -15.115   6.061  23.305  0.00  0.00    +0.163 C 
BRANCH  24  30
ATOM      5  O   UNL     1     -15.410   4.616  21.374  0.00  0.00    -0.274 OA
ATOM     14  N   UNL     1     -13.401   4.566  22.487  0.00  0.00    -0.328 N 
ATOM     30  C   UNL     1     -14.694   5.005  22.294  0.00  0.00    +0.231 C 
ATOM     44  H   UNL     1     -12.991   3.870  21.872  0.00  0.00    +0.145 HD
ATOM     45  H   UNL     1     -12.813   4.913  23.237  0.00  0.00    +0.145 HD
ENDBRANCH  24  30
BRANCH  24  26
ATOM     26  C   UNL     1     -15.539   7.350  22.589  0.00  0.00    +0.069 C 
BRANCH  26  29
ATOM     12  N   UNL     1     -12.929   9.937  22.558  0.00  0.00    -0.360 N 
ATOM     29  C   UNL     1     -14.393   8.285  22.330  0.00  0.00    -0.020 A 
ATOM     31  C   UNL     1     -13.510   8.254  21.214  0.00  0.00    +0.003 A 
ATOM     33  C   UNL     1     -14.010   9.330  23.138  0.00  0.00    +0.087 A 
ATOM     34  C   UNL     1     -12.601   9.301  21.381  0.00  0.00    +0.047 A 
ATOM     35  C   UNL     1     -13.397   7.434  20.074  0.00  0.00    +0.010 A 
ATOM     37  C   UNL     1     -11.581   9.570  20.462  0.00  0.00    +0.026 A 
ATOM     38  C   UNL     1     -12.381   7.691  19.146  0.00  0.00    +0.001 A 
ATOM     39  C   UNL     1     -11.488   8.743  19.339  0.00  0.00    +0.002 A 
ATOM     41  H   UNL     1     -12.441  10.737  22.937  0.00  0.00    +0.165 HD
ENDBRANCH  26  29
ENDBRANCH  24  26
ENDBRANCH   9  24
ENDBRANCH  18  21
BRANCH  22  25
ATOM     25  C   UNL     1     -19.282   3.341  23.525  0.00  0.00    +0.255 C 
BRANCH  25   3
ATOM      3  O   UNL     1     -18.495   3.789  22.448  0.00  0.00    -0.374 OA
ATOM     36  C   UNL     1     -18.965   5.028  21.920  0.00  0.00    +0.194 C 
ENDBRANCH  25   3
ENDBRANCH  22  25
TORSDOF 10
ENDMDL
MODEL 7
REMARK VINA RESULT:      -6.7     27.653     30.736
REMARK  Name = 11880087
REMARK  11 active torsions:
REMARK  status: ('A' for Active; 'I' for Inactive)
REMARK    1  A    between atoms: O_3  and  C_25
REMARK    2  A    between atoms: O_3  and  C_36
REMARK    3  A    between atoms: N_8  and  C_16
REMARK    4  A    between atoms: N_9  and  C_24
REMARK    5  A    between atoms: C_18  and  C_21
REMARK    6  A    between atoms: C_22  and  C_25
REMARK    7  A    between atoms: C_23  and  C_28
REMARK    8  A    between atoms: C_24  and  C_26
REMARK    9  A    between atoms: C_24  and  C_30
REMARK   10  A    between atoms: C_26  and  C_29
REMARK   11  A    between atoms: C_27  and  C_32
REMARK                            x       y       z     vdW  Elec       q    Type
REMARK                         _______ _______ _______ _____ _____    ______ ____
ROOT
ATOM      2  O   UNL     1      -1.122 -11.437  15.215  0.00  0.00    -0.273 OA
ATOM      7  N   UNL     1      -3.446 -11.424  15.368  0.00  0.00    -0.288 N 
ATOM     16  C   UNL     1      -5.823 -10.940  16.992  0.00  0.00    +0.113 C 
ATOM     17  C   UNL     1      -5.818 -12.034  15.911  0.00  0.00    +0.059 C 
ATOM     18  C   UNL     1      -4.761 -11.805  14.827  0.00  0.00    +0.164 C 
ATOM     19  C   UNL     1      -4.409 -10.726  17.545  0.00  0.00    +0.046 C 
ATOM     20  C   UNL     1      -3.436 -10.399  16.418  0.00  0.00    +0.111 C 
ATOM     22  C   UNL     1      -2.221 -11.861  14.847  0.00  0.00    +0.242 C 
ENDROOT
BRANCH  16   8
ATOM      8  N   UNL     1      -6.809 -11.202  18.047  0.00  0.00    -0.236 N 
ATOM     10  N   UNL     1      -6.497 -12.003  19.079  0.00  0.00    -0.064 NA
ATOM     11  N   UNL     1      -7.563 -12.059  19.872  0.00  0.00    -0.124 NA
ATOM     23  C   UNL     1      -8.080 -10.725  18.149  0.00  0.00    +0.156 A 
ATOM     27  C   UNL     1      -8.541 -11.282  19.316  0.00  0.00    +0.179 A 
BRANCH  23  28
ATOM      4  O   UNL     1      -9.104 -10.202  16.083  0.00  0.00    -0.269 OA
ATOM     13  N   UNL     1      -8.966  -8.532  17.628  0.00  0.00    -0.324 N 
ATOM     28  C   UNL     1      -8.725  -9.850  17.224  0.00  0.00    +0.262 C 
ATOM     42  H   UNL     1      -8.693  -8.199  18.546  0.00  0.00    +0.145 HD
ATOM     43  H   UNL     1      -9.428  -7.871  17.013  0.00  0.00    +0.145 HD
ENDBRANCH  23  28
BRANCH  27  32
ATOM      6  O   UNL     1     -10.497 -10.058  19.831  0.00  0.00    -0.269 OA
ATOM     15  N   UNL     1     -10.379 -12.202  20.596  0.00  0.00    -0.324 N 
ATOM     32  C   UNL     1      -9.830 -11.115  19.910  0.00  0.00    +0.264 C 
ATOM     46  H   UNL     1     -11.295 -12.138  21.029  0.00  0.00    +0.145 HD
ATOM     47  H   UNL     1      -9.888 -13.086  20.684  0.00  0.00    +0.145 HD
ENDBRANCH  27  32
ENDBRANCH  16   8
BRANCH  18  21
ATOM      1  O   UNL     1      -5.906  -9.808  14.189  0.00  0.00    -0.274 OA
ATOM      9  N   UNL     1      -4.626 -10.929  12.600  0.00  0.00    -0.302 N 
ATOM     21  C   UNL     1      -5.165 -10.730  13.860  0.00  0.00    +0.234 C 
ATOM     40  H   UNL     1      -3.974 -11.694  12.457  0.00  0.00    +0.150 HD
BRANCH   9  24
ATOM     24  C   UNL     1      -4.880 -10.048  11.484  0.00  0.00    +0.163 C 
BRANCH  24  30
ATOM      5  O   UNL     1      -3.389  -8.902   9.945  0.00  0.00    -0.274 OA
ATOM     14  N   UNL     1      -2.472 -10.246  11.568  0.00  0.00    -0.328 N 
ATOM     30  C   UNL     1      -3.529  -9.672  10.893  0.00  0.00    +0.231 C 
ATOM     44  H   UNL     1      -1.515 -10.065  11.284  0.00  0.00    +0.145 HD
ATOM     45  H   UNL     1      -2.602 -10.861  12.364  0.00  0.00    +0.145 HD
ENDBRANCH  24  30
BRANCH  24  26
ATOM     26  C   UNL     1      -5.769 -10.702  10.418  0.00  0.00    +0.069 C 
BRANCH  26  29
ATOM     12  N   UNL     1      -8.174  -8.144   9.330  0.00  0.00    -0.360 N 
ATOM     29  C   UNL     1      -6.659  -9.720   9.710  0.00  0.00    -0.020 A 
ATOM     31  C   UNL     1      -6.723  -9.495   8.306  0.00  0.00    +0.003 A 
ATOM     33  C   UNL     1      -7.561  -8.875  10.312  0.00  0.00    +0.087 A 
ATOM     34  C   UNL     1      -7.682  -8.502   8.094  0.00  0.00    +0.047 A 
ATOM     35  C   UNL     1      -6.057 -10.043   7.192  0.00  0.00    +0.010 A 
ATOM     37  C   UNL     1      -8.009  -8.026   6.819  0.00  0.00    +0.026 A 
ATOM     38  C   UNL     1      -6.374  -9.577   5.911  0.00  0.00    +0.001 A 
ATOM     39  C   UNL     1      -7.335  -8.584   5.729  0.00  0.00    +0.002 A 
ATOM     41  H   UNL     1      -8.885  -7.444   9.488  0.00  0.00    +0.165 HD
ENDBRANCH  26  29
ENDBRANCH  24  26
ENDBRANCH   9  24
ENDBRANCH  18  21
BRANCH  22  25
ATOM     25  C   UNL     1      -2.277 -12.923  13.777  0.00  0.00    +0.255 C 
BRANCH  25   3
ATOM      3  O   UNL     1      -2.106 -14.158  14.429  0.00  0.00    -0.374 OA
ATOM     36  C   UNL     1      -3.144 -15.082  14.107  0.00  0.00    +0.194 C 
ENDBRANCH  25   3
ENDBRANCH  22  25
TORSDOF 10
ENDMDL
MODEL 8
REMARK VINA RESULT:      -6.6     26.977     30.469
REMARK  Name = 11880087
REMARK  11 active torsions:
REMARK  status: ('A' for Active; 'I' for Inactive)
REMARK    1  A    between atoms: O_3  and  C_25
REMARK    2  A    between atoms: O_3  and  C_36
REMARK    3  A    between atoms: N_8  and  C_16
REMARK    4  A    between atoms: N_9  and  C_24
REMARK    5  A    between atoms: C_18  and  C_21
REMARK    6  A    between atoms: C_22  and  C_25
REMARK    7  A    between atoms: C_23  and  C_28
REMARK    8  A    between atoms: C_24  and  C_26
REMARK    9  A    between atoms: C_24  and  C_30
REMARK   10  A    between atoms: C_26  and  C_29
REMARK   11  A    between atoms: C_27  and  C_32
REMARK                            x       y       z     vdW  Elec       q    Type
REMARK                         _______ _______ _______ _____ _____    ______ ____
ROOT
ATOM      2  O   UNL     1      -1.565 -12.717  12.970  0.00  0.00    -0.273 OA
ATOM      7  N   UNL     1      -3.176 -11.437  11.877  0.00  0.00    -0.288 N 
ATOM     16  C   UNL     1      -4.913 -11.089   9.556  0.00  0.00    +0.113 C 
ATOM     17  C   UNL     1      -4.324  -9.871  10.288  0.00  0.00    +0.059 C 
ATOM     18  C   UNL     1      -3.919 -10.175  11.734  0.00  0.00    +0.164 C 
ATOM     19  C   UNL     1      -3.982 -12.300   9.695  0.00  0.00    +0.046 C 
ATOM     20  C   UNL     1      -3.712 -12.603  11.164  0.00  0.00    +0.111 C 
ATOM     22  C   UNL     1      -2.100 -11.625  12.754  0.00  0.00    +0.242 C 
ENDROOT
BRANCH  16   8
ATOM      8  N   UNL     1      -5.249 -10.791   8.158  0.00  0.00    -0.236 N 
ATOM     10  N   UNL     1      -4.576 -11.387   7.160  0.00  0.00    -0.064 NA
ATOM     11  N   UNL     1      -5.086 -10.938   6.018  0.00  0.00    -0.124 NA
ATOM     23  C   UNL     1      -6.205  -9.947   7.684  0.00  0.00    +0.156 A 
ATOM     27  C   UNL     1      -6.085 -10.055   6.322  0.00  0.00    +0.179 A 
BRANCH  23  28
ATOM      4  O   UNL     1      -8.057  -9.637   9.122  0.00  0.00    -0.269 OA
ATOM     13  N   UNL     1      -6.867  -7.781   8.543  0.00  0.00    -0.324 N 
ATOM     28  C   UNL     1      -7.096  -9.160   8.474  0.00  0.00    +0.262 C 
ATOM     42  H   UNL     1      -6.096  -7.345   8.050  0.00  0.00    +0.145 HD
ATOM     43  H   UNL     1      -7.465  -7.176   9.096  0.00  0.00    +0.145 HD
ENDBRANCH  23  28
BRANCH  27  32
ATOM      6  O   UNL     1      -7.065  -8.145   5.333  0.00  0.00    -0.269 OA
ATOM     15  N   UNL     1      -7.370 -10.139   4.271  0.00  0.00    -0.324 N 
ATOM     32  C   UNL     1      -6.852  -9.378   5.323  0.00  0.00    +0.264 C 
ATOM     46  H   UNL     1      -7.915  -9.705   3.532  0.00  0.00    +0.145 HD
ATOM     47  H   UNL     1      -7.221 -11.141   4.206  0.00  0.00    +0.145 HD
ENDBRANCH  27  32
ENDBRANCH  16   8
BRANCH  18  21
ATOM      1  O   UNL     1      -6.219  -9.872  12.303  0.00  0.00    -0.274 OA
ATOM      9  N   UNL     1      -4.778 -10.790  13.885  0.00  0.00    -0.302 N 
ATOM     21  C   UNL     1      -5.106 -10.259  12.648  0.00  0.00    +0.234 C 
ATOM     40  H   UNL     1      -3.836 -11.136  14.039  0.00  0.00    +0.150 HD
BRANCH   9  24
ATOM     24  C   UNL     1      -5.737 -10.957  14.952  0.00  0.00    +0.163 C 
BRANCH  24  30
ATOM      5  O   UNL     1      -6.143 -13.106  16.010  0.00  0.00    -0.274 OA
ATOM     14  N   UNL     1      -3.998 -12.282  15.983  0.00  0.00    -0.328 N 
ATOM     30  C   UNL     1      -5.348 -12.217  15.711  0.00  0.00    +0.231 C 
ATOM     44  H   UNL     1      -3.604 -13.079  16.474  0.00  0.00    +0.145 HD
ATOM     45  H   UNL     1      -3.350 -11.551  15.710  0.00  0.00    +0.145 HD
ENDBRANCH  24  30
BRANCH  24  26
ATOM     26  C   UNL     1      -5.770  -9.749  15.898  0.00  0.00    +0.069 C 
BRANCH  26  29
ATOM     12  N   UNL     1      -8.169  -9.969  18.673  0.00  0.00    -0.360 N 
ATOM     29  C   UNL     1      -6.944  -9.765  16.834  0.00  0.00    -0.020 A 
ATOM     31  C   UNL     1      -8.297  -9.480  16.500  0.00  0.00    +0.003 A 
ATOM     33  C   UNL     1      -6.896 -10.062  18.177  0.00  0.00    +0.087 A 
ATOM     34  C   UNL     1      -9.046  -9.615  17.673  0.00  0.00    +0.047 A 
ATOM     35  C   UNL     1      -8.961  -9.120  15.311  0.00  0.00    +0.010 A 
ATOM     37  C   UNL     1     -10.428  -9.406  17.715  0.00  0.00    +0.026 A 
ATOM     38  C   UNL     1     -10.344  -8.908  15.339  0.00  0.00    +0.001 A 
ATOM     39  C   UNL     1     -11.065  -9.049  16.522  0.00  0.00    +0.002 A 
ATOM     41  H   UNL     1      -8.428 -10.136  19.636  0.00  0.00    +0.165 HD
ENDBRANCH  26  29
ENDBRANCH  24  26
ENDBRANCH   9  24
ENDBRANCH  18  21
BRANCH  22  25
ATOM     25  C   UNL     1      -1.573 -10.399  13.457  0.00  0.00    +0.255 C 
BRANCH  25   3
ATOM      3  O   UNL     1      -2.002 -10.488  14.794  0.00  0.00    -0.374 OA
ATOM     36  C   UNL     1      -0.979 -10.105  15.711  0.00  0.00    +0.194 C 
ENDBRANCH  25   3
ENDBRANCH  22  25
TORSDOF 10
ENDMDL
MODEL 9
REMARK VINA RESULT:      -6.6     27.657     31.036
REMARK  Name = 11880087
REMARK  11 active torsions:
REMARK  status: ('A' for Active; 'I' for Inactive)
REMARK    1  A    between atoms: O_3  and  C_25
REMARK    2  A    between atoms: O_3  and  C_36
REMARK    3  A    between atoms: N_8  and  C_16
REMARK    4  A    between atoms: N_9  and  C_24
REMARK    5  A    between atoms: C_18  and  C_21
REMARK    6  A    between atoms: C_22  and  C_25
REMARK    7  A    between atoms: C_23  and  C_28
REMARK    8  A    between atoms: C_24  and  C_26
REMARK    9  A    between atoms: C_24  and  C_30
REMARK   10  A    between atoms: C_26  and  C_29
REMARK   11  A    between atoms: C_27  and  C_32
REMARK                            x       y       z     vdW  Elec       q    Type
REMARK                         _______ _______ _______ _____ _____    ______ ____
ROOT
ATOM      2  O   UNL     1      -1.040 -11.374  15.178  0.00  0.00    -0.273 OA
ATOM      7  N   UNL     1      -3.363 -11.475  15.305  0.00  0.00    -0.288 N 
ATOM     16  C   UNL     1      -5.777 -11.132  16.910  0.00  0.00    +0.113 C 
ATOM     17  C   UNL     1      -5.709 -12.206  15.811  0.00  0.00    +0.059 C 
ATOM     18  C   UNL     1      -4.652 -11.909  14.743  0.00  0.00    +0.164 C 
ATOM     19  C   UNL     1      -4.381 -10.860  17.483  0.00  0.00    +0.046 C 
ATOM     20  C   UNL     1      -3.414 -10.468  16.372  0.00  0.00    +0.111 C 
ATOM     22  C   UNL     1      -2.113 -11.844  14.791  0.00  0.00    +0.242 C 
ENDROOT
BRANCH  16   8
ATOM      8  N   UNL     1      -6.761 -11.459  17.950  0.00  0.00    -0.236 N 
ATOM     10  N   UNL     1      -6.447 -12.322  18.930  0.00  0.00    -0.064 NA
ATOM     11  N   UNL     1      -7.510 -12.427  19.720  0.00  0.00    -0.124 NA
ATOM     23  C   UNL     1      -8.031 -10.988  18.085  0.00  0.00    +0.156 A 
ATOM     27  C   UNL     1      -8.489 -11.616  19.216  0.00  0.00    +0.179 A 
BRANCH  23  28
ATOM      4  O   UNL     1      -9.278 -10.388  16.168  0.00  0.00    -0.269 OA
ATOM     13  N   UNL     1      -8.658  -8.705  17.575  0.00  0.00    -0.324 N 
ATOM     28  C   UNL     1      -8.678 -10.058  17.217  0.00  0.00    +0.262 C 
ATOM     42  H   UNL     1      -8.199  -8.386  18.421  0.00  0.00    +0.145 HD
ATOM     43  H   UNL     1      -9.110  -8.003  16.998  0.00  0.00    +0.145 HD
ENDBRANCH  23  28
BRANCH  27  32
ATOM      6  O   UNL     1     -10.626 -12.404  19.848  0.00  0.00    -0.269 OA
ATOM     15  N   UNL     1     -10.088 -10.270  20.439  0.00  0.00    -0.324 N 
ATOM     32  C   UNL     1      -9.777 -11.485  19.823  0.00  0.00    +0.264 C 
ATOM     46  H   UNL     1     -10.986 -10.128  20.891  0.00  0.00    +0.145 HD
ATOM     47  H   UNL     1      -9.435  -9.493  20.458  0.00  0.00    +0.145 HD
ENDBRANCH  27  32
ENDBRANCH  16   8
BRANCH  18  21
ATOM      1  O   UNL     1      -5.886  -9.960  14.125  0.00  0.00    -0.274 OA
ATOM      9  N   UNL     1      -4.535 -10.990  12.533  0.00  0.00    -0.302 N 
ATOM     21  C   UNL     1      -5.097 -10.839  13.790  0.00  0.00    +0.234 C 
ATOM     40  H   UNL     1      -3.845 -11.720  12.386  0.00  0.00    +0.150 HD
BRANCH   9  24
ATOM     24  C   UNL     1      -4.819 -10.104  11.428  0.00  0.00    +0.163 C 
BRANCH  24  30
ATOM      5  O   UNL     1      -3.371  -8.954   9.852  0.00  0.00    -0.274 OA
ATOM     14  N   UNL     1      -2.406 -10.210  11.516  0.00  0.00    -0.328 N 
ATOM     30  C   UNL     1      -3.483  -9.698  10.825  0.00  0.00    +0.231 C 
ATOM     44  H   UNL     1      -1.455 -10.004  11.225  0.00  0.00    +0.145 HD
ATOM     45  H   UNL     1      -2.513 -10.804  12.332  0.00  0.00    +0.145 HD
ENDBRANCH  24  30
BRANCH  24  26
ATOM     26  C   UNL     1      -5.709 -10.764  10.367  0.00  0.00    +0.069 C 
BRANCH  26  29
ATOM     12  N   UNL     1      -3.889 -13.683   9.075  0.00  0.00    -0.360 N 
ATOM     29  C   UNL     1      -5.000 -11.831   9.584  0.00  0.00    -0.020 A 
ATOM     31  C   UNL     1      -4.790 -11.851   8.177  0.00  0.00    +0.003 A 
ATOM     33  C   UNL     1      -4.435 -12.970  10.109  0.00  0.00    +0.087 A 
ATOM     34  C   UNL     1      -4.090 -13.024   7.884  0.00  0.00    +0.047 A 
ATOM     35  C   UNL     1      -5.128 -10.981   7.121  0.00  0.00    +0.010 A 
ATOM     37  C   UNL     1      -3.711 -13.372   6.582  0.00  0.00    +0.026 A 
ATOM     38  C   UNL     1      -4.755 -11.317   5.815  0.00  0.00    +0.001 A 
ATOM     39  C   UNL     1      -4.057 -12.494   5.551  0.00  0.00    +0.002 A 
ATOM     41  H   UNL     1      -3.406 -14.566   9.172  0.00  0.00    +0.165 HD
ENDBRANCH  26  29
ENDBRANCH  24  26
ENDBRANCH   9  24
ENDBRANCH  18  21
BRANCH  22  25
ATOM     25  C   UNL     1      -2.107 -12.890  13.704  0.00  0.00    +0.255 C 
BRANCH  25   3
ATOM      3  O   UNL     1      -1.973 -14.134  14.346  0.00  0.00    -0.374 OA
ATOM     36  C   UNL     1      -1.424 -15.127  13.481  0.00  0.00    +0.194 C 
ENDBRANCH  25   3
ENDBRANCH  22  25
TORSDOF 10
ENDMDL
MODEL 10
REMARK VINA RESULT:      -6.4     28.453     31.097
REMARK  Name = 11880087
REMARK  11 active torsions:
REMARK  status: ('A' for Active; 'I' for Inactive)
REMARK    1  A    between atoms: O_3  and  C_25
REMARK    2  A    between atoms: O_3  and  C_36
REMARK    3  A    between atoms: N_8  and  C_16
REMARK    4  A    between atoms: N_9  and  C_24
REMARK    5  A    between atoms: C_18  and  C_21
REMARK    6  A    between atoms: C_22  and  C_25
REMARK    7  A    between atoms: C_23  and  C_28
REMARK    8  A    between atoms: C_24  and  C_26
REMARK    9  A    between atoms: C_24  and  C_30
REMARK   10  A    between atoms: C_26  and  C_29
REMARK   11  A    between atoms: C_27  and  C_32
REMARK                            x       y       z     vdW  Elec       q    Type
REMARK                         _______ _______ _______ _____ _____    ______ ____
ROOT
ATOM      2  O   UNL     1      -1.465 -11.733  14.445  0.00  0.00    -0.273 OA
ATOM      7  N   UNL     1      -3.675 -12.191  15.020  0.00  0.00    -0.288 N 
ATOM     16  C   UNL     1      -6.002 -11.529  16.654  0.00  0.00    +0.113 C 
ATOM     17  C   UNL     1      -5.724 -12.982  16.232  0.00  0.00    +0.059 C 
ATOM     18  C   UNL     1      -4.841 -13.089  14.986  0.00  0.00    +0.164 C 
ATOM     19  C   UNL     1      -4.690 -10.741  16.758  0.00  0.00    +0.046 C 
ATOM     20  C   UNL     1      -3.920 -10.807  15.445  0.00  0.00    +0.111 C 
ATOM     22  C   UNL     1      -2.404 -12.529  14.538  0.00  0.00    +0.242 C 
ENDROOT
BRANCH  16   8
ATOM      8  N   UNL     1      -6.809 -11.448  17.878  0.00  0.00    -0.236 N 
ATOM     10  N   UNL     1      -6.211 -11.327  19.074  0.00  0.00    -0.064 NA
ATOM     11  N   UNL     1      -7.171 -11.275  19.992  0.00  0.00    -0.124 NA
ATOM     23  C   UNL     1      -8.164 -11.477  17.995  0.00  0.00    +0.156 A 
ATOM     27  C   UNL     1      -8.373 -11.366  19.347  0.00  0.00    +0.179 A 
BRANCH  23  28
ATOM      4  O   UNL     1      -9.537 -10.620  16.272  0.00  0.00    -0.269 OA
ATOM     13  N   UNL     1      -9.526 -12.881  16.566  0.00  0.00    -0.324 N 
ATOM     28  C   UNL     1      -9.097 -11.596  16.922  0.00  0.00    +0.262 C 
ATOM     42  H   UNL     1      -9.191 -13.706  17.050  0.00  0.00    +0.145 HD
ATOM     43  H   UNL     1     -10.182 -13.023  15.805  0.00  0.00    +0.145 HD
ENDBRANCH  23  28
BRANCH  27  32
ATOM      6  O   UNL     1     -10.172 -10.293  20.444  0.00  0.00    -0.269 OA
ATOM     15  N   UNL     1     -10.282 -12.560  20.238  0.00  0.00    -0.324 N 
ATOM     32  C   UNL     1      -9.626 -11.342  20.035  0.00  0.00    +0.264 C 
ATOM     46  H   UNL     1     -11.178 -12.598  20.714  0.00  0.00    +0.145 HD
ATOM     47  H   UNL     1      -9.892 -13.441  19.920  0.00  0.00    +0.145 HD
ENDBRANCH  27  32
ENDBRANCH  16   8
BRANCH  18  21
ATOM      1  O   UNL     1      -5.231 -13.192  12.631  0.00  0.00    -0.274 OA
ATOM      9  N   UNL     1      -6.700 -11.973  13.964  0.00  0.00    -0.302 N 
ATOM     21  C   UNL     1      -5.597 -12.777  13.727  0.00  0.00    +0.234 C 
ATOM     40  H   UNL     1      -6.943 -11.740  14.922  0.00  0.00    +0.150 HD
BRANCH   9  24
ATOM     24  C   UNL     1      -7.581 -11.512  12.917  0.00  0.00    +0.163 C 
BRANCH  24  30
ATOM      5  O   UNL     1      -9.226 -13.194  13.523  0.00  0.00    -0.274 OA
ATOM     14  N   UNL     1      -9.924 -11.022  13.256  0.00  0.00    -0.328 N 
ATOM     30  C   UNL     1      -8.975 -12.023  13.247  0.00  0.00    +0.231 C 
ATOM     44  H   UNL     1     -10.894 -11.226  13.475  0.00  0.00    +0.145 HD
ATOM     45  H   UNL     1      -9.698 -10.054  13.049  0.00  0.00    +0.145 HD
ENDBRANCH  24  30
BRANCH  24  26
ATOM     26  C   UNL     1      -7.585  -9.982  12.793  0.00  0.00    +0.069 C 
BRANCH  26  29
ATOM     12  N   UNL     1      -6.680  -8.625   9.500  0.00  0.00    -0.360 N 
ATOM     29  C   UNL     1      -6.947  -9.492  11.525  0.00  0.00    -0.020 A 
ATOM     31  C   UNL     1      -5.559  -9.512  11.212  0.00  0.00    +0.003 A 
ATOM     33  C   UNL     1      -7.610  -8.941  10.453  0.00  0.00    +0.087 A 
ATOM     34  C   UNL     1      -5.418  -8.962   9.936  0.00  0.00    +0.047 A 
ATOM     35  C   UNL     1      -4.405  -9.947  11.893  0.00  0.00    +0.010 A 
ATOM     37  C   UNL     1      -4.177  -8.824   9.305  0.00  0.00    +0.026 A 
ATOM     38  C   UNL     1      -3.157  -9.815  11.274  0.00  0.00    +0.001 A 
ATOM     39  C   UNL     1      -3.046  -9.262  10.000  0.00  0.00    +0.002 A 
ATOM     41  H   UNL     1      -6.888  -8.204   8.605  0.00  0.00    +0.165 HD
ENDBRANCH  26  29
ENDBRANCH  24  26
ENDBRANCH   9  24
ENDBRANCH  18  21
BRANCH  22  25
ATOM     25  C   UNL     1      -2.193 -13.964  14.122  0.00  0.00    +0.255 C 
BRANCH  25   3
ATOM      3  O   UNL     1      -2.004 -13.954  12.729  0.00  0.00    -0.374 OA
ATOM     36  C   UNL     1      -2.328 -15.210  12.135  0.00  0.00    +0.194 C 
ENDBRANCH  25   3
ENDBRANCH  22  25
TORSDOF 10
ENDMDL
