MODEL 1
REMARK VINA RESULT:      -8.3      0.000      0.000
REMARK  Name = 40780662
REMARK  8 active torsions:
REMARK  status: ('A' for Active; 'I' for Inactive)
REMARK    1  A    between atoms: O_5  and  C_14
REMARK    2  A    between atoms: O_6  and  C_15
REMARK    3  A    between atoms: N_10  and  C_24
REMARK    4  A    between atoms: N_11  and  C_18
REMARK    5  A    between atoms: N_12  and  C_31
REMARK    6  A    between atoms: C_13  and  C_17
REMARK    7  A    between atoms: C_16  and  C_18
REMARK    8  A    between atoms: C_17  and  C_19
REMARK                            x       y       z     vdW  Elec       q    Type
REMARK                         _______ _______ _______ _____ _____    ______ ____
ROOT
ATOM      4  O   UNL     1      14.570   8.063  19.065  0.00  0.00    -0.366 OA
ATOM     13  C   UNL     1      13.949   7.010  19.824  0.00  0.00    +0.159 C 
ATOM     14  C   UNL     1      12.469   7.352  19.864  0.00  0.00    +0.175 C 
ATOM     15  C   UNL     1      12.263   7.969  18.496  0.00  0.00    +0.176 C 
ATOM     16  C   UNL     1      13.555   8.756  18.306  0.00  0.00    +0.167 C 
ENDROOT
BRANCH  14   5
ATOM      5  O   UNL     1      11.667   6.212  20.089  0.00  0.00    -0.387 OA
ATOM     37  H   UNL     1      12.203   5.430  19.866  0.00  0.00    +0.210 HD
ENDBRANCH  14   5
BRANCH  15   6
ATOM      6  O   UNL     1      12.212   6.953  17.496  0.00  0.00    -0.387 OA
ATOM     38  H   UNL     1      13.022   6.421  17.581  0.00  0.00    +0.210 HD
ENDBRANCH  15   6
BRANCH  13  17
ATOM     17  C   UNL     1      14.584   6.925  21.200  0.00  0.00    +0.130 C 
BRANCH  17  19
ATOM      7  O   UNL     1      15.328   9.137  21.641  0.00  0.00    -0.276 OA
ATOM      9  N   UNL     1      16.962   7.574  21.104  0.00  0.00    -0.298 N 
ATOM     10  N   UNL     1      19.736   6.785  20.851  0.00  0.00    -0.327 N 
ATOM     19  C   UNL     1      15.649   7.985  21.339  0.00  0.00    +0.218 C 
ATOM     20  C   UNL     1      18.050   8.543  21.214  0.00  0.00    +0.126 C 
ATOM     21  C   UNL     1      17.343   6.203  20.755  0.00  0.00    +0.126 C 
ATOM     22  C   UNL     1      19.339   7.899  21.719  0.00  0.00    +0.124 C 
ATOM     23  C   UNL     1      18.699   6.126  20.054  0.00  0.00    +0.124 C 
BRANCH  10  24
ATOM      1  F   UNL     1      25.021   5.224  20.505  0.00  0.00    -0.205 F 
ATOM     24  C   UNL     1      21.069   6.392  20.764  0.00  0.00    +0.030 A 
ATOM     26  C   UNL     1      21.403   5.040  20.847  0.00  0.00    +0.026 A 
ATOM     27  C   UNL     1      22.069   7.348  20.594  0.00  0.00    +0.026 A 
ATOM     28  C   UNL     1      22.739   4.645  20.760  0.00  0.00    +0.040 A 
ATOM     29  C   UNL     1      23.404   6.955  20.507  0.00  0.00    +0.040 A 
ATOM     30  C   UNL     1      23.739   5.602  20.589  0.00  0.00    +0.124 A 
ENDBRANCH  10  24
ENDBRANCH  17  19
ENDBRANCH  13  17
BRANCH  16  18
ATOM     18  C   UNL     1      13.469  10.181  18.836  0.00  0.00    +0.140 C 
BRANCH  18  11
ATOM      8  O   UNL     1      13.510  11.899  21.127  0.00  0.00    -0.253 OA
ATOM     11  N   UNL     1      12.447  10.302  19.833  0.00  0.00    -0.297 N 
ATOM     12  N   UNL     1      11.397  11.075  21.734  0.00  0.00    -0.267 N 
ATOM     25  C   UNL     1      12.538  11.170  20.934  0.00  0.00    +0.304 C 
ATOM     39  H   UNL     1      11.609   9.738  19.732  0.00  0.00    +0.150 HD
ATOM     40  H   UNL     1      10.679  10.420  21.433  0.00  0.00    +0.156 HD
BRANCH  12  31
ATOM      2  F   UNL     1      10.341  13.654  21.681  0.00  0.00    -0.203 F 
ATOM      3  F   UNL     1      10.271  13.835  26.408  0.00  0.00    -0.205 F 
ATOM     31  C   UNL     1      11.109  11.782  22.924  0.00  0.00    +0.070 A 
ATOM     32  C   UNL     1      10.581  13.071  22.864  0.00  0.00    +0.147 A 
ATOM     33  C   UNL     1      11.354  11.186  24.162  0.00  0.00    +0.029 A 
ATOM     34  C   UNL     1      10.297  13.765  24.041  0.00  0.00    +0.078 A 
ATOM     35  C   UNL     1      11.071  11.881  25.338  0.00  0.00    +0.040 A 
ATOM     36  C   UNL     1      10.542  13.170  25.278  0.00  0.00    +0.126 A 
ENDBRANCH  12  31
ENDBRANCH  18  11
ENDBRANCH  16  18
TORSDOF 8
ENDMDL
MODEL 2
REMARK VINA RESULT:      -8.2      1.585      2.064
REMARK  Name = 40780662
REMARK  8 active torsions:
REMARK  status: ('A' for Active; 'I' for Inactive)
REMARK    1  A    between atoms: O_5  and  C_14
REMARK    2  A    between atoms: O_6  and  C_15
REMARK    3  A    between atoms: N_10  and  C_24
REMARK    4  A    between atoms: N_11  and  C_18
REMARK    5  A    between atoms: N_12  and  C_31
REMARK    6  A    between atoms: C_13  and  C_17
REMARK    7  A    between atoms: C_16  and  C_18
REMARK    8  A    between atoms: C_17  and  C_19
REMARK                            x       y       z     vdW  Elec       q    Type
REMARK                         _______ _______ _______ _____ _____    ______ ____
ROOT
ATOM      4  O   UNL     1      14.459   8.615  17.664  0.00  0.00    -0.366 OA
ATOM     13  C   UNL     1      13.371   7.679  17.764  0.00  0.00    +0.159 C 
ATOM     14  C   UNL     1      12.108   8.491  17.532  0.00  0.00    +0.175 C 
ATOM     15  C   UNL     1      12.580   9.498  16.503  0.00  0.00    +0.176 C 
ATOM     16  C   UNL     1      13.994   9.803  16.984  0.00  0.00    +0.167 C 
ENDROOT
BRANCH  14   5
ATOM      5  O   UNL     1      11.038   7.689  17.079  0.00  0.00    -0.387 OA
ATOM     37  H   UNL     1      11.062   7.692  16.107  0.00  0.00    +0.210 HD
ENDBRANCH  14   5
BRANCH  15   6
ATOM      6  O   UNL     1      12.671   8.887  15.217  0.00  0.00    -0.387 OA
ATOM     38  H   UNL     1      11.770   8.628  14.954  0.00  0.00    +0.210 HD
ENDBRANCH  15   6
BRANCH  13  17
ATOM     17  C   UNL     1      13.407   6.996  19.120  0.00  0.00    +0.130 C 
BRANCH  17  19
ATOM      7  O   UNL     1      13.788   8.751  20.673  0.00  0.00    -0.276 OA
ATOM      9  N   UNL     1      15.592   7.365  20.202  0.00  0.00    -0.298 N 
ATOM     10  N   UNL     1      18.289   6.444  20.713  0.00  0.00    -0.327 N 
ATOM     19  C   UNL     1      14.269   7.788  20.071  0.00  0.00    +0.218 C 
ATOM     20  C   UNL     1      16.492   8.083  21.100  0.00  0.00    +0.126 C 
ATOM     21  C   UNL     1      16.160   6.214  19.494  0.00  0.00    +0.126 C 
ATOM     22  C   UNL     1      17.521   7.154  21.741  0.00  0.00    +0.124 C 
ATOM     23  C   UNL     1      17.683   6.276  19.390  0.00  0.00    +0.124 C 
BRANCH  10  24
ATOM      1  F   UNL     1      23.378   4.582  21.777  0.00  0.00    -0.205 F 
ATOM     24  C   UNL     1      19.572   5.975  20.982  0.00  0.00    +0.030 A 
ATOM     26  C   UNL     1      20.068   4.868  20.292  0.00  0.00    +0.026 A 
ATOM     27  C   UNL     1      20.362   6.611  21.939  0.00  0.00    +0.026 A 
ATOM     28  C   UNL     1      21.354   4.397  20.561  0.00  0.00    +0.040 A 
ATOM     29  C   UNL     1      21.647   6.141  22.208  0.00  0.00    +0.040 A 
ATOM     30  C   UNL     1      22.144   5.034  21.519  0.00  0.00    +0.124 A 
ENDBRANCH  10  24
ENDBRANCH  17  19
ENDBRANCH  13  17
BRANCH  16  18
ATOM     18  C   UNL     1      14.051  10.958  17.974  0.00  0.00    +0.140 C 
BRANCH  18  11
ATOM      8  O   UNL     1      13.901  12.209  20.546  0.00  0.00    -0.253 OA
ATOM     11  N   UNL     1      12.943  10.919  18.881  0.00  0.00    -0.297 N 
ATOM     12  N   UNL     1      11.732  11.348  20.795  0.00  0.00    -0.267 N 
ATOM     25  C   UNL     1      12.943  11.559  20.132  0.00  0.00    +0.304 C 
ATOM     39  H   UNL     1      12.111  10.410  18.600  0.00  0.00    +0.150 HD
ATOM     40  H   UNL     1      11.037  10.783  20.311  0.00  0.00    +0.156 HD
BRANCH  12  31
ATOM      2  F   UNL     1      11.779   9.704  23.045  0.00  0.00    -0.203 F 
ATOM      3  F   UNL     1      10.208  13.230  25.782  0.00  0.00    -0.205 F 
ATOM     31  C   UNL     1      11.344  11.825  22.069  0.00  0.00    +0.070 A 
ATOM     32  C   UNL     1      11.379  10.977  23.175  0.00  0.00    +0.147 A 
ATOM     33  C   UNL     1      10.925  13.148  22.216  0.00  0.00    +0.029 A 
ATOM     34  C   UNL     1      10.995  11.452  24.430  0.00  0.00    +0.078 A 
ATOM     35  C   UNL     1      10.541  13.621  23.471  0.00  0.00    +0.040 A 
ATOM     36  C   UNL     1      10.577  12.774  24.578  0.00  0.00    +0.126 A 
ENDBRANCH  12  31
ENDBRANCH  18  11
ENDBRANCH  16  18
TORSDOF 8
ENDMDL
MODEL 3
REMARK VINA RESULT:      -8.0     28.804     31.823
REMARK  Name = 40780662
REMARK  8 active torsions:
REMARK  status: ('A' for Active; 'I' for Inactive)
REMARK    1  A    between atoms: O_5  and  C_14
REMARK    2  A    between atoms: O_6  and  C_15
REMARK    3  A    between atoms: N_10  and  C_24
REMARK    4  A    between atoms: N_11  and  C_18
REMARK    5  A    between atoms: N_12  and  C_31
REMARK    6  A    between atoms: C_13  and  C_17
REMARK    7  A    between atoms: C_16  and  C_18
REMARK    8  A    between atoms: C_17  and  C_19
REMARK                            x       y       z     vdW  Elec       q    Type
REMARK                         _______ _______ _______ _____ _____    ______ ____
ROOT
ATOM      4  O   UNL     1      -4.949  -9.861  16.499  0.00  0.00    -0.366 OA
ATOM     13  C   UNL     1      -3.953 -10.851  16.814  0.00  0.00    +0.159 C 
ATOM     14  C   UNL     1      -4.012 -11.866  15.685  0.00  0.00    +0.175 C 
ATOM     15  C   UNL     1      -4.321 -10.980  14.496  0.00  0.00    +0.176 C 
ATOM     16  C   UNL     1      -5.289  -9.968  15.098  0.00  0.00    +0.167 C 
ENDROOT
BRANCH  14   5
ATOM      5  O   UNL     1      -2.801 -12.580  15.551  0.00  0.00    -0.387 OA
ATOM     37  H   UNL     1      -2.158 -11.986  15.128  0.00  0.00    +0.210 HD
ENDBRANCH  14   5
BRANCH  15   6
ATOM      6  O   UNL     1      -3.149 -10.280  14.082  0.00  0.00    -0.387 OA
ATOM     38  H   UNL     1      -3.428  -9.591  13.454  0.00  0.00    +0.210 HD
ENDBRANCH  15   6
BRANCH  13  17
ATOM     17  C   UNL     1      -4.242 -11.451  18.179  0.00  0.00    +0.130 C 
BRANCH  17  19
ATOM      7  O   UNL     1      -4.944 -13.646  17.607  0.00  0.00    -0.276 OA
ATOM      9  N   UNL     1      -6.570 -12.218  18.453  0.00  0.00    -0.298 N 
ATOM     10  N   UNL     1      -9.239 -11.720  19.458  0.00  0.00    -0.327 N 
ATOM     19  C   UNL     1      -5.274 -12.544  18.051  0.00  0.00    +0.218 C 
ATOM     20  C   UNL     1      -7.627 -13.220  18.355  0.00  0.00    +0.126 C 
ATOM     21  C   UNL     1      -6.958 -10.911  18.990  0.00  0.00    +0.126 C 
ATOM     22  C   UNL     1      -8.663 -13.068  19.467  0.00  0.00    +0.124 C 
ATOM     23  C   UNL     1      -8.456 -10.638  18.855  0.00  0.00    +0.124 C 
BRANCH  10  24
ATOM      1  F   UNL     1     -14.281 -10.793  21.511  0.00  0.00    -0.205 F 
ATOM     24  C   UNL     1     -10.510 -11.486  19.975  0.00  0.00    +0.030 A 
ATOM     26  C   UNL     1     -11.261 -12.545  20.485  0.00  0.00    +0.026 A 
ATOM     27  C   UNL     1     -11.032 -10.193  19.986  0.00  0.00    +0.026 A 
ATOM     28  C   UNL     1     -12.536 -12.311  21.003  0.00  0.00    +0.040 A 
ATOM     29  C   UNL     1     -12.306  -9.958  20.504  0.00  0.00    +0.040 A 
ATOM     30  C   UNL     1     -13.058 -11.018  21.013  0.00  0.00    +0.124 A 
ENDBRANCH  10  24
ENDBRANCH  17  19
ENDBRANCH  13  17
BRANCH  16  18
ATOM     18  C   UNL     1      -6.744 -10.406  15.004  0.00  0.00    +0.140 C 
BRANCH  18  11
ATOM      8  O   UNL     1      -9.503  -9.901  14.423  0.00  0.00    -0.253 OA
ATOM     11  N   UNL     1      -7.607  -9.485  15.683  0.00  0.00    -0.297 N 
ATOM     12  N   UNL     1      -9.545  -8.335  16.171  0.00  0.00    -0.267 N 
ATOM     25  C   UNL     1      -8.955  -9.290  15.339  0.00  0.00    +0.304 C 
ATOM     39  H   UNL     1      -7.226  -8.954  16.459  0.00  0.00    +0.150 HD
ATOM     40  H   UNL     1      -8.950  -7.921  16.886  0.00  0.00    +0.156 HD
BRANCH  12  31
ATOM      2  F   UNL     1     -10.168  -5.763  15.298  0.00  0.00    -0.203 F 
ATOM      3  F   UNL     1     -14.775  -6.503  16.078  0.00  0.00    -0.205 F 
ATOM     31  C   UNL     1     -10.878  -7.864  16.147  0.00  0.00    +0.070 A 
ATOM     32  C   UNL     1     -11.157  -6.572  15.704  0.00  0.00    +0.147 A 
ATOM     33  C   UNL     1     -11.915  -8.698  16.566  0.00  0.00    +0.029 A 
ATOM     34  C   UNL     1     -12.474  -6.112  15.681  0.00  0.00    +0.078 A 
ATOM     35  C   UNL     1     -13.232  -8.237  16.543  0.00  0.00    +0.040 A 
ATOM     36  C   UNL     1     -13.512  -6.944  16.100  0.00  0.00    +0.126 A 
ENDBRANCH  12  31
ENDBRANCH  18  11
ENDBRANCH  16  18
TORSDOF 8
ENDMDL
MODEL 4
REMARK VINA RESULT:      -7.9     28.786     30.495
REMARK  Name = 40780662
REMARK  8 active torsions:
REMARK  status: ('A' for Active; 'I' for Inactive)
REMARK    1  A    between atoms: O_5  and  C_14
REMARK    2  A    between atoms: O_6  and  C_15
REMARK    3  A    between atoms: N_10  and  C_24
REMARK    4  A    between atoms: N_11  and  C_18
REMARK    5  A    between atoms: N_12  and  C_31
REMARK    6  A    between atoms: C_13  and  C_17
REMARK    7  A    between atoms: C_16  and  C_18
REMARK    8  A    between atoms: C_17  and  C_19
REMARK                            x       y       z     vdW  Elec       q    Type
REMARK                         _______ _______ _______ _____ _____    ______ ____
ROOT
ATOM      4  O   UNL     1      -6.103 -11.549  16.689  0.00  0.00    -0.366 OA
ATOM     13  C   UNL     1      -4.702 -11.418  16.386  0.00  0.00    +0.159 C 
ATOM     14  C   UNL     1      -4.022 -11.123  17.713  0.00  0.00    +0.175 C 
ATOM     15  C   UNL     1      -4.852 -11.954  18.670  0.00  0.00    +0.176 C 
ATOM     16  C   UNL     1      -6.257 -11.777  18.108  0.00  0.00    +0.167 C 
ENDROOT
BRANCH  14   5
ATOM      5  O   UNL     1      -2.657 -11.482  17.699  0.00  0.00    -0.387 OA
ATOM     37  H   UNL     1      -2.256 -11.136  18.515  0.00  0.00    +0.210 HD
ENDBRANCH  14   5
BRANCH  15   6
ATOM      6  O   UNL     1      -4.501 -13.332  18.562  0.00  0.00    -0.387 OA
ATOM     38  H   UNL     1      -3.604 -13.375  18.189  0.00  0.00    +0.210 HD
ENDBRANCH  15   6
BRANCH  13  17
ATOM     17  C   UNL     1      -4.501 -10.326  15.351  0.00  0.00    +0.130 C 
BRANCH  17  19
ATOM      7  O   UNL     1      -2.297 -11.054  14.850  0.00  0.00    -0.276 OA
ATOM      9  N   UNL     1      -3.701 -10.659  13.042  0.00  0.00    -0.298 N 
ATOM     10  N   UNL     1      -4.291 -10.785  10.210  0.00  0.00    -0.327 N 
ATOM     19  C   UNL     1      -3.395 -10.716  14.402  0.00  0.00    +0.218 C 
ATOM     20  C   UNL     1      -2.681 -11.016  12.059  0.00  0.00    +0.126 C 
ATOM     21  C   UNL     1      -5.009 -10.266  12.510  0.00  0.00    +0.126 C 
ATOM     22  C   UNL     1      -3.287 -11.665  10.817  0.00  0.00    +0.124 C 
ATOM     23  C   UNL     1      -4.938  -9.784  11.062  0.00  0.00    +0.124 C 
BRANCH  10  24
ATOM      1  F   UNL     1      -5.485 -11.153   4.831  0.00  0.00    -0.205 F 
ATOM     24  C   UNL     1      -4.592 -10.878   8.854  0.00  0.00    +0.030 A 
ATOM     26  C   UNL     1      -5.173  -9.795   8.193  0.00  0.00    +0.026 A 
ATOM     27  C   UNL     1      -4.313 -12.053   8.156  0.00  0.00    +0.026 A 
ATOM     28  C   UNL     1      -5.475  -9.888   6.833  0.00  0.00    +0.040 A 
ATOM     29  C   UNL     1      -4.615 -12.146   6.798  0.00  0.00    +0.040 A 
ATOM     30  C   UNL     1      -5.196 -11.064   6.136  0.00  0.00    +0.124 A 
ENDBRANCH  10  24
ENDBRANCH  17  19
ENDBRANCH  13  17
BRANCH  16  18
ATOM     18  C   UNL     1      -6.988 -10.577  18.695  0.00  0.00    +0.140 C 
BRANCH  18  11
ATOM      8  O   UNL     1      -9.675  -9.773  18.112  0.00  0.00    -0.253 OA
ATOM     11  N   UNL     1      -7.406  -9.671  17.667  0.00  0.00    -0.297 N 
ATOM     12  N   UNL     1      -8.853  -8.424  16.376  0.00  0.00    -0.267 N 
ATOM     25  C   UNL     1      -8.749  -9.323  17.440  0.00  0.00    +0.304 C 
ATOM     39  H   UNL     1      -6.694  -9.250  17.079  0.00  0.00    +0.150 HD
ATOM     40  H   UNL     1      -7.985  -8.148  15.922  0.00  0.00    +0.156 HD
BRANCH  12  31
ATOM      2  F   UNL     1     -10.139  -9.502  14.151  0.00  0.00    -0.203 F 
ATOM      3  F   UNL     1     -13.450  -6.126  14.298  0.00  0.00    -0.205 F 
ATOM     31  C   UNL     1     -10.026  -7.840  15.843  0.00  0.00    +0.070 A 
ATOM     32  C   UNL     1     -10.646  -8.404  14.729  0.00  0.00    +0.147 A 
ATOM     33  C   UNL     1     -10.563  -6.697  16.436  0.00  0.00    +0.029 A 
ATOM     34  C   UNL     1     -11.803  -7.825  14.206  0.00  0.00    +0.078 A 
ATOM     35  C   UNL     1     -11.719  -6.118  15.913  0.00  0.00    +0.040 A 
ATOM     36  C   UNL     1     -12.340  -6.682  14.798  0.00  0.00    +0.126 A 
ENDBRANCH  12  31
ENDBRANCH  18  11
ENDBRANCH  16  18
TORSDOF 8
ENDMDL
MODEL 5
REMARK VINA RESULT:      -7.8     28.105     30.744
REMARK  Name = 40780662
REMARK  8 active torsions:
REMARK  status: ('A' for Active; 'I' for Inactive)
REMARK    1  A    between atoms: O_5  and  C_14
REMARK    2  A    between atoms: O_6  and  C_15
REMARK    3  A    between atoms: N_10  and  C_24
REMARK    4  A    between atoms: N_11  and  C_18
REMARK    5  A    between atoms: N_12  and  C_31
REMARK    6  A    between atoms: C_13  and  C_17
REMARK    7  A    between atoms: C_16  and  C_18
REMARK    8  A    between atoms: C_17  and  C_19
REMARK                            x       y       z     vdW  Elec       q    Type
REMARK                         _______ _______ _______ _____ _____    ______ ____
ROOT
ATOM      4  O   UNL     1      -4.281 -11.631  14.655  0.00  0.00    -0.366 OA
ATOM     13  C   UNL     1      -2.858 -11.641  14.871  0.00  0.00    +0.159 C 
ATOM     14  C   UNL     1      -2.613 -10.692  16.032  0.00  0.00    +0.175 C 
ATOM     15  C   UNL     1      -3.841 -10.933  16.886  0.00  0.00    +0.176 C 
ATOM     16  C   UNL     1      -4.930 -11.102  15.833  0.00  0.00    +0.167 C 
ENDROOT
BRANCH  14   5
ATOM      5  O   UNL     1      -1.402 -10.975  16.701  0.00  0.00    -0.387 OA
ATOM     37  H   UNL     1      -1.569 -11.720  17.303  0.00  0.00    +0.210 HD
ENDBRANCH  14   5
BRANCH  15   6
ATOM      6  O   UNL     1      -3.716 -12.163  17.597  0.00  0.00    -0.387 OA
ATOM     38  H   UNL     1      -4.357 -12.142  18.328  0.00  0.00    +0.210 HD
ENDBRANCH  15   6
BRANCH  13  17
ATOM     17  C   UNL     1      -2.143 -11.230  13.596  0.00  0.00    +0.130 C 
BRANCH  17  19
ATOM      7  O   UNL     1      -2.283 -13.330  12.496  0.00  0.00    -0.276 OA
ATOM      9  N   UNL     1      -3.256 -11.519  11.413  0.00  0.00    -0.298 N 
ATOM     10  N   UNL     1      -4.883 -10.400   9.296  0.00  0.00    -0.327 N 
ATOM     19  C   UNL     1      -2.563 -12.130  12.459  0.00  0.00    +0.218 C 
ATOM     20  C   UNL     1      -3.692 -12.321  10.274  0.00  0.00    +0.126 C 
ATOM     21  C   UNL     1      -3.596 -10.094  11.376  0.00  0.00    +0.126 C 
ATOM     22  C   UNL     1      -5.004 -11.809   9.684  0.00  0.00    +0.124 C 
ATOM     23  C   UNL     1      -3.861  -9.586   9.959  0.00  0.00    +0.124 C 
BRANCH  10  24
ATOM      1  F   UNL     1      -8.106  -8.273   5.349  0.00  0.00    -0.205 F 
ATOM     24  C   UNL     1      -5.696  -9.864   8.301  0.00  0.00    +0.030 A 
ATOM     26  C   UNL     1      -6.699  -8.954   8.635  0.00  0.00    +0.026 A 
ATOM     27  C   UNL     1      -5.506 -10.235   6.970  0.00  0.00    +0.026 A 
ATOM     28  C   UNL     1      -7.514  -8.417   7.637  0.00  0.00    +0.040 A 
ATOM     29  C   UNL     1      -6.320  -9.699   5.973  0.00  0.00    +0.040 A 
ATOM     30  C   UNL     1      -7.324  -8.789   6.306  0.00  0.00    +0.124 A 
ENDBRANCH  10  24
ENDBRANCH  17  19
ENDBRANCH  13  17
BRANCH  16  18
ATOM     18  C   UNL     1      -5.597  -9.789  15.448  0.00  0.00    +0.140 C 
BRANCH  18  11
ATOM      8  O   UNL     1      -8.349 -10.544  15.683  0.00  0.00    -0.253 OA
ATOM     11  N   UNL     1      -6.518  -9.360  16.457  0.00  0.00    -0.297 N 
ATOM     12  N   UNL     1      -8.516  -9.197  17.598  0.00  0.00    -0.267 N 
ATOM     25  C   UNL     1      -7.860  -9.775  16.508  0.00  0.00    +0.304 C 
ATOM     39  H   UNL     1      -6.181  -8.732  17.179  0.00  0.00    +0.150 HD
ATOM     40  H   UNL     1      -7.964  -8.578  18.189  0.00  0.00    +0.156 HD
BRANCH  12  31
ATOM      2  F   UNL     1      -9.209 -10.733  19.818  0.00  0.00    -0.203 F 
ATOM      3  F   UNL     1     -13.805  -9.845  19.125  0.00  0.00    -0.205 F 
ATOM     31  C   UNL     1      -9.864  -9.365  17.990  0.00  0.00    +0.070 A 
ATOM     32  C   UNL     1     -10.178 -10.139  19.106  0.00  0.00    +0.147 A 
ATOM     33  C   UNL     1     -10.880  -8.752  17.257  0.00  0.00    +0.029 A 
ATOM     34  C   UNL     1     -11.510 -10.301  19.490  0.00  0.00    +0.078 A 
ATOM     35  C   UNL     1     -12.212  -8.915  17.640  0.00  0.00    +0.040 A 
ATOM     36  C   UNL     1     -12.527  -9.690  18.757  0.00  0.00    +0.126 A 
ENDBRANCH  12  31
ENDBRANCH  18  11
ENDBRANCH  16  18
TORSDOF 8
ENDMDL
MODEL 6
REMARK VINA RESULT:      -7.8     28.753     30.465
REMARK  Name = 40780662
REMARK  8 active torsions:
REMARK  status: ('A' for Active; 'I' for Inactive)
REMARK    1  A    between atoms: O_5  and  C_14
REMARK    2  A    between atoms: O_6  and  C_15
REMARK    3  A    between atoms: N_10  and  C_24
REMARK    4  A    between atoms: N_11  and  C_18
REMARK    5  A    between atoms: N_12  and  C_31
REMARK    6  A    between atoms: C_13  and  C_17
REMARK    7  A    between atoms: C_16  and  C_18
REMARK    8  A    between atoms: C_17  and  C_19
REMARK                            x       y       z     vdW  Elec       q    Type
REMARK                         _______ _______ _______ _____ _____    ______ ____
ROOT
ATOM      4  O   UNL     1      -6.997 -12.159  17.640  0.00  0.00    -0.366 OA
ATOM     13  C   UNL     1      -6.189 -12.346  18.815  0.00  0.00    +0.159 C 
ATOM     14  C   UNL     1      -6.207 -11.011  19.542  0.00  0.00    +0.175 C 
ATOM     15  C   UNL     1      -7.617 -10.532  19.261  0.00  0.00    +0.176 C 
ATOM     16  C   UNL     1      -7.824 -10.987  17.820  0.00  0.00    +0.167 C 
ENDROOT
BRANCH  14   5
ATOM      5  O   UNL     1      -5.930 -11.155  20.919  0.00  0.00    -0.387 OA
ATOM     37  H   UNL     1      -6.114 -12.079  21.159  0.00  0.00    +0.210 HD
ENDBRANCH  14   5
BRANCH  15   6
ATOM      6  O   UNL     1      -8.551 -11.227  20.084  0.00  0.00    -0.387 OA
ATOM     38  H   UNL     1      -9.311 -11.465  19.525  0.00  0.00    +0.210 HD
ENDBRANCH  15   6
BRANCH  13  17
ATOM     17  C   UNL     1      -4.795 -12.793  18.413  0.00  0.00    +0.130 C 
BRANCH  17  19
ATOM      7  O   UNL     1      -5.149 -14.735  17.094  0.00  0.00    -0.276 OA
ATOM      9  N   UNL     1      -4.555 -12.798  15.958  0.00  0.00    -0.298 N 
ATOM     10  N   UNL     1      -4.165 -11.310  13.505  0.00  0.00    -0.327 N 
ATOM     19  C   UNL     1      -4.853 -13.538  17.102  0.00  0.00    +0.218 C 
ATOM     20  C   UNL     1      -4.584 -13.449  14.651  0.00  0.00    +0.126 C 
ATOM     21  C   UNL     1      -4.213 -11.373  15.968  0.00  0.00    +0.126 C 
ATOM     22  C   UNL     1      -5.030 -12.494  13.547  0.00  0.00    +0.124 C 
ATOM     23  C   UNL     1      -3.439 -10.941  14.723  0.00  0.00    +0.124 C 
BRANCH  10  24
ATOM      1  F   UNL     1      -3.557  -8.422   8.838  0.00  0.00    -0.205 F 
ATOM     24  C   UNL     1      -4.012 -10.582  12.328  0.00  0.00    +0.030 A 
ATOM     26  C   UNL     1      -2.734 -10.286  11.852  0.00  0.00    +0.026 A 
ATOM     27  C   UNL     1      -5.135 -10.149  11.624  0.00  0.00    +0.026 A 
ATOM     28  C   UNL     1      -2.580  -9.556  10.673  0.00  0.00    +0.040 A 
ATOM     29  C   UNL     1      -4.982  -9.420  10.446  0.00  0.00    +0.040 A 
ATOM     30  C   UNL     1      -3.704  -9.123   9.970  0.00  0.00    +0.124 A 
ENDBRANCH  10  24
ENDBRANCH  17  19
ENDBRANCH  13  17
BRANCH  16  18
ATOM     18  C   UNL     1      -7.388  -9.947  16.797  0.00  0.00    +0.140 C 
BRANCH  18  11
ATOM      8  O   UNL     1      -9.824  -9.553  15.343  0.00  0.00    -0.253 OA
ATOM     11  N   UNL     1      -8.234  -8.791  16.841  0.00  0.00    -0.297 N 
ATOM     12  N   UNL     1     -10.032  -7.438  16.339  0.00  0.00    -0.267 N 
ATOM     25  C   UNL     1      -9.419  -8.669  16.095  0.00  0.00    +0.304 C 
ATOM     39  H   UNL     1      -7.968  -8.025  17.451  0.00  0.00    +0.150 HD
ATOM     40  H   UNL     1      -9.564  -6.815  16.995  0.00  0.00    +0.156 HD
BRANCH  12  31
ATOM      2  F   UNL     1     -12.515  -8.458  17.087  0.00  0.00    -0.203 F 
ATOM      3  F   UNL     1     -14.736  -5.479  14.159  0.00  0.00    -0.205 F 
ATOM     31  C   UNL     1     -11.234  -6.941  15.785  0.00  0.00    +0.070 A 
ATOM     32  C   UNL     1     -12.461  -7.472  16.180  0.00  0.00    +0.147 A 
ATOM     33  C   UNL     1     -11.190  -5.915  14.841  0.00  0.00    +0.029 A 
ATOM     34  C   UNL     1     -13.644  -6.978  15.631  0.00  0.00    +0.078 A 
ATOM     35  C   UNL     1     -12.373  -5.422  14.291  0.00  0.00    +0.040 A 
ATOM     36  C   UNL     1     -13.601  -5.953  14.687  0.00  0.00    +0.126 A 
ENDBRANCH  12  31
ENDBRANCH  18  11
ENDBRANCH  16  18
TORSDOF 8
ENDMDL
MODEL 7
REMARK VINA RESULT:      -7.8     27.461     31.188
REMARK  Name = 40780662
REMARK  8 active torsions:
REMARK  status: ('A' for Active; 'I' for Inactive)
REMARK    1  A    between atoms: O_5  and  C_14
REMARK    2  A    between atoms: O_6  and  C_15
REMARK    3  A    between atoms: N_10  and  C_24
REMARK    4  A    between atoms: N_11  and  C_18
REMARK    5  A    between atoms: N_12  and  C_31
REMARK    6  A    between atoms: C_13  and  C_17
REMARK    7  A    between atoms: C_16  and  C_18
REMARK    8  A    between atoms: C_17  and  C_19
REMARK                            x       y       z     vdW  Elec       q    Type
REMARK                         _______ _______ _______ _____ _____    ______ ____
ROOT
ATOM      4  O   UNL     1      -3.551 -10.481  13.924  0.00  0.00    -0.366 OA
ATOM     13  C   UNL     1      -3.609 -10.793  15.327  0.00  0.00    +0.159 C 
ATOM     14  C   UNL     1      -2.232 -11.327  15.685  0.00  0.00    +0.175 C 
ATOM     15  C   UNL     1      -1.339 -10.484  14.798  0.00  0.00    +0.176 C 
ATOM     16  C   UNL     1      -2.167 -10.383  13.521  0.00  0.00    +0.167 C 
ENDROOT
BRANCH  14   5
ATOM      5  O   UNL     1      -1.949 -11.183  17.061  0.00  0.00    -0.387 OA
ATOM     37  H   UNL     1      -1.774 -12.071  17.417  0.00  0.00    +0.210 HD
ENDBRANCH  14   5
BRANCH  15   6
ATOM      6  O   UNL     1      -1.198  -9.173  15.340  0.00  0.00    -0.387 OA
ATOM     38  H   UNL     1      -1.441  -9.219  16.281  0.00  0.00    +0.210 HD
ENDBRANCH  15   6
BRANCH  13  17
ATOM     17  C   UNL     1      -4.726 -11.788  15.586  0.00  0.00    +0.130 C 
BRANCH  17  19
ATOM      7  O   UNL     1      -5.040 -11.649  17.935  0.00  0.00    -0.276 OA
ATOM      9  N   UNL     1      -6.708 -10.730  16.604  0.00  0.00    -0.298 N 
ATOM     10  N   UNL     1      -9.128  -9.175  16.277  0.00  0.00    -0.327 N 
ATOM     19  C   UNL     1      -5.496 -11.386  16.820  0.00  0.00    +0.218 C 
ATOM     20  C   UNL     1      -7.515 -10.314  17.748  0.00  0.00    +0.126 C 
ATOM     21  C   UNL     1      -7.244 -10.410  15.278  0.00  0.00    +0.126 C 
ATOM     22  C   UNL     1      -8.283  -9.025  17.466  0.00  0.00    +0.124 C 
ATOM     23  C   UNL     1      -8.756 -10.190  15.288  0.00  0.00    +0.124 C 
BRANCH  10  24
ATOM      1  F   UNL     1     -13.662  -6.090  15.629  0.00  0.00    -0.205 F 
ATOM     24  C   UNL     1     -10.271  -8.397  16.114  0.00  0.00    +0.030 A 
ATOM     26  C   UNL     1     -11.521  -9.008  16.010  0.00  0.00    +0.026 A 
ATOM     27  C   UNL     1     -10.167  -7.008  16.054  0.00  0.00    +0.026 A 
ATOM     28  C   UNL     1     -12.667  -8.228  15.846  0.00  0.00    +0.040 A 
ATOM     29  C   UNL     1     -11.311  -6.228  15.890  0.00  0.00    +0.040 A 
ATOM     30  C   UNL     1     -12.562  -6.838  15.786  0.00  0.00    +0.124 A 
ENDBRANCH  10  24
ENDBRANCH  17  19
ENDBRANCH  13  17
BRANCH  16  18
ATOM     18  C   UNL     1      -1.887 -11.510  12.538  0.00  0.00    +0.140 C 
BRANCH  18  11
ATOM      8  O   UNL     1      -2.703  -9.835  10.362  0.00  0.00    -0.253 OA
ATOM     11  N   UNL     1      -3.002 -11.725  11.664  0.00  0.00    -0.297 N 
ATOM     12  N   UNL     1      -4.472 -11.317   9.935  0.00  0.00    -0.267 N 
ATOM     25  C   UNL     1      -3.342 -10.855  10.614  0.00  0.00    +0.304 C 
ATOM     39  H   UNL     1      -3.570 -12.554  11.806  0.00  0.00    +0.150 HD
ATOM     40  H   UNL     1      -4.886 -12.185  10.272  0.00  0.00    +0.156 HD
BRANCH  12  31
ATOM      2  F   UNL     1      -6.344  -9.278  10.256  0.00  0.00    -0.203 F 
ATOM      3  F   UNL     1      -7.011  -9.014   5.579  0.00  0.00    -0.205 F 
ATOM     31  C   UNL     1      -5.122 -10.728   8.826  0.00  0.00    +0.070 A 
ATOM     32  C   UNL     1      -6.054  -9.709   9.020  0.00  0.00    +0.147 A 
ATOM     33  C   UNL     1      -4.828 -11.168   7.535  0.00  0.00    +0.029 A 
ATOM     34  C   UNL     1      -6.692  -9.130   7.923  0.00  0.00    +0.078 A 
ATOM     35  C   UNL     1      -5.467 -10.589   6.439  0.00  0.00    +0.040 A 
ATOM     36  C   UNL     1      -6.399  -9.569   6.632  0.00  0.00    +0.126 A 
ENDBRANCH  12  31
ENDBRANCH  18  11
ENDBRANCH  16  18
TORSDOF 8
ENDMDL
MODEL 8
REMARK VINA RESULT:      -7.6     18.656     22.346
REMARK  Name = 40780662
REMARK  8 active torsions:
REMARK  status: ('A' for Active; 'I' for Inactive)
REMARK    1  A    between atoms: O_5  and  C_14
REMARK    2  A    between atoms: O_6  and  C_15
REMARK    3  A    between atoms: N_10  and  C_24
REMARK    4  A    between atoms: N_11  and  C_18
REMARK    5  A    between atoms: N_12  and  C_31
REMARK    6  A    between atoms: C_13  and  C_17
REMARK    7  A    between atoms: C_16  and  C_18
REMARK    8  A    between atoms: C_17  and  C_19
REMARK                            x       y       z     vdW  Elec       q    Type
REMARK                         _______ _______ _______ _____ _____    ______ ____
ROOT
ATOM      4  O   UNL     1      13.418   3.256  -0.166  0.00  0.00    -0.366 OA
ATOM     13  C   UNL     1      14.543   4.098  -0.475  0.00  0.00    +0.159 C 
ATOM     14  C   UNL     1      14.735   4.989   0.741  0.00  0.00    +0.175 C 
ATOM     15  C   UNL     1      14.362   4.048   1.868  0.00  0.00    +0.176 C 
ATOM     16  C   UNL     1      13.197   3.274   1.262  0.00  0.00    +0.167 C 
ENDROOT
BRANCH  14   5
ATOM      5  O   UNL     1      16.055   5.479   0.835  0.00  0.00    -0.387 OA
ATOM     37  H   UNL     1      16.343   5.716  -0.063  0.00  0.00    +0.210 HD
ENDBRANCH  14   5
BRANCH  15   6
ATOM      6  O   UNL     1      15.423   3.129   2.118  0.00  0.00    -0.387 OA
ATOM     38  H   UNL     1      15.363   2.426   1.448  0.00  0.00    +0.210 HD
ENDBRANCH  15   6
BRANCH  13  17
ATOM     17  C   UNL     1      14.268   4.873  -1.751  0.00  0.00    +0.130 C 
BRANCH  17  19
ATOM      7  O   UNL     1      13.208   3.153  -2.999  0.00  0.00    -0.276 OA
ATOM      9  N   UNL     1      11.927   5.030  -2.514  0.00  0.00    -0.298 N 
ATOM     10  N   UNL     1       9.396   6.433  -2.464  0.00  0.00    -0.327 N 
ATOM     19  C   UNL     1      13.094   4.265  -2.478  0.00  0.00    +0.218 C 
ATOM     20  C   UNL     1      10.748   4.513  -3.203  0.00  0.00    +0.126 C 
ATOM     21  C   UNL     1      11.790   6.346  -1.885  0.00  0.00    +0.126 C 
ATOM     22  C   UNL     1       9.452   4.970  -2.538  0.00  0.00    +0.124 C 
ATOM     23  C   UNL     1      10.659   7.176  -2.492  0.00  0.00    +0.124 C 
BRANCH  10  24
ATOM      1  F   UNL     1       4.546   9.063  -2.231  0.00  0.00    -0.205 F 
ATOM     24  C   UNL     1       8.173   7.096  -2.406  0.00  0.00    +0.030 A 
ATOM     26  C   UNL     1       8.072   8.316  -1.735  0.00  0.00    +0.026 A 
ATOM     27  C   UNL     1       7.049   6.542  -3.017  0.00  0.00    +0.026 A 
ATOM     28  C   UNL     1       6.847   8.980  -1.676  0.00  0.00    +0.040 A 
ATOM     29  C   UNL     1       5.824   7.206  -2.959  0.00  0.00    +0.040 A 
ATOM     30  C   UNL     1       5.722   8.426  -2.288  0.00  0.00    +0.124 A 
ENDBRANCH  10  24
ENDBRANCH  17  19
ENDBRANCH  13  17
BRANCH  16  18
ATOM     18  C   UNL     1      11.847   3.930   1.517  0.00  0.00    +0.140 C 
BRANCH  18  11
ATOM      8  O   UNL     1      10.747   6.250   2.787  0.00  0.00    -0.253 OA
ATOM     11  N   UNL     1      11.614   4.108   2.919  0.00  0.00    -0.297 N 
ATOM     12  N   UNL     1      10.957   5.168   4.859  0.00  0.00    -0.267 N 
ATOM     25  C   UNL     1      11.069   5.280   3.471  0.00  0.00    +0.304 C 
ATOM     39  H   UNL     1      11.845   3.343   3.545  0.00  0.00    +0.150 HD
ATOM     40  H   UNL     1      11.271   4.292   5.274  0.00  0.00    +0.156 HD
BRANCH  12  31
ATOM      2  F   UNL     1       8.226   5.442   5.339  0.00  0.00    -0.203 F 
ATOM      3  F   UNL     1       9.015   8.927   8.439  0.00  0.00    -0.205 F 
ATOM     31  C   UNL     1      10.458   6.126   5.772  0.00  0.00    +0.070 A 
ATOM     32  C   UNL     1       9.086   6.238   5.990  0.00  0.00    +0.147 A 
ATOM     33  C   UNL     1      11.344   6.959   6.455  0.00  0.00    +0.029 A 
ATOM     34  C   UNL     1       8.598   7.185   6.891  0.00  0.00    +0.078 A 
ATOM     35  C   UNL     1      10.856   7.906   7.356  0.00  0.00    +0.040 A 
ATOM     36  C   UNL     1       9.483   8.019   7.574  0.00  0.00    +0.126 A 
ENDBRANCH  12  31
ENDBRANCH  18  11
ENDBRANCH  16  18
TORSDOF 8
ENDMDL
MODEL 9
REMARK VINA RESULT:      -7.6     15.497     18.612
REMARK  Name = 40780662
REMARK  8 active torsions:
REMARK  status: ('A' for Active; 'I' for Inactive)
REMARK    1  A    between atoms: O_5  and  C_14
REMARK    2  A    between atoms: O_6  and  C_15
REMARK    3  A    between atoms: N_10  and  C_24
REMARK    4  A    between atoms: N_11  and  C_18
REMARK    5  A    between atoms: N_12  and  C_31
REMARK    6  A    between atoms: C_13  and  C_17
REMARK    7  A    between atoms: C_16  and  C_18
REMARK    8  A    between atoms: C_17  and  C_19
REMARK                            x       y       z     vdW  Elec       q    Type
REMARK                         _______ _______ _______ _____ _____    ______ ____
ROOT
ATOM      4  O   UNL     1      11.263   6.363   6.376  0.00  0.00    -0.366 OA
ATOM     13  C   UNL     1      10.708   7.357   7.255  0.00  0.00    +0.159 C 
ATOM     14  C   UNL     1       9.202   7.163   7.195  0.00  0.00    +0.175 C 
ATOM     15  C   UNL     1       9.096   5.658   7.057  0.00  0.00    +0.176 C 
ATOM     16  C   UNL     1      10.269   5.341   6.136  0.00  0.00    +0.167 C 
ENDROOT
BRANCH  14   5
ATOM      5  O   UNL     1       8.557   7.665   8.346  0.00  0.00    -0.387 OA
ATOM     37  H   UNL     1       8.866   8.578   8.478  0.00  0.00    +0.210 HD
ENDBRANCH  14   5
BRANCH  15   6
ATOM      6  O   UNL     1       9.335   5.027   8.313  0.00  0.00    -0.387 OA
ATOM     38  H   UNL     1      10.258   5.211   8.560  0.00  0.00    +0.210 HD
ENDBRANCH  15   6
BRANCH  13  17
ATOM     17  C   UNL     1      11.154   8.739   6.811  0.00  0.00    +0.130 C 
BRANCH  17  19
ATOM      7  O   UNL     1      11.066   8.712   4.439  0.00  0.00    -0.276 OA
ATOM      9  N   UNL     1      13.170   8.527   5.405  0.00  0.00    -0.298 N 
ATOM     10  N   UNL     1      16.058   8.467   5.211  0.00  0.00    -0.327 N 
ATOM     19  C   UNL     1      11.782   8.661   5.441  0.00  0.00    +0.218 C 
ATOM     20  C   UNL     1      13.852   8.440   4.117  0.00  0.00    +0.126 C 
ATOM     21  C   UNL     1      14.021   8.477   6.597  0.00  0.00    +0.126 C 
ATOM     22  C   UNL     1      15.238   9.078   4.160  0.00  0.00    +0.124 C 
ATOM     23  C   UNL     1      15.373   7.817   6.332  0.00  0.00    +0.124 C 
BRANCH  10  24
ATOM      1  F   UNL     1      21.569   8.495   4.864  0.00  0.00    -0.205 F 
ATOM     24  C   UNL     1      17.448   8.474   5.124  0.00  0.00    +0.030 A 
ATOM     26  C   UNL     1      18.072   8.174   3.912  0.00  0.00    +0.026 A 
ATOM     27  C   UNL     1      18.216   8.782   6.246  0.00  0.00    +0.026 A 
ATOM     28  C   UNL     1      19.464   8.180   3.825  0.00  0.00    +0.040 A 
ATOM     29  C   UNL     1      19.607   8.789   6.159  0.00  0.00    +0.040 A 
ATOM     30  C   UNL     1      20.232   8.489   4.948  0.00  0.00    +0.124 A 
ENDBRANCH  10  24
ENDBRANCH  17  19
ENDBRANCH  13  17
BRANCH  16  18
ATOM     18  C   UNL     1       9.899   5.388   4.660  0.00  0.00    +0.140 C 
BRANCH  18  11
ATOM      8  O   UNL     1      11.702   6.162   2.574  0.00  0.00    -0.253 OA
ATOM     11  N   UNL     1      10.737   4.520   3.888  0.00  0.00    -0.297 N 
ATOM     12  N   UNL     1      12.290   3.906   2.298  0.00  0.00    -0.267 N 
ATOM     25  C   UNL     1      11.600   4.975   2.876  0.00  0.00    +0.304 C 
ATOM     39  H   UNL     1      10.714   3.526   4.091  0.00  0.00    +0.150 HD
ATOM     40  H   UNL     1      12.089   2.979   2.665  0.00  0.00    +0.156 HD
BRANCH  12  31
ATOM      2  F   UNL     1      11.520   3.993  -0.379  0.00  0.00    -0.203 F 
ATOM      3  F   UNL     1      16.037   4.079  -1.783  0.00  0.00    -0.205 F 
ATOM     31  C   UNL     1      13.243   3.950   1.254  0.00  0.00    +0.070 A 
ATOM     32  C   UNL     1      12.826   3.994  -0.075  0.00  0.00    +0.147 A 
ATOM     33  C   UNL     1      14.605   3.951   1.558  0.00  0.00    +0.029 A 
ATOM     34  C   UNL     1      13.770   4.037  -1.102  0.00  0.00    +0.078 A 
ATOM     35  C   UNL     1      15.549   3.994   0.532  0.00  0.00    +0.040 A 
ATOM     36  C   UNL     1      15.131   4.038  -0.799  0.00  0.00    +0.126 A 
ENDBRANCH  12  31
ENDBRANCH  18  11
ENDBRANCH  16  18
TORSDOF 8
ENDMDL
MODEL 10
REMARK VINA RESULT:      -7.6     29.341     32.205
REMARK  Name = 40780662
REMARK  8 active torsions:
REMARK  status: ('A' for Active; 'I' for Inactive)
REMARK    1  A    between atoms: O_5  and  C_14
REMARK    2  A    between atoms: O_6  and  C_15
REMARK    3  A    between atoms: N_10  and  C_24
REMARK    4  A    between atoms: N_11  and  C_18
REMARK    5  A    between atoms: N_12  and  C_31
REMARK    6  A    between atoms: C_13  and  C_17
REMARK    7  A    between atoms: C_16  and  C_18
REMARK    8  A    between atoms: C_17  and  C_19
REMARK                            x       y       z     vdW  Elec       q    Type
REMARK                         _______ _______ _______ _____ _____    ______ ____
ROOT
ATOM      4  O   UNL     1      -6.978  -9.629  17.081  0.00  0.00    -0.366 OA
ATOM     13  C   UNL     1      -8.247  -9.862  17.719  0.00  0.00    +0.159 C 
ATOM     14  C   UNL     1      -8.078 -11.147  18.512  0.00  0.00    +0.175 C 
ATOM     15  C   UNL     1      -6.638 -11.033  18.971  0.00  0.00    +0.176 C 
ATOM     16  C   UNL     1      -5.966 -10.412  17.752  0.00  0.00    +0.167 C 
ENDROOT
BRANCH  14   5
ATOM      5  O   UNL     1      -8.999 -11.237  19.577  0.00  0.00    -0.387 OA
ATOM     37  H   UNL     1      -8.744 -10.572  20.240  0.00  0.00    +0.210 HD
ENDBRANCH  14   5
BRANCH  15   6
ATOM      6  O   UNL     1      -6.535 -10.109  20.053  0.00  0.00    -0.387 OA
ATOM     38  H   UNL     1      -6.859  -9.250  19.733  0.00  0.00    +0.210 HD
ENDBRANCH  15   6
BRANCH  13  17
ATOM     17  C   UNL     1      -9.341  -9.942  16.669  0.00  0.00    +0.130 C 
BRANCH  17  19
ATOM      7  O   UNL     1     -10.976  -9.400  18.303  0.00  0.00    -0.276 OA
ATOM      9  N   UNL     1     -11.186  -8.363  16.235  0.00  0.00    -0.298 N 
ATOM     10  N   UNL     1     -12.413  -6.409  14.487  0.00  0.00    -0.327 N 
ATOM     19  C   UNL     1     -10.571  -9.216  17.153  0.00  0.00    +0.218 C 
ATOM     20  C   UNL     1     -12.385  -7.628  16.626  0.00  0.00    +0.126 C 
ATOM     21  C   UNL     1     -10.698  -8.137  14.872  0.00  0.00    +0.126 C 
ATOM     22  C   UNL     1     -12.466  -6.264  15.945  0.00  0.00    +0.124 C 
ATOM     23  C   UNL     1     -11.785  -7.612  13.934  0.00  0.00    +0.124 C 
BRANCH  10  24
ATOM      1  F   UNL     1     -14.646  -2.586  11.186  0.00  0.00    -0.205 F 
ATOM     24  C   UNL     1     -12.976  -5.445  13.654  0.00  0.00    +0.030 A 
ATOM     26  C   UNL     1     -12.154  -4.563  12.953  0.00  0.00    +0.026 A 
ATOM     27  C   UNL     1     -14.362  -5.362  13.521  0.00  0.00    +0.026 A 
ATOM     28  C   UNL     1     -12.718  -3.596  12.120  0.00  0.00    +0.040 A 
ATOM     29  C   UNL     1     -14.926  -4.397  12.688  0.00  0.00    +0.040 A 
ATOM     30  C   UNL     1     -14.104  -3.513  11.987  0.00  0.00    +0.124 A 
ENDBRANCH  10  24
ENDBRANCH  17  19
ENDBRANCH  13  17
BRANCH  16  18
ATOM     18  C   UNL     1      -5.448 -11.448  16.764  0.00  0.00    +0.140 C 
BRANCH  18  11
ATOM      8  O   UNL     1      -6.218 -11.608  14.009  0.00  0.00    -0.253 OA
ATOM     11  N   UNL     1      -4.792 -10.824  15.654  0.00  0.00    -0.297 N 
ATOM     12  N   UNL     1      -4.397 -10.232  13.460  0.00  0.00    -0.267 N 
ATOM     25  C   UNL     1      -5.230 -10.948  14.324  0.00  0.00    +0.304 C 
ATOM     39  H   UNL     1      -3.973 -10.252  15.840  0.00  0.00    +0.150 HD
ATOM     40  H   UNL     1      -3.616  -9.735  13.884  0.00  0.00    +0.156 HD
BRANCH  12  31
ATOM      2  F   UNL     1      -6.200  -8.462  12.283  0.00  0.00    -0.203 F 
ATOM      3  F   UNL     1      -4.800  -9.756   7.953  0.00  0.00    -0.205 F 
ATOM     31  C   UNL     1      -4.503 -10.108  12.056  0.00  0.00    +0.070 A 
ATOM     32  C   UNL     1      -5.414  -9.213  11.497  0.00  0.00    +0.147 A 
ATOM     33  C   UNL     1      -3.691 -10.884  11.228  0.00  0.00    +0.029 A 
ATOM     34  C   UNL     1      -5.515  -9.094  10.111  0.00  0.00    +0.078 A 
ATOM     35  C   UNL     1      -3.792 -10.765   9.842  0.00  0.00    +0.040 A 
ATOM     36  C   UNL     1      -4.704  -9.869   9.283  0.00  0.00    +0.126 A 
ENDBRANCH  12  31
ENDBRANCH  18  11
ENDBRANCH  16  18
TORSDOF 8
ENDMDL
