REMARK  Name = 38031212
REMARK  14 active torsions:
REMARK  status: ('A' for Active; 'I' for Inactive)
REMARK    1  A    between atoms: N_2  and  C_13
REMARK    2  A    between atoms: N_2  and  C_19
REMARK    3  A    between atoms: C_6  and  C_10
REMARK    4  A    between atoms: C_7  and  C_13
REMARK    5  A    between atoms: C_9  and  C_14
REMARK    6  A    between atoms: C_10  and  C_15
REMARK    7  A    between atoms: C_10  and  C_16
REMARK    8  A    between atoms: C_11  and  C_17
REMARK    9  A    between atoms: C_14  and  C_18
REMARK   10  A    between atoms: C_19  and  C_22
REMARK   11  A    between atoms: C_20  and  C_21
REMARK   12  A    between atoms: C_21  and  C_23
REMARK   13  A    between atoms: C_21  and  C_24
REMARK   14  A    between atoms: C_21  and  C_25
REMARK                            x       y       z     vdW  Elec       q    Type
REMARK                         _______ _______ _______ _____ _____    ______ ____
ROOT
ATOM      6  C   UNL     1      -0.211   1.923   0.913  0.00  0.00    +0.000 C 
ATOM      7  C   UNL     1      -1.361   2.734   0.264  0.00  0.00    +0.029 C 
ATOM      8  C   UNL     1       1.095   2.123   0.128  0.00  0.00    +0.012 C 
ATOM      9  C   UNL     1       0.962   1.690  -1.344  0.00  0.00    +0.024 C 
ATOM     11  C   UNL     1      -0.300   2.236  -1.980  0.00  0.00    -0.073 C 
ATOM     12  C   UNL     1      -1.322   2.711  -1.246  0.00  0.00    -0.023 C 
ATOM     17  C   UNL     1      -0.343   2.266  -3.482  0.00  0.00    +0.039 C 
ENDROOT
BRANCH   6  10
ATOM     10  C   UNL     1       0.001   2.311   2.380  0.00  0.00    -0.013 C 
ATOM     15  C   UNL     1       0.659   1.165   3.143  0.00  0.00    +0.007 C 
ATOM     16  C   UNL     1       0.841   3.580   2.479  0.00  0.00    +0.007 C 
ENDBRANCH   6  10
BRANCH   7  13
ATOM     13  C   UNL     1      -2.728   2.237   0.748  0.00  0.00    +0.089 C 
BRANCH  13   2
ATOM      2  N   UNL     1      -2.962   0.871   0.313  0.00  0.00    -0.311 NA
ATOM     30  H   UNL     1      -2.929   0.818  -0.705  0.00  0.00    +0.122 HD
BRANCH   2  19
ATOM     19  C   UNL     1      -4.256   0.386   0.777  0.00  0.00    +0.117 C 
BRANCH  19  22
ATOM      5  N   UNL     1      -4.595  -3.381   0.927  0.00  0.00    -0.263 NA
ATOM     22  C   UNL     1      -4.508  -1.035   0.349  0.00  0.00    -0.016 A 
ATOM     26  C   UNL     1      -4.871  -1.336  -0.959  0.00  0.00    +0.008 A 
ATOM     27  C   UNL     1      -4.385  -2.084   1.246  0.00  0.00    +0.115 A 
ATOM     28  C   UNL     1      -5.096  -2.659  -1.325  0.00  0.00    +0.020 A 
ATOM     29  C   UNL     1      -4.946  -3.635  -0.354  0.00  0.00    +0.111 A 
ENDBRANCH  19  22
ENDBRANCH   2  19
ENDBRANCH  13   2
ENDBRANCH   7  13
BRANCH   9  14
ATOM     14  C   UNL     1       1.028   0.164  -1.479  0.00  0.00    +0.105 C 
BRANCH  14  18
ATOM      1  O   UNL     1       2.770  -0.923  -0.161  0.00  0.00    -0.424 OA
ATOM      3  N   UNL     1       3.425  -0.302  -2.208  0.00  0.00    -0.112 NA
ATOM      4  N   UNL     1       4.501  -0.899  -1.578  0.00  0.00    -0.112 NA
ATOM     18  C   UNL     1       2.438  -0.338  -1.343  0.00  0.00    +0.218 A 
ATOM     20  C   UNL     1       4.073  -1.246  -0.387  0.00  0.00    +0.223 A 
BRANCH  20  21
ATOM     21  C   UNL     1       4.788  -1.920   0.704  0.00  0.00    +0.040 C 
ATOM     23  C   UNL     1       6.322  -1.591   0.694  0.00  0.00    +0.020 C 
ATOM     24  C   UNL     1       4.662  -3.481   0.616  0.00  0.00    +0.020 C 
ATOM     25  C   UNL     1       4.318  -1.568   2.165  0.00  0.00    +0.020 C 
ENDBRANCH  20  21
ENDBRANCH  14  18
ENDBRANCH   9  14
TORSDOF 8
