REMARK  Name = 75536903
REMARK  5 active torsions:
REMARK  status: ('A' for Active; 'I' for Inactive)
REMARK    1  A    between atoms: O_2  and  C_8
REMARK    2  A    between atoms: O_2  and  C_15
REMARK    3  A    between atoms: O_4  and  C_18
REMARK    4  A    between atoms: O_4  and  C_24
REMARK    5  A    between atoms: C_13  and  C_14
REMARK                            x       y       z     vdW  Elec       q    Type
REMARK                         _______ _______ _______ _____ _____    ______ ____
ROOT
ATOM      1  O   UNL     1      -1.566  -2.603  -1.330  0.00  0.00    -0.375 OA
ATOM      3  O   UNL     1       2.888  -2.614   0.531  0.00  0.00    -0.270 OA
ATOM      5  N   UNL     1       0.757  -1.637   0.538  0.00  0.00    -0.292 N 
ATOM      8  C   UNL     1      -1.473  -0.536  -0.037  0.00  0.00    +0.218 C 
ATOM      9  C   UNL     1      -0.062  -0.419   0.548  0.00  0.00    +0.155 C 
ATOM     10  C   UNL     1       0.079  -2.931   0.452  0.00  0.00    +0.136 C 
ATOM     11  C   UNL     1      -1.499  -1.183  -1.420  0.00  0.00    +0.206 C 
ATOM     12  C   UNL     1      -0.341  -3.236  -0.980  0.00  0.00    +0.179 C 
ATOM     13  C   UNL     1       2.162  -1.621   0.569  0.00  0.00    +0.247 C 
ENDROOT
BRANCH  13  14
ATOM     14  C   UNL     1       2.843  -0.320   0.656  0.00  0.00    +0.040 A 
ATOM     16  C   UNL     1       3.193   0.364  -0.508  0.00  0.00    +0.058 A 
ATOM     17  C   UNL     1       3.140   0.230   1.904  0.00  0.00    +0.013 A 
ATOM     18  C   UNL     1       3.839   1.597  -0.425  0.00  0.00    +0.121 A 
ATOM     19  C   UNL     1       3.786   1.463   1.986  0.00  0.00    +0.004 A 
ATOM     20  C   UNL     1       4.135   2.147   0.822  0.00  0.00    +0.045 A 
BRANCH  18   4
ATOM      4  O   UNL     1       4.179   2.265  -1.561  0.00  0.00    -0.495 OA
ATOM     24  C   UNL     1       3.847   1.646  -2.803  0.00  0.00    +0.277 C 
ENDBRANCH  18   4
ENDBRANCH  13  14
BRANCH   8   2
ATOM      2  O   UNL     1      -1.989   0.792  -0.135  0.00  0.00    -0.468 OA
BRANCH   2  15
ATOM      6  N   UNL     1      -4.064  -0.171   0.279  0.00  0.00    -0.219 NA
ATOM      7  N   UNL     1      -5.242   2.369   0.119  0.00  0.00    -0.256 NA
ATOM     15  C   UNL     1      -3.338   0.938   0.035  0.00  0.00    +0.234 A 
ATOM     21  C   UNL     1      -3.917   2.186  -0.043  0.00  0.00    +0.177 A 
ATOM     22  C   UNL     1      -5.389   0.012   0.441  0.00  0.00    +0.134 A 
ATOM     23  C   UNL     1      -5.968   1.260   0.362  0.00  0.00    +0.130 A 
ENDBRANCH   2  15
ENDBRANCH   8   2
TORSDOF 4
