MODEL 1
REMARK VINA RESULT:      -7.6      0.000      0.000
REMARK  Name = 45783894
REMARK  12 active torsions:
REMARK  status: ('A' for Active; 'I' for Inactive)
REMARK    1  A    between atoms: S_1  and  N_6
REMARK    2  A    between atoms: S_1  and  C_27
REMARK    3  A    between atoms: O_5  and  C_34
REMARK    4  A    between atoms: O_5  and  C_38
REMARK    5  A    between atoms: N_6  and  C_17
REMARK    6  A    between atoms: C_10  and  C_14
REMARK    7  A    between atoms: C_11  and  C_17
REMARK    8  A    between atoms: C_13  and  C_18
REMARK    9  A    between atoms: C_14  and  C_19
REMARK   10  A    between atoms: C_14  and  C_20
REMARK   11  A    between atoms: C_15  and  C_21
REMARK   12  A    between atoms: C_18  and  C_22
REMARK                            x       y       z     vdW  Elec       q    Type
REMARK                         _______ _______ _______ _____ _____    ______ ____
ROOT
ATOM     10  C   UNL     1     -16.424   3.318  28.054  0.00  0.00    +0.000 C 
ATOM     11  C   UNL     1     -16.725   1.801  27.969  0.00  0.00    +0.030 C 
ATOM     12  C   UNL     1     -17.425   4.112  27.201  0.00  0.00    +0.012 C 
ATOM     13  C   UNL     1     -17.391   3.691  25.720  0.00  0.00    +0.023 C 
ATOM     15  C   UNL     1     -17.414   2.183  25.563  0.00  0.00    -0.073 C 
ATOM     16  C   UNL     1     -17.127   1.355  26.583  0.00  0.00    -0.023 C 
ATOM     21  C   UNL     1     -17.820   1.649  24.217  0.00  0.00    +0.039 C 
ENDROOT
BRANCH  10  14
ATOM     14  C   UNL     1     -16.459   3.825  29.499  0.00  0.00    -0.013 C 
ATOM     19  C   UNL     1     -17.758   3.406  30.179  0.00  0.00    +0.007 C 
ATOM     20  C   UNL     1     -16.293   5.340  29.536  0.00  0.00    +0.007 C 
ENDBRANCH  10  14
BRANCH  11  17
ATOM     17  C   UNL     1     -15.528   0.971  28.445  0.00  0.00    +0.113 C 
BRANCH  17   6
ATOM      6  N   UNL     1     -15.884   0.290  29.700  0.00  0.00    -0.189 NA
ATOM     39  H   UNL     1     -16.853   0.393  30.024  0.00  0.00    +0.148 HD
BRANCH   6   1
ATOM      1  S   UNL     1     -14.688  -0.033  30.869  0.00  0.00    +0.058 S 
ATOM      3  O   UNL     1     -13.450  -0.388  30.202  0.00  0.00    -0.153 OA
ATOM      4  O   UNL     1     -15.243  -0.904  31.888  0.00  0.00    -0.153 OA
BRANCH   1  27
ATOM     27  C   UNL     1     -14.471   1.556  31.612  0.00  0.00    +0.105 A 
ATOM     29  C   UNL     1     -15.277   1.942  32.682  0.00  0.00    +0.032 A 
ATOM     30  C   UNL     1     -13.495   2.425  31.125  0.00  0.00    +0.032 A 
ATOM     32  C   UNL     1     -15.108   3.197  33.267  0.00  0.00    +0.047 A 
ATOM     33  C   UNL     1     -13.325   3.681  31.709  0.00  0.00    +0.047 A 
ATOM     34  C   UNL     1     -14.131   4.066  32.780  0.00  0.00    +0.120 A 
BRANCH  34   5
ATOM      5  O   UNL     1     -13.965   5.291  33.350  0.00  0.00    -0.495 OA
ATOM     38  C   UNL     1     -14.161   5.382  34.760  0.00  0.00    +0.277 C 
ENDBRANCH  34   5
ENDBRANCH   1  27
ENDBRANCH   6   1
ENDBRANCH  17   6
ENDBRANCH  11  17
BRANCH  13  18
ATOM     18  C   UNL     1     -16.182   4.298  24.999  0.00  0.00    +0.103 C 
BRANCH  18  22
ATOM      2  O   UNL     1     -17.786   5.868  24.223  0.00  0.00    -0.276 OA
ATOM      7  N   UNL     1     -15.668   5.984  23.274  0.00  0.00    -0.298 N 
ATOM      8  N   UNL     1     -13.701   7.300  21.606  0.00  0.00    -0.312 N 
ATOM      9  N   UNL     1     -12.102   7.252  19.869  0.00  0.00    -0.240 NA
ATOM     22  C   UNL     1     -16.627   5.454  24.138  0.00  0.00    +0.216 C 
ATOM     23  C   UNL     1     -14.289   5.498  23.181  0.00  0.00    +0.126 C 
ATOM     24  C   UNL     1     -16.022   7.102  22.403  0.00  0.00    +0.126 C 
ATOM     25  C   UNL     1     -13.623   5.858  21.853  0.00  0.00    +0.125 C 
ATOM     26  C   UNL     1     -14.839   8.037  22.163  0.00  0.00    +0.125 C 
ATOM     28  C   UNL     1     -12.741   7.951  20.834  0.00  0.00    +0.121 A 
ATOM     31  C   UNL     1     -12.505   9.288  21.110  0.00  0.00    +0.043 A 
ATOM     35  C   UNL     1     -11.550   9.950  20.348  0.00  0.00    +0.005 A 
ATOM     36  C   UNL     1     -11.180   7.930  19.149  0.00  0.00    +0.113 A 
ATOM     37  C   UNL     1     -10.871   9.265  19.346  0.00  0.00    +0.020 A 
ENDBRANCH  18  22
ENDBRANCH  13  18
TORSDOF 8
ENDMDL
MODEL 2
REMARK VINA RESULT:      -6.9     19.509     22.311
REMARK  Name = 45783894
REMARK  12 active torsions:
REMARK  status: ('A' for Active; 'I' for Inactive)
REMARK    1  A    between atoms: S_1  and  N_6
REMARK    2  A    between atoms: S_1  and  C_27
REMARK    3  A    between atoms: O_5  and  C_34
REMARK    4  A    between atoms: O_5  and  C_38
REMARK    5  A    between atoms: N_6  and  C_17
REMARK    6  A    between atoms: C_10  and  C_14
REMARK    7  A    between atoms: C_11  and  C_17
REMARK    8  A    between atoms: C_13  and  C_18
REMARK    9  A    between atoms: C_14  and  C_19
REMARK   10  A    between atoms: C_14  and  C_20
REMARK   11  A    between atoms: C_15  and  C_21
REMARK   12  A    between atoms: C_18  and  C_22
REMARK                            x       y       z     vdW  Elec       q    Type
REMARK                         _______ _______ _______ _____ _____    ______ ____
ROOT
ATOM     10  C   UNL     1      -5.828 -11.566  14.991  0.00  0.00    +0.000 C 
ATOM     11  C   UNL     1      -4.540 -12.155  15.617  0.00  0.00    +0.030 C 
ATOM     12  C   UNL     1      -6.301 -10.342  15.789  0.00  0.00    +0.012 C 
ATOM     13  C   UNL     1      -6.587 -10.683  17.264  0.00  0.00    +0.023 C 
ATOM     15  C   UNL     1      -5.470 -11.502  17.879  0.00  0.00    -0.073 C 
ATOM     16  C   UNL     1      -4.556 -12.142  17.127  0.00  0.00    -0.023 C 
ATOM     21  C   UNL     1      -5.400 -11.531  19.381  0.00  0.00    +0.039 C 
ENDROOT
BRANCH  10  14
ATOM     14  C   UNL     1      -5.622 -11.179  13.523  0.00  0.00    -0.013 C 
ATOM     19  C   UNL     1      -5.835  -9.682  13.332  0.00  0.00    +0.007 C 
ATOM     20  C   UNL     1      -6.561 -11.978  12.625  0.00  0.00    +0.007 C 
ENDBRANCH  10  14
BRANCH  11  17
ATOM     17  C   UNL     1      -4.286 -13.583  15.122  0.00  0.00    +0.113 C 
BRANCH  17   6
ATOM      6  N   UNL     1      -2.842 -13.767  14.904  0.00  0.00    -0.189 NA
ATOM     39  H   UNL     1      -2.210 -13.244  15.522  0.00  0.00    +0.148 HD
BRANCH   6   1
ATOM      1  S   UNL     1      -2.257 -14.215  13.369  0.00  0.00    +0.058 S 
ATOM      3  O   UNL     1      -3.117 -15.240  12.809  0.00  0.00    -0.153 OA
ATOM      4  O   UNL     1      -0.824 -14.429  13.450  0.00  0.00    -0.153 OA
BRANCH   1  27
ATOM     27  C   UNL     1      -2.505 -12.730  12.441  0.00  0.00    +0.105 A 
ATOM     29  C   UNL     1      -1.959 -11.528  12.891  0.00  0.00    +0.032 A 
ATOM     30  C   UNL     1      -3.249 -12.761  11.262  0.00  0.00    +0.032 A 
ATOM     32  C   UNL     1      -2.156 -10.356  12.161  0.00  0.00    +0.047 A 
ATOM     33  C   UNL     1      -3.447 -11.589  10.532  0.00  0.00    +0.047 A 
ATOM     34  C   UNL     1      -2.900 -10.387  10.982  0.00  0.00    +0.120 A 
BRANCH  34   5
ATOM      5  O   UNL     1      -3.093  -9.243  10.269  0.00  0.00    -0.495 OA
ATOM     38  C   UNL     1      -4.111  -9.266   9.270  0.00  0.00    +0.277 C 
ENDBRANCH  34   5
ENDBRANCH   1  27
ENDBRANCH   6   1
ENDBRANCH  17   6
ENDBRANCH  11  17
BRANCH  13  18
ATOM     18  C   UNL     1      -7.936 -11.395  17.415  0.00  0.00    +0.103 C 
BRANCH  18  22
ATOM      2  O   UNL     1      -8.999 -10.379  19.279  0.00  0.00    -0.276 OA
ATOM      7  N   UNL     1      -9.756  -9.747  17.175  0.00  0.00    -0.298 N 
ATOM      8  N   UNL     1     -11.351  -8.054  15.452  0.00  0.00    -0.312 N 
ATOM      9  N   UNL     1     -12.922  -7.773  13.710  0.00  0.00    -0.240 NA
ATOM     22  C   UNL     1      -8.939 -10.463  18.050  0.00  0.00    +0.216 C 
ATOM     23  C   UNL     1      -9.676  -9.842  15.715  0.00  0.00    +0.126 C 
ATOM     24  C   UNL     1     -10.756  -8.829  17.711  0.00  0.00    +0.126 C 
ATOM     25  C   UNL     1     -10.965  -9.400  15.022  0.00  0.00    +0.125 C 
ATOM     26  C   UNL     1     -10.973  -7.622  16.800  0.00  0.00    +0.125 C 
ATOM     28  C   UNL     1     -12.090  -7.216  14.619  0.00  0.00    +0.121 A 
ATOM     31  C   UNL     1     -11.918  -5.850  14.780  0.00  0.00    +0.043 A 
ATOM     35  C   UNL     1     -12.648  -5.002  13.955  0.00  0.00    +0.005 A 
ATOM     36  C   UNL     1     -13.615  -6.916  12.927  0.00  0.00    +0.113 A 
ATOM     37  C   UNL     1     -13.515  -5.538  13.008  0.00  0.00    +0.020 A 
ENDBRANCH  18  22
ENDBRANCH  13  18
TORSDOF 8
ENDMDL
MODEL 3
REMARK VINA RESULT:      -6.9      3.724      7.583
REMARK  Name = 45783894
REMARK  12 active torsions:
REMARK  status: ('A' for Active; 'I' for Inactive)
REMARK    1  A    between atoms: S_1  and  N_6
REMARK    2  A    between atoms: S_1  and  C_27
REMARK    3  A    between atoms: O_5  and  C_34
REMARK    4  A    between atoms: O_5  and  C_38
REMARK    5  A    between atoms: N_6  and  C_17
REMARK    6  A    between atoms: C_10  and  C_14
REMARK    7  A    between atoms: C_11  and  C_17
REMARK    8  A    between atoms: C_13  and  C_18
REMARK    9  A    between atoms: C_14  and  C_19
REMARK   10  A    between atoms: C_14  and  C_20
REMARK   11  A    between atoms: C_15  and  C_21
REMARK   12  A    between atoms: C_18  and  C_22
REMARK                            x       y       z     vdW  Elec       q    Type
REMARK                         _______ _______ _______ _____ _____    ______ ____
ROOT
ATOM     10  C   UNL     1     -15.617   6.721  21.070  0.00  0.00    +0.000 C 
ATOM     11  C   UNL     1     -14.693   5.596  21.598  0.00  0.00    +0.030 C 
ATOM     12  C   UNL     1     -15.026   7.349  19.799  0.00  0.00    +0.012 C 
ATOM     13  C   UNL     1     -13.625   7.943  20.041  0.00  0.00    +0.023 C 
ATOM     15  C   UNL     1     -12.731   6.984  20.801  0.00  0.00    -0.073 C 
ATOM     16  C   UNL     1     -13.225   5.933  21.481  0.00  0.00    -0.023 C 
ATOM     21  C   UNL     1     -11.250   7.235  20.726  0.00  0.00    +0.039 C 
ENDROOT
BRANCH  10  14
ATOM     14  C   UNL     1     -17.032   6.207  20.783  0.00  0.00    -0.013 C 
ATOM     19  C   UNL     1     -16.985   5.036  19.807  0.00  0.00    +0.007 C 
ATOM     20  C   UNL     1     -17.907   7.331  20.238  0.00  0.00    +0.007 C 
ENDBRANCH  10  14
BRANCH  11  17
ATOM     17  C   UNL     1     -15.022   5.247  23.054  0.00  0.00    +0.113 C 
BRANCH  17   6
ATOM      6  N   UNL     1     -15.197   3.791  23.171  0.00  0.00    -0.189 NA
ATOM     39  H   UNL     1     -14.513   3.201  22.683  0.00  0.00    +0.148 HD
BRANCH   6   1
ATOM      1  S   UNL     1     -16.742   3.135  23.467  0.00  0.00    +0.058 S 
ATOM      3  O   UNL     1     -16.918   1.944  22.657  0.00  0.00    -0.153 OA
ATOM      4  O   UNL     1     -17.727   4.199  23.423  0.00  0.00    -0.153 OA
BRANCH   1  27
ATOM     27  C   UNL     1     -16.602   2.631  25.155  0.00  0.00    +0.105 A 
ATOM     29  C   UNL     1     -16.186   3.544  26.124  0.00  0.00    +0.032 A 
ATOM     30  C   UNL     1     -16.905   1.319  25.518  0.00  0.00    +0.032 A 
ATOM     32  C   UNL     1     -16.073   3.146  27.456  0.00  0.00    +0.047 A 
ATOM     33  C   UNL     1     -16.791   0.920  26.850  0.00  0.00    +0.047 A 
ATOM     34  C   UNL     1     -16.376   1.834  27.818  0.00  0.00    +0.120 A 
BRANCH  34   5
ATOM      5  O   UNL     1     -16.266   1.445  29.119  0.00  0.00    -0.495 OA
ATOM     38  C   UNL     1     -15.099   0.707  29.478  0.00  0.00    +0.277 C 
ENDBRANCH  34   5
ENDBRANCH   1  27
ENDBRANCH   6   1
ENDBRANCH  17   6
ENDBRANCH  11  17
BRANCH  13  18
ATOM     18  C   UNL     1     -13.714   9.295  20.757  0.00  0.00    +0.103 C 
BRANCH  18  22
ATOM      2  O   UNL     1     -15.204  10.671  19.523  0.00  0.00    -0.276 OA
ATOM      7  N   UNL     1     -12.933  10.999  19.154  0.00  0.00    -0.298 N 
ATOM      8  N   UNL     1     -10.738  12.492  18.000  0.00  0.00    -0.312 N 
ATOM      9  N   UNL     1      -8.740  12.589  16.743  0.00  0.00    -0.240 NA
ATOM     22  C   UNL     1     -14.028  10.383  19.760  0.00  0.00    +0.216 C 
ATOM     23  C   UNL     1     -11.537  10.663  19.444  0.00  0.00    +0.126 C 
ATOM     24  C   UNL     1     -13.154  12.059  18.173  0.00  0.00    +0.126 C 
ATOM     25  C   UNL     1     -10.585  11.071  18.321  0.00  0.00    +0.125 C 
ATOM     26  C   UNL     1     -12.049  13.112  18.209  0.00  0.00    +0.125 C 
ATOM     28  C   UNL     1      -9.678  13.230  17.476  0.00  0.00    +0.121 A 
ATOM     31  C   UNL     1      -9.657  14.589  17.747  0.00  0.00    +0.043 A 
ATOM     35  C   UNL     1      -8.606  15.339  17.231  0.00  0.00    +0.005 A 
ATOM     36  C   UNL     1      -7.734  13.352  16.258  0.00  0.00    +0.113 A 
ATOM     37  C   UNL     1      -7.622  14.715  16.471  0.00  0.00    +0.020 A 
ENDBRANCH  18  22
ENDBRANCH  13  18
TORSDOF 8
ENDMDL
MODEL 4
REMARK VINA RESULT:      -6.7     20.814     24.728
REMARK  Name = 45783894
REMARK  12 active torsions:
REMARK  status: ('A' for Active; 'I' for Inactive)
REMARK    1  A    between atoms: S_1  and  N_6
REMARK    2  A    between atoms: S_1  and  C_27
REMARK    3  A    between atoms: O_5  and  C_34
REMARK    4  A    between atoms: O_5  and  C_38
REMARK    5  A    between atoms: N_6  and  C_17
REMARK    6  A    between atoms: C_10  and  C_14
REMARK    7  A    between atoms: C_11  and  C_17
REMARK    8  A    between atoms: C_13  and  C_18
REMARK    9  A    between atoms: C_14  and  C_19
REMARK   10  A    between atoms: C_14  and  C_20
REMARK   11  A    between atoms: C_15  and  C_21
REMARK   12  A    between atoms: C_18  and  C_22
REMARK                            x       y       z     vdW  Elec       q    Type
REMARK                         _______ _______ _______ _____ _____    ______ ____
ROOT
ATOM     10  C   UNL     1      -6.306 -10.316   9.746  0.00  0.00    +0.000 C 
ATOM     11  C   UNL     1      -5.688  -9.347   8.708  0.00  0.00    +0.030 C 
ATOM     12  C   UNL     1      -5.813  -9.973  11.159  0.00  0.00    +0.012 C 
ATOM     13  C   UNL     1      -4.278 -10.048  11.275  0.00  0.00    +0.023 C 
ATOM     15  C   UNL     1      -3.592  -9.336  10.126  0.00  0.00    -0.073 C 
ATOM     16  C   UNL     1      -4.242  -9.019   8.992  0.00  0.00    -0.023 C 
ATOM     21  C   UNL     1      -2.151  -8.956  10.330  0.00  0.00    +0.039 C 
ENDROOT
BRANCH  10  14
ATOM     14  C   UNL     1      -7.838 -10.286   9.711  0.00  0.00    -0.013 C 
ATOM     19  C   UNL     1      -8.360  -9.012  10.365  0.00  0.00    +0.007 C 
ATOM     20  C   UNL     1      -8.410 -11.522  10.398  0.00  0.00    +0.007 C 
ENDBRANCH  10  14
BRANCH  11  17
ATOM     17  C   UNL     1      -5.815  -9.906   7.285  0.00  0.00    +0.113 C 
BRANCH  17   6
ATOM      6  N   UNL     1      -6.308  -8.844   6.394  0.00  0.00    -0.189 NA
ATOM     39  H   UNL     1      -5.868  -7.920   6.485  0.00  0.00    +0.148 HD
BRANCH   6   1
ATOM      1  S   UNL     1      -7.898  -8.906   5.785  0.00  0.00    +0.058 S 
ATOM      3  O   UNL     1      -8.432 -10.241   5.977  0.00  0.00    -0.153 OA
ATOM      4  O   UNL     1      -7.928  -8.290   4.472  0.00  0.00    -0.153 OA
BRANCH   1  27
ATOM     27  C   UNL     1      -8.749  -7.816   6.886  0.00  0.00    +0.105 A 
ATOM     29  C   UNL     1     -10.097  -8.029   7.175  0.00  0.00    +0.032 A 
ATOM     30  C   UNL     1      -8.073  -6.741   7.463  0.00  0.00    +0.032 A 
ATOM     32  C   UNL     1     -10.769  -7.167   8.042  0.00  0.00    +0.047 A 
ATOM     33  C   UNL     1      -8.745  -5.878   8.329  0.00  0.00    +0.047 A 
ATOM     34  C   UNL     1     -10.093  -6.093   8.619  0.00  0.00    +0.120 A 
BRANCH  34   5
ATOM      5  O   UNL     1     -10.749  -5.251   9.465  0.00  0.00    -0.495 OA
ATOM     38  C   UNL     1     -10.852  -3.884   9.069  0.00  0.00    +0.277 C 
ENDBRANCH  34   5
ENDBRANCH   1  27
ENDBRANCH   6   1
ENDBRANCH  17   6
ENDBRANCH  11  17
BRANCH  13  18
ATOM     18  C   UNL     1      -3.802 -11.502  11.381  0.00  0.00    +0.103 C 
BRANCH  18  22
ATOM      2  O   UNL     1      -1.761 -11.716  12.575  0.00  0.00    -0.276 OA
ATOM      7  N   UNL     1      -3.717 -11.817  13.826  0.00  0.00    -0.298 N 
ATOM      8  N   UNL     1      -5.108 -11.882  16.364  0.00  0.00    -0.312 N 
ATOM      9  N   UNL     1      -6.697 -12.841  17.825  0.00  0.00    -0.240 NA
ATOM     22  C   UNL     1      -2.993 -11.685  12.641  0.00  0.00    +0.216 C 
ATOM     23  C   UNL     1      -5.179 -11.769  13.904  0.00  0.00    +0.126 C 
ATOM     24  C   UNL     1      -3.007 -12.003  15.088  0.00  0.00    +0.126 C 
ATOM     25  C   UNL     1      -5.727 -12.443  15.161  0.00  0.00    +0.125 C 
ATOM     26  C   UNL     1      -3.743 -11.358  16.260  0.00  0.00    +0.125 C 
ATOM     28  C   UNL     1      -5.781 -11.876  17.584  0.00  0.00    +0.121 A 
ATOM     31  C   UNL     1      -5.461 -10.868  18.480  0.00  0.00    +0.043 A 
ATOM     35  C   UNL     1      -6.124 -10.849  19.701  0.00  0.00    +0.005 A 
ATOM     36  C   UNL     1      -7.320 -12.790  19.024  0.00  0.00    +0.113 A 
ATOM     37  C   UNL     1      -7.073 -11.826  19.986  0.00  0.00    +0.020 A 
ENDBRANCH  18  22
ENDBRANCH  13  18
TORSDOF 8
ENDMDL
MODEL 5
REMARK VINA RESULT:      -6.6     27.491     31.800
REMARK  Name = 45783894
REMARK  12 active torsions:
REMARK  status: ('A' for Active; 'I' for Inactive)
REMARK    1  A    between atoms: S_1  and  N_6
REMARK    2  A    between atoms: S_1  and  C_27
REMARK    3  A    between atoms: O_5  and  C_34
REMARK    4  A    between atoms: O_5  and  C_38
REMARK    5  A    between atoms: N_6  and  C_17
REMARK    6  A    between atoms: C_10  and  C_14
REMARK    7  A    between atoms: C_11  and  C_17
REMARK    8  A    between atoms: C_13  and  C_18
REMARK    9  A    between atoms: C_14  and  C_19
REMARK   10  A    between atoms: C_14  and  C_20
REMARK   11  A    between atoms: C_15  and  C_21
REMARK   12  A    between atoms: C_18  and  C_22
REMARK                            x       y       z     vdW  Elec       q    Type
REMARK                         _______ _______ _______ _____ _____    ______ ____
ROOT
ATOM     10  C   UNL     1      16.295   8.198  20.413  0.00  0.00    +0.000 C 
ATOM     11  C   UNL     1      15.386   7.657  21.543  0.00  0.00    +0.030 C 
ATOM     12  C   UNL     1      17.153   9.364  20.926  0.00  0.00    +0.012 C 
ATOM     13  C   UNL     1      16.296  10.527  21.460  0.00  0.00    +0.023 C 
ATOM     15  C   UNL     1      15.197  10.038  22.382  0.00  0.00    -0.073 C 
ATOM     16  C   UNL     1      14.813   8.749  22.415  0.00  0.00    -0.023 C 
ATOM     21  C   UNL     1      14.580  11.058  23.299  0.00  0.00    +0.039 C 
ENDROOT
BRANCH  10  14
ATOM     14  C   UNL     1      17.199   7.103  19.837  0.00  0.00    -0.013 C 
ATOM     19  C   UNL     1      16.392   6.153  18.960  0.00  0.00    +0.007 C 
ATOM     20  C   UNL     1      17.896   6.342  20.961  0.00  0.00    +0.007 C 
ENDBRANCH  10  14
BRANCH  11  17
ATOM     17  C   UNL     1      14.244   6.805  20.977  0.00  0.00    +0.113 C 
BRANCH  17   6
ATOM      6  N   UNL     1      13.050   6.981  21.818  0.00  0.00    -0.189 NA
ATOM     39  H   UNL     1      13.031   6.468  22.708  0.00  0.00    +0.148 HD
BRANCH   6   1
ATOM      1  S   UNL     1      11.557   7.397  21.112  0.00  0.00    +0.058 S 
ATOM      3  O   UNL     1      10.480   6.819  21.894  0.00  0.00    -0.153 OA
ATOM      4  O   UNL     1      11.626   7.164  19.682  0.00  0.00    -0.153 OA
BRANCH   1  27
ATOM     27  C   UNL     1      11.523   9.149  21.348  0.00  0.00    +0.105 A 
ATOM     29  C   UNL     1      12.097   9.992  20.396  0.00  0.00    +0.032 A 
ATOM     30  C   UNL     1      10.924   9.686  22.486  0.00  0.00    +0.032 A 
ATOM     32  C   UNL     1      12.072  11.374  20.583  0.00  0.00    +0.047 A 
ATOM     33  C   UNL     1      10.900  11.069  22.674  0.00  0.00    +0.047 A 
ATOM     34  C   UNL     1      11.473  11.912  21.722  0.00  0.00    +0.120 A 
BRANCH  34   5
ATOM      5  O   UNL     1      11.449  13.261  21.905  0.00  0.00    -0.495 OA
ATOM     38  C   UNL     1      11.357  14.072  20.736  0.00  0.00    +0.277 C 
ENDBRANCH  34   5
ENDBRANCH   1  27
ENDBRANCH   6   1
ENDBRANCH  17   6
ENDBRANCH  11  17
BRANCH  13  18
ATOM     18  C   UNL     1      15.718  11.361  20.312  0.00  0.00    +0.103 C 
BRANCH  18  22
ATOM      2  O   UNL     1      17.681  12.692  20.433  0.00  0.00    -0.276 OA
ATOM      7  N   UNL     1      16.722  12.437  18.332  0.00  0.00    -0.298 N 
ATOM      8  N   UNL     1      16.779  12.768  15.457  0.00  0.00    -0.312 N 
ATOM      9  N   UNL     1      15.772  13.466  13.437  0.00  0.00    -0.240 NA
ATOM     22  C   UNL     1      16.801  12.221  19.708  0.00  0.00    +0.216 C 
ATOM     23  C   UNL     1      15.680  11.869  17.471  0.00  0.00    +0.126 C 
ATOM     24  C   UNL     1      17.729  13.263  17.673  0.00  0.00    +0.126 C 
ATOM     25  C   UNL     1      15.503  12.646  16.167  0.00  0.00    +0.125 C 
ATOM     26  C   UNL     1      18.012  12.793  16.248  0.00  0.00    +0.125 C 
ATOM     28  C   UNL     1      16.821  12.894  14.070  0.00  0.00    +0.121 A 
ATOM     31  C   UNL     1      17.951  12.417  13.424  0.00  0.00    +0.043 A 
ATOM     35  C   UNL     1      18.007  12.535  12.040  0.00  0.00    +0.005 A 
ATOM     36  C   UNL     1      15.863  13.563  12.091  0.00  0.00    +0.113 A 
ATOM     37  C   UNL     1      16.947  13.119  11.354  0.00  0.00    +0.020 A 
ENDBRANCH  18  22
ENDBRANCH  13  18
TORSDOF 8
ENDMDL
MODEL 6
REMARK VINA RESULT:      -6.6      6.952     13.191
REMARK  Name = 45783894
REMARK  12 active torsions:
REMARK  status: ('A' for Active; 'I' for Inactive)
REMARK    1  A    between atoms: S_1  and  N_6
REMARK    2  A    between atoms: S_1  and  C_27
REMARK    3  A    between atoms: O_5  and  C_34
REMARK    4  A    between atoms: O_5  and  C_38
REMARK    5  A    between atoms: N_6  and  C_17
REMARK    6  A    between atoms: C_10  and  C_14
REMARK    7  A    between atoms: C_11  and  C_17
REMARK    8  A    between atoms: C_13  and  C_18
REMARK    9  A    between atoms: C_14  and  C_19
REMARK   10  A    between atoms: C_14  and  C_20
REMARK   11  A    between atoms: C_15  and  C_21
REMARK   12  A    between atoms: C_18  and  C_22
REMARK                            x       y       z     vdW  Elec       q    Type
REMARK                         _______ _______ _______ _____ _____    ______ ____
ROOT
ATOM     10  C   UNL     1     -10.848  10.684  16.611  0.00  0.00    +0.000 C 
ATOM     11  C   UNL     1     -10.452   9.340  15.952  0.00  0.00    +0.030 C 
ATOM     12  C   UNL     1     -10.465  10.685  18.098  0.00  0.00    +0.012 C 
ATOM     13  C   UNL     1     -11.144   9.542  18.876  0.00  0.00    +0.023 C 
ATOM     15  C   UNL     1     -11.026   8.218  18.147  0.00  0.00    -0.073 C 
ATOM     16  C   UNL     1     -10.703   8.147  16.843  0.00  0.00    -0.023 C 
ATOM     21  C   UNL     1     -11.244   6.974  18.964  0.00  0.00    +0.039 C 
ENDROOT
BRANCH  10  14
ATOM     14  C   UNL     1     -10.195  11.877  15.907  0.00  0.00    -0.013 C 
ATOM     19  C   UNL     1      -9.256  12.609  16.861  0.00  0.00    +0.007 C 
ATOM     20  C   UNL     1     -11.260  12.824  15.364  0.00  0.00    +0.007 C 
ENDBRANCH  10  14
BRANCH  11  17
ATOM     17  C   UNL     1     -11.181   9.142  14.617  0.00  0.00    +0.113 C 
BRANCH  17   6
ATOM      6  N   UNL     1     -11.861   7.837  14.630  0.00  0.00    -0.189 NA
ATOM     39  H   UNL     1     -11.281   7.014  14.835  0.00  0.00    +0.148 HD
BRANCH   6   1
ATOM      1  S   UNL     1     -13.278   7.599  13.714  0.00  0.00    +0.058 S 
ATOM      3  O   UNL     1     -13.237   6.284  13.103  0.00  0.00    -0.153 OA
ATOM      4  O   UNL     1     -13.520   8.775  12.901  0.00  0.00    -0.153 OA
BRANCH   1  27
ATOM     27  C   UNL     1     -14.520   7.577  14.972  0.00  0.00    +0.105 A 
ATOM     29  C   UNL     1     -15.747   6.961  14.729  0.00  0.00    +0.032 A 
ATOM     30  C   UNL     1     -14.273   8.178  16.206  0.00  0.00    +0.032 A 
ATOM     32  C   UNL     1     -16.729   6.946  15.720  0.00  0.00    +0.047 A 
ATOM     33  C   UNL     1     -15.254   8.164  17.197  0.00  0.00    +0.047 A 
ATOM     34  C   UNL     1     -16.482   7.547  16.954  0.00  0.00    +0.120 A 
BRANCH  34   5
ATOM      5  O   UNL     1     -17.440   7.532  17.922  0.00  0.00    -0.495 OA
ATOM     38  C   UNL     1     -17.246   6.632  19.012  0.00  0.00    +0.277 C 
ENDBRANCH  34   5
ENDBRANCH   1  27
ENDBRANCH   6   1
ENDBRANCH  17   6
ENDBRANCH  11  17
BRANCH  13  18
ATOM     18  C   UNL     1     -12.610   9.873  19.178  0.00  0.00    +0.103 C 
BRANCH  18  22
ATOM      2  O   UNL     1     -12.375  11.048  21.227  0.00  0.00    -0.276 OA
ATOM      7  N   UNL     1     -13.463   8.998  21.320  0.00  0.00    -0.298 N 
ATOM      8  N   UNL     1     -15.012   7.006  22.740  0.00  0.00    -0.312 N 
ATOM      9  N   UNL     1     -15.374   4.777  23.430  0.00  0.00    -0.240 NA
ATOM     22  C   UNL     1     -12.802  10.037  20.665  0.00  0.00    +0.216 C 
ATOM     23  C   UNL     1     -13.979   7.801  20.649  0.00  0.00    +0.126 C 
ATOM     24  C   UNL     1     -13.684   9.079  22.761  0.00  0.00    +0.126 C 
ATOM     25  C   UNL     1     -14.170   6.624  21.604  0.00  0.00    +0.125 C 
ATOM     26  C   UNL     1     -14.989   8.404  23.179  0.00  0.00    +0.125 C 
ATOM     28  C   UNL     1     -15.789   6.063  23.410  0.00  0.00    +0.121 A 
ATOM     31  C   UNL     1     -16.949   6.514  24.019  0.00  0.00    +0.043 A 
ATOM     35  C   UNL     1     -17.735   5.585  24.691  0.00  0.00    +0.005 A 
ATOM     36  C   UNL     1     -16.164   3.902  24.094  0.00  0.00    +0.113 A 
ATOM     37  C   UNL     1     -17.341   4.252  24.734  0.00  0.00    +0.020 A 
ENDBRANCH  18  22
ENDBRANCH  13  18
TORSDOF 8
ENDMDL
MODEL 7
REMARK VINA RESULT:      -6.6     31.549     35.426
REMARK  Name = 45783894
REMARK  12 active torsions:
REMARK  status: ('A' for Active; 'I' for Inactive)
REMARK    1  A    between atoms: S_1  and  N_6
REMARK    2  A    between atoms: S_1  and  C_27
REMARK    3  A    between atoms: O_5  and  C_34
REMARK    4  A    between atoms: O_5  and  C_38
REMARK    5  A    between atoms: N_6  and  C_17
REMARK    6  A    between atoms: C_10  and  C_14
REMARK    7  A    between atoms: C_11  and  C_17
REMARK    8  A    between atoms: C_13  and  C_18
REMARK    9  A    between atoms: C_14  and  C_19
REMARK   10  A    between atoms: C_14  and  C_20
REMARK   11  A    between atoms: C_15  and  C_21
REMARK   12  A    between atoms: C_18  and  C_22
REMARK                            x       y       z     vdW  Elec       q    Type
REMARK                         _______ _______ _______ _____ _____    ______ ____
ROOT
ATOM     10  C   UNL     1       8.741   8.793   4.668  0.00  0.00    +0.000 C 
ATOM     11  C   UNL     1       8.448   9.399   6.062  0.00  0.00    +0.030 C 
ATOM     12  C   UNL     1       8.313   7.319   4.623  0.00  0.00    +0.012 C 
ATOM     13  C   UNL     1       9.037   6.470   5.685  0.00  0.00    +0.023 C 
ATOM     15  C   UNL     1       9.021   7.138   7.046  0.00  0.00    -0.073 C 
ATOM     16  C   UNL     1       8.743   8.446   7.196  0.00  0.00    -0.023 C 
ATOM     21  C   UNL     1       9.289   6.258   8.235  0.00  0.00    +0.039 C 
ENDROOT
BRANCH  10  14
ATOM     14  C   UNL     1       8.038   9.571   3.550  0.00  0.00    -0.013 C 
ATOM     19  C   UNL     1       6.567   9.781   3.892  0.00  0.00    +0.007 C 
ATOM     20  C   UNL     1       8.186   8.840   2.220  0.00  0.00    +0.007 C 
ENDBRANCH  10  14
BRANCH  11  17
ATOM     17  C   UNL     1       9.227  10.702   6.276  0.00  0.00    +0.113 C 
BRANCH  17   6
ATOM      6  N   UNL     1       9.926  10.637   7.569  0.00  0.00    -0.189 NA
ATOM     39  H   UNL     1       9.353  10.433   8.396  0.00  0.00    +0.148 HD
BRANCH   6   1
ATOM      1  S   UNL     1      11.376  11.501   7.804  0.00  0.00    +0.058 S 
ATOM      3  O   UNL     1      11.585  11.706   9.224  0.00  0.00    -0.153 OA
ATOM      4  O   UNL     1      11.411  12.628   6.891  0.00  0.00    -0.153 OA
BRANCH   1  27
ATOM     27  C   UNL     1      12.583  10.341   7.237  0.00  0.00    +0.105 A 
ATOM     29  C   UNL     1      12.288   8.977   7.227  0.00  0.00    +0.032 A 
ATOM     30  C   UNL     1      13.829  10.789   6.802  0.00  0.00    +0.032 A 
ATOM     32  C   UNL     1      13.241   8.061   6.782  0.00  0.00    +0.047 A 
ATOM     33  C   UNL     1      14.783   9.873   6.357  0.00  0.00    +0.047 A 
ATOM     34  C   UNL     1      14.488   8.509   6.347  0.00  0.00    +0.120 A 
BRANCH  34   5
ATOM      5  O   UNL     1      15.419   7.615   5.913  0.00  0.00    -0.495 OA
ATOM     38  C   UNL     1      15.449   7.339   4.513  0.00  0.00    +0.277 C 
ENDBRANCH  34   5
ENDBRANCH   1  27
ENDBRANCH   6   1
ENDBRANCH  17   6
ENDBRANCH  11  17
BRANCH  13  18
ATOM     18  C   UNL     1      10.470   6.144   5.251  0.00  0.00    +0.103 C 
BRANCH  18  22
ATOM      2  O   UNL     1       9.836   3.882   4.906  0.00  0.00    -0.276 OA
ATOM      7  N   UNL     1      11.281   4.810   3.341  0.00  0.00    -0.298 N 
ATOM      8  N   UNL     1      12.710   4.702   0.826  0.00  0.00    -0.312 N 
ATOM      9  N   UNL     1      14.700   4.907  -0.430  0.00  0.00    -0.240 NA
ATOM     22  C   UNL     1      10.491   4.841   4.491  0.00  0.00    +0.216 C 
ATOM     23  C   UNL     1      12.051   5.953   2.844  0.00  0.00    +0.126 C 
ATOM     24  C   UNL     1      11.359   3.583   2.553  0.00  0.00    +0.126 C 
ATOM     25  C   UNL     1      13.199   5.538   1.925  0.00  0.00    +0.125 C 
ATOM     26  C   UNL     1      11.527   3.871   1.062  0.00  0.00    +0.125 C 
ATOM     28  C   UNL     1      13.369   4.667  -0.401  0.00  0.00    +0.121 A 
ATOM     31  C   UNL     1      12.606   4.386  -1.524  0.00  0.00    +0.043 A 
ATOM     35  C   UNL     1      13.250   4.349  -2.755  0.00  0.00    +0.005 A 
ATOM     36  C   UNL     1      15.291   4.861  -1.646  0.00  0.00    +0.113 A 
ATOM     37  C   UNL     1      14.619   4.590  -2.825  0.00  0.00    +0.020 A 
ENDBRANCH  18  22
ENDBRANCH  13  18
TORSDOF 8
ENDMDL
MODEL 8
REMARK VINA RESULT:      -6.6     19.929     22.475
REMARK  Name = 45783894
REMARK  12 active torsions:
REMARK  status: ('A' for Active; 'I' for Inactive)
REMARK    1  A    between atoms: S_1  and  N_6
REMARK    2  A    between atoms: S_1  and  C_27
REMARK    3  A    between atoms: O_5  and  C_34
REMARK    4  A    between atoms: O_5  and  C_38
REMARK    5  A    between atoms: N_6  and  C_17
REMARK    6  A    between atoms: C_10  and  C_14
REMARK    7  A    between atoms: C_11  and  C_17
REMARK    8  A    between atoms: C_13  and  C_18
REMARK    9  A    between atoms: C_14  and  C_19
REMARK   10  A    between atoms: C_14  and  C_20
REMARK   11  A    between atoms: C_15  and  C_21
REMARK   12  A    between atoms: C_18  and  C_22
REMARK                            x       y       z     vdW  Elec       q    Type
REMARK                         _______ _______ _______ _____ _____    ______ ____
ROOT
ATOM     10  C   UNL     1      -7.010 -12.452  16.411  0.00  0.00    +0.000 C 
ATOM     11  C   UNL     1      -7.329 -12.659  17.912  0.00  0.00    +0.030 C 
ATOM     12  C   UNL     1      -5.599 -12.964  16.087  0.00  0.00    +0.012 C 
ATOM     13  C   UNL     1      -4.515 -12.252  16.918  0.00  0.00    +0.023 C 
ATOM     15  C   UNL     1      -4.888 -12.180  18.385  0.00  0.00    -0.073 C 
ATOM     16  C   UNL     1      -6.149 -12.378  18.812  0.00  0.00    -0.023 C 
ATOM     21  C   UNL     1      -3.770 -11.919  19.356  0.00  0.00    +0.039 C 
ENDROOT
BRANCH  10  14
ATOM     14  C   UNL     1      -8.034 -13.150  15.511  0.00  0.00    -0.013 C 
ATOM     19  C   UNL     1      -8.379 -14.528  16.065  0.00  0.00    +0.007 C 
ATOM     20  C   UNL     1      -7.503 -13.257  14.085  0.00  0.00    +0.007 C 
ENDBRANCH  10  14
BRANCH  11  17
ATOM     17  C   UNL     1      -8.520 -11.800  18.350  0.00  0.00    +0.113 C 
BRANCH  17   6
ATOM      6  N   UNL     1      -8.306 -10.416  17.898  0.00  0.00    -0.189 NA
ATOM     39  H   UNL     1      -7.505  -9.915  18.301  0.00  0.00    +0.148 HD
BRANCH   6   1
ATOM      1  S   UNL     1      -9.616  -9.487  17.331  0.00  0.00    +0.058 S 
ATOM      3  O   UNL     1      -9.299  -8.078  17.470  0.00  0.00    -0.153 OA
ATOM      4  O   UNL     1     -10.848 -10.015  17.884  0.00  0.00    -0.153 OA
BRANCH   1  27
ATOM     27  C   UNL     1      -9.615  -9.877  15.606  0.00  0.00    +0.105 A 
ATOM     29  C   UNL     1     -10.679 -10.589  15.053  0.00  0.00    +0.032 A 
ATOM     30  C   UNL     1      -8.550  -9.476  14.802  0.00  0.00    +0.032 A 
ATOM     32  C   UNL     1     -10.678 -10.900  13.693  0.00  0.00    +0.047 A 
ATOM     33  C   UNL     1      -8.547  -9.787  13.442  0.00  0.00    +0.047 A 
ATOM     34  C   UNL     1      -9.612 -10.499  12.888  0.00  0.00    +0.120 A 
BRANCH  34   5
ATOM      5  O   UNL     1      -9.610 -10.802  11.560  0.00  0.00    -0.495 OA
ATOM     38  C   UNL     1      -8.356 -10.739  10.882  0.00  0.00    +0.277 C 
ENDBRANCH  34   5
ENDBRANCH   1  27
ENDBRANCH   6   1
ENDBRANCH  17   6
ENDBRANCH  11  17
BRANCH  13  18
ATOM     18  C   UNL     1      -4.217 -10.857  16.359  0.00  0.00    +0.103 C 
BRANCH  18  22
ATOM      2  O   UNL     1      -1.944 -11.125  15.727  0.00  0.00    -0.276 OA
ATOM      7  N   UNL     1      -3.470 -10.784  14.009  0.00  0.00    -0.298 N 
ATOM      8  N   UNL     1      -4.151 -10.695  11.197  0.00  0.00    -0.312 N 
ATOM      9  N   UNL     1      -5.107  -9.598   9.337  0.00  0.00    -0.240 NA
ATOM     22  C   UNL     1      -3.102 -10.938  15.346  0.00  0.00    +0.216 C 
ATOM     23  C   UNL     1      -4.848 -10.571  13.557  0.00  0.00    +0.126 C 
ATOM     24  C   UNL     1      -2.448 -10.844  12.968  0.00  0.00    +0.126 C 
ATOM     25  C   UNL     1      -4.923  -9.924  12.175  0.00  0.00    +0.125 C 
ATOM     26  C   UNL     1      -2.986 -11.447  11.672  0.00  0.00    +0.125 C 
ATOM     28  C   UNL     1      -4.489 -10.688   9.845  0.00  0.00    +0.121 A 
ATOM     31  C   UNL     1      -4.166 -11.814   9.104  0.00  0.00    +0.043 A 
ATOM     35  C   UNL     1      -4.497 -11.821   7.755  0.00  0.00    +0.005 A 
ATOM     36  C   UNL     1      -5.413  -9.642   8.020  0.00  0.00    +0.113 A 
ATOM     37  C   UNL     1      -5.133 -10.718   7.195  0.00  0.00    +0.020 A 
ENDBRANCH  18  22
ENDBRANCH  13  18
TORSDOF 8
ENDMDL
MODEL 9
REMARK VINA RESULT:      -6.5     19.979     22.286
REMARK  Name = 45783894
REMARK  12 active torsions:
REMARK  status: ('A' for Active; 'I' for Inactive)
REMARK    1  A    between atoms: S_1  and  N_6
REMARK    2  A    between atoms: S_1  and  C_27
REMARK    3  A    between atoms: O_5  and  C_34
REMARK    4  A    between atoms: O_5  and  C_38
REMARK    5  A    between atoms: N_6  and  C_17
REMARK    6  A    between atoms: C_10  and  C_14
REMARK    7  A    between atoms: C_11  and  C_17
REMARK    8  A    between atoms: C_13  and  C_18
REMARK    9  A    between atoms: C_14  and  C_19
REMARK   10  A    between atoms: C_14  and  C_20
REMARK   11  A    between atoms: C_15  and  C_21
REMARK   12  A    between atoms: C_18  and  C_22
REMARK                            x       y       z     vdW  Elec       q    Type
REMARK                         _______ _______ _______ _____ _____    ______ ____
ROOT
ATOM     10  C   UNL     1      -5.863 -13.519  14.913  0.00  0.00    +0.000 C 
ATOM     11  C   UNL     1      -5.448 -13.467  16.404  0.00  0.00    +0.030 C 
ATOM     12  C   UNL     1      -4.637 -13.329  14.008  0.00  0.00    +0.012 C 
ATOM     13  C   UNL     1      -3.923 -11.989  14.269  0.00  0.00    +0.023 C 
ATOM     15  C   UNL     1      -3.716 -11.741  15.750  0.00  0.00    -0.073 C 
ATOM     16  C   UNL     1      -4.398 -12.420  16.690  0.00  0.00    -0.023 C 
ATOM     21  C   UNL     1      -2.675 -10.723  16.127  0.00  0.00    +0.039 C 
ENDROOT
BRANCH  10  14
ATOM     14  C   UNL     1      -6.566 -14.835  14.564  0.00  0.00    -0.013 C 
ATOM     19  C   UNL     1      -5.689 -16.023  14.942  0.00  0.00    +0.007 C 
ATOM     20  C   UNL     1      -6.918 -14.873  13.080  0.00  0.00    +0.007 C 
ENDBRANCH  10  14
BRANCH  11  17
ATOM     17  C   UNL     1      -6.663 -13.232  17.310  0.00  0.00    +0.113 C 
BRANCH  17   6
ATOM      6  N   UNL     1      -6.196 -12.961  18.678  0.00  0.00    -0.189 NA
ATOM     39  H   UNL     1      -5.618 -13.685  19.123  0.00  0.00    +0.148 HD
BRANCH   6   1
ATOM      1  S   UNL     1      -7.080 -11.919  19.695  0.00  0.00    +0.058 S 
ATOM      3  O   UNL     1      -6.159 -11.159  20.518  0.00  0.00    -0.153 OA
ATOM      4  O   UNL     1      -8.165 -12.661  20.309  0.00  0.00    -0.153 OA
BRANCH   1  27
ATOM     27  C   UNL     1      -7.810 -10.810  18.528  0.00  0.00    +0.105 A 
ATOM     29  C   UNL     1      -9.198 -10.730  18.416  0.00  0.00    +0.032 A 
ATOM     30  C   UNL     1      -6.997 -10.018  17.717  0.00  0.00    +0.032 A 
ATOM     32  C   UNL     1      -9.774  -9.856  17.493  0.00  0.00    +0.047 A 
ATOM     33  C   UNL     1      -7.573  -9.146  16.793  0.00  0.00    +0.047 A 
ATOM     34  C   UNL     1      -8.961  -9.065  16.682  0.00  0.00    +0.120 A 
BRANCH  34   5
ATOM      5  O   UNL     1      -9.523  -8.212  15.781  0.00  0.00    -0.495 OA
ATOM     38  C   UNL     1     -10.179  -8.797  14.657  0.00  0.00    +0.277 C 
ENDBRANCH  34   5
ENDBRANCH   1  27
ENDBRANCH   6   1
ENDBRANCH  17   6
ENDBRANCH  11  17
BRANCH  13  18
ATOM     18  C   UNL     1      -4.677 -10.824  13.617  0.00  0.00    +0.103 C 
BRANCH  18  22
ATOM      2  O   UNL     1      -2.644 -10.197  12.563  0.00  0.00    -0.276 OA
ATOM      7  N   UNL     1      -4.596  -9.866  11.346  0.00  0.00    -0.298 N 
ATOM      8  N   UNL     1      -5.975  -9.197   8.891  0.00  0.00    -0.312 N 
ATOM      9  N   UNL     1      -7.605  -7.965   7.707  0.00  0.00    -0.240 NA
ATOM     22  C   UNL     1      -3.871 -10.272  12.467  0.00  0.00    +0.216 C 
ATOM     23  C   UNL     1      -6.053  -9.964  11.231  0.00  0.00    +0.126 C 
ATOM     24  C   UNL     1      -3.890  -9.315  10.193  0.00  0.00    +0.126 C 
ATOM     25  C   UNL     1      -6.630  -9.008  10.187  0.00  0.00    +0.125 C 
ATOM     26  C   UNL     1      -4.585  -9.660   8.878  0.00  0.00    +0.125 C 
ATOM     28  C   UNL     1      -6.640  -8.911   7.700  0.00  0.00    +0.121 A 
ATOM     31  C   UNL     1      -6.262  -9.627   6.575  0.00  0.00    +0.043 A 
ATOM     35  C   UNL     1      -6.917  -9.354   5.380  0.00  0.00    +0.005 A 
ATOM     36  C   UNL     1      -8.219  -7.726   6.525  0.00  0.00    +0.113 A 
ATOM     37  C   UNL     1      -7.916  -8.386   5.347  0.00  0.00    +0.020 A 
ENDBRANCH  18  22
ENDBRANCH  13  18
TORSDOF 8
ENDMDL
MODEL 10
REMARK VINA RESULT:      -6.5     19.120     21.534
REMARK  Name = 45783894
REMARK  12 active torsions:
REMARK  status: ('A' for Active; 'I' for Inactive)
REMARK    1  A    between atoms: S_1  and  N_6
REMARK    2  A    between atoms: S_1  and  C_27
REMARK    3  A    between atoms: O_5  and  C_34
REMARK    4  A    between atoms: O_5  and  C_38
REMARK    5  A    between atoms: N_6  and  C_17
REMARK    6  A    between atoms: C_10  and  C_14
REMARK    7  A    between atoms: C_11  and  C_17
REMARK    8  A    between atoms: C_13  and  C_18
REMARK    9  A    between atoms: C_14  and  C_19
REMARK   10  A    between atoms: C_14  and  C_20
REMARK   11  A    between atoms: C_15  and  C_21
REMARK   12  A    between atoms: C_18  and  C_22
REMARK                            x       y       z     vdW  Elec       q    Type
REMARK                         _______ _______ _______ _____ _____    ______ ____
ROOT
ATOM     10  C   UNL     1      -7.084 -11.794  17.051  0.00  0.00    +0.000 C 
ATOM     11  C   UNL     1      -7.165 -12.131  18.560  0.00  0.00    +0.030 C 
ATOM     12  C   UNL     1      -5.873 -12.487  16.411  0.00  0.00    +0.012 C 
ATOM     13  C   UNL     1      -4.546 -12.072  17.074  0.00  0.00    +0.023 C 
ATOM     15  C   UNL     1      -4.633 -12.123  18.587  0.00  0.00    -0.073 C 
ATOM     16  C   UNL     1      -5.813 -12.162  19.233  0.00  0.00    -0.023 C 
ATOM     21  C   UNL     1      -3.332 -12.172  19.339  0.00  0.00    +0.039 C 
ENDROOT
BRANCH  10  14
ATOM     14  C   UNL     1      -8.363 -12.197  16.309  0.00  0.00    -0.013 C 
ATOM     19  C   UNL     1      -8.615 -13.693  16.457  0.00  0.00    +0.007 C 
ATOM     20  C   UNL     1      -8.270 -11.806  14.838  0.00  0.00    +0.007 C 
ENDBRANCH  10  14
BRANCH  11  17
ATOM     17  C   UNL     1      -8.080 -11.148  19.299  0.00  0.00    +0.113 C 
BRANCH  17   6
ATOM      6  N   UNL     1      -9.266 -11.870  19.786  0.00  0.00    -0.189 NA
ATOM     39  H   UNL     1      -9.285 -12.886  19.637  0.00  0.00    +0.148 HD
BRANCH   6   1
ATOM      1  S   UNL     1     -10.760 -11.064  19.933  0.00  0.00    +0.058 S 
ATOM      3  O   UNL     1     -10.603  -9.922  20.813  0.00  0.00    -0.153 OA
ATOM      4  O   UNL     1     -11.804 -12.039  20.182  0.00  0.00    -0.153 OA
BRANCH   1  27
ATOM     27  C   UNL     1     -11.004 -10.456  18.291  0.00  0.00    +0.105 A 
ATOM     29  C   UNL     1     -10.572  -9.174  17.951  0.00  0.00    +0.032 A 
ATOM     30  C   UNL     1     -11.630 -11.257  17.337  0.00  0.00    +0.032 A 
ATOM     32  C   UNL     1     -10.766  -8.693  16.656  0.00  0.00    +0.047 A 
ATOM     33  C   UNL     1     -11.825 -10.776  16.042  0.00  0.00    +0.047 A 
ATOM     34  C   UNL     1     -11.392  -9.494  15.702  0.00  0.00    +0.120 A 
BRANCH  34   5
ATOM      5  O   UNL     1     -11.582  -9.025  14.438  0.00  0.00    -0.495 OA
ATOM     38  C   UNL     1     -11.853  -7.631  14.297  0.00  0.00    +0.277 C 
ENDBRANCH  34   5
ENDBRANCH   1  27
ENDBRANCH   6   1
ENDBRANCH  17   6
ENDBRANCH  11  17
BRANCH  13  18
ATOM     18  C   UNL     1      -4.099 -10.686  16.596  0.00  0.00    +0.103 C 
BRANCH  18  22
ATOM      2  O   UNL     1      -1.833 -11.022  15.971  0.00  0.00    -0.276 OA
ATOM      7  N   UNL     1      -3.357 -10.715  14.244  0.00  0.00    -0.298 N 
ATOM      8  N   UNL     1      -4.042 -10.718  11.432  0.00  0.00    -0.312 N 
ATOM      9  N   UNL     1      -4.981  -9.673   9.533  0.00  0.00    -0.240 NA
ATOM     22  C   UNL     1      -2.988 -10.827  15.585  0.00  0.00    +0.216 C 
ATOM     23  C   UNL     1      -4.731 -10.493  13.787  0.00  0.00    +0.126 C 
ATOM     24  C   UNL     1      -2.338 -10.834  13.205  0.00  0.00    +0.126 C 
ATOM     25  C   UNL     1      -4.797  -9.897  12.381  0.00  0.00    +0.125 C 
ATOM     26  C   UNL     1      -2.891 -11.474  11.933  0.00  0.00    +0.125 C 
ATOM     28  C   UNL     1      -4.384 -10.755  10.081  0.00  0.00    +0.121 A 
ATOM     31  C   UNL     1      -4.083 -11.913   9.383  0.00  0.00    +0.043 A 
ATOM     35  C   UNL     1      -4.418 -11.965   8.035  0.00  0.00    +0.005 A 
ATOM     36  C   UNL     1      -5.292  -9.761   8.220  0.00  0.00    +0.113 A 
ATOM     37  C   UNL     1      -5.034 -10.871   7.435  0.00  0.00    +0.020 A 
ENDBRANCH  18  22
ENDBRANCH  13  18
TORSDOF 8
ENDMDL
