REMARK  Name = 11879575
REMARK  10 active torsions:
REMARK  status: ('A' for Active; 'I' for Inactive)
REMARK    1  A    between atoms: O_3  and  C_19
REMARK    2  A    between atoms: O_3  and  C_22
REMARK    3  A    between atoms: N_6  and  C_15
REMARK    4  A    between atoms: N_7  and  C_16
REMARK    5  A    between atoms: N_11  and  C_21
REMARK    6  A    between atoms: N_12  and  C_27
REMARK    7  A    between atoms: N_12  and  C_34
REMARK    8  A    between atoms: N_12  and  C_35
REMARK    9  A    between atoms: C_32  and  C_33
REMARK   10  A    between atoms: C_33  and  C_36
REMARK                            x       y       z     vdW  Elec       q    Type
REMARK                         _______ _______ _______ _____ _____    ______ ____
ROOT
ATOM      1  O   UNL     1      -0.047  -3.197   0.518  0.00  0.00    -0.370 OA
ATOM      2  O   UNL     1       0.436  -1.594  -2.145  0.00  0.00    -0.370 OA
ATOM     13  C   UNL     1       0.568  -1.272  -0.748  0.00  0.00    +0.176 C 
ATOM     14  C   UNL     1      -0.565  -1.969  -0.019  0.00  0.00    +0.172 C 
ATOM     15  C   UNL     1       1.830  -1.902  -0.190  0.00  0.00    +0.171 C 
ATOM     16  C   UNL     1      -1.583  -2.258  -1.100  0.00  0.00    +0.131 C 
ATOM     17  C   UNL     1       1.359  -3.284   0.248  0.00  0.00    +0.190 C 
ATOM     18  C   UNL     1      -0.709  -2.438  -2.328  0.00  0.00    +0.185 C 
ENDROOT
BRANCH  16   7
ATOM      4  O   UNL     1      -4.158  -1.968   0.120  0.00  0.00    -0.252 OA
ATOM      7  N   UNL     1      -2.496  -1.154  -1.266  0.00  0.00    -0.292 N 
ATOM     11  N   UNL     1      -4.404   0.092  -0.978  0.00  0.00    -0.269 N 
ATOM     20  C   UNL     1      -3.742  -1.088  -0.630  0.00  0.00    +0.304 C 
ATOM     37  H   UNL     1      -2.195  -0.356  -1.817  0.00  0.00    +0.151 HD
ATOM     38  H   UNL     1      -3.918   0.717  -1.616  0.00  0.00    +0.156 HD
BRANCH  11  21
ATOM     21  C   UNL     1      -5.679   0.531  -0.550  0.00  0.00    +0.035 A 
ATOM     25  C   UNL     1      -6.187   1.748  -1.004  0.00  0.00    +0.024 A 
ATOM     26  C   UNL     1      -6.428  -0.253   0.327  0.00  0.00    +0.024 A 
ATOM     29  C   UNL     1      -7.443   2.181  -0.582  0.00  0.00    +0.013 A 
ATOM     30  C   UNL     1      -7.685   0.180   0.750  0.00  0.00    +0.013 A 
ATOM     32  C   UNL     1      -8.193   1.397   0.295  0.00  0.00    +0.017 A 
BRANCH  32  33
ATOM      5  O   UNL     1     -10.407   1.040   1.026  0.00  0.00    -0.292 OA
ATOM     33  C   UNL     1      -9.503   1.849   0.736  0.00  0.00    +0.160 C 
ATOM     36  C   UNL     1      -9.804   3.339   0.851  0.00  0.00    +0.091 C 
ENDBRANCH  32  33
ENDBRANCH  11  21
ENDBRANCH  16   7
BRANCH  15   6
ATOM      6  N   UNL     1       2.443  -1.091   0.865  0.00  0.00    -0.187 N 
ATOM      8  N   UNL     1       1.765  -0.770   1.976  0.00  0.00    -0.041 NA
ATOM      9  N   UNL     1       3.818   0.096   2.050  0.00  0.00    -0.071 NA
ATOM     10  N   UNL     1       2.611  -0.045   2.697  0.00  0.00    -0.020 NA
ATOM     19  C   UNL     1       3.692  -0.560   0.919  0.00  0.00    +0.342 A 
BRANCH  19   3
ATOM      3  O   UNL     1       4.608  -0.693  -0.021  0.00  0.00    -0.423 OA
BRANCH   3  22
ATOM     22  C   UNL     1       5.872  -0.128   0.081  0.00  0.00    +0.134 A 
ATOM     23  C   UNL     1       6.101   1.160  -0.405  0.00  0.00    +0.069 A 
ATOM     24  C   UNL     1       6.913  -0.847   0.668  0.00  0.00    +0.046 A 
ATOM     27  C   UNL     1       7.371   1.728  -0.303  0.00  0.00    +0.033 A 
ATOM     28  C   UNL     1       8.183  -0.278   0.770  0.00  0.00    +0.005 A 
ATOM     31  C   UNL     1       8.412   1.009   0.285  0.00  0.00    +0.023 A 
BRANCH  27  12
ATOM     12  N   UNL     1       7.603   3.029  -0.796  0.00  0.00    -0.336 N 
ATOM     34  C   UNL     1       6.531   3.779  -1.421  0.00  0.00    +0.129 C 
ATOM     35  C   UNL     1       8.919   3.628  -0.696  0.00  0.00    +0.129 C 
ENDBRANCH  27  12
ENDBRANCH   3  22
ENDBRANCH  19   3
ENDBRANCH  15   6
TORSDOF 7
