MODEL 1
REMARK VINA RESULT:      -7.3      0.000      0.000
REMARK  Name = 7142911
REMARK  7 active torsions:
REMARK  status: ('A' for Active; 'I' for Inactive)
REMARK    1  A    between atoms: O_4  and  C_27
REMARK    2  A    between atoms: O_4  and  C_35
REMARK    3  A    between atoms: O_5  and  C_28
REMARK    4  A    between atoms: O_5  and  C_36
REMARK    5  A    between atoms: N_8  and  C_22
REMARK    6  A    between atoms: N_9  and  C_20
REMARK    7  A    between atoms: C_23  and  C_26
REMARK                            x       y       z     vdW  Elec       q    Type
REMARK                         _______ _______ _______ _____ _____    ______ ____
ROOT
ATOM      1  O   UNL     1      13.958   6.377   7.294  0.00  0.00    -0.266 OA
ATOM      2  O   UNL     1      10.160   3.969   4.927  0.00  0.00    -0.252 OA
ATOM      6  N   UNL     1       9.323   6.030   5.555  0.00  0.00    -0.284 N 
ATOM      7  N   UNL     1      11.877   7.340   6.844  0.00  0.00    -0.310 N 
ATOM      8  N   UNL     1      10.100   5.677   3.357  0.00  0.00    -0.269 N 
ATOM     10  C   UNL     1       9.713   6.538   7.956  0.00  0.00    +0.027 C 
ATOM     11  C   UNL     1       9.640   8.368   6.307  0.00  0.00    +0.054 C 
ATOM     12  C   UNL     1       9.236   7.970   7.727  0.00  0.00    +0.018 C 
ATOM     13  C   UNL     1       9.075   5.582   6.928  0.00  0.00    +0.114 C 
ATOM     14  C   UNL     1      11.245   6.519   7.888  0.00  0.00    +0.130 C 
ATOM     15  C   UNL     1       8.944   7.431   5.302  0.00  0.00    +0.119 C 
ATOM     16  C   UNL     1      11.145   8.292   6.126  0.00  0.00    +0.027 A 
ATOM     17  C   UNL     1      11.764   9.104   5.254  0.00  0.00    +0.024 A 
ATOM     18  C   UNL     1      13.268   7.186   6.674  0.00  0.00    +0.273 A 
ATOM     19  C   UNL     1       9.875   5.129   4.620  0.00  0.00    +0.306 C 
ATOM     20  C   UNL     1      13.915   8.094   5.673  0.00  0.00    +0.099 A 
ATOM     21  C   UNL     1      13.177   9.000   5.024  0.00  0.00    +0.030 A 
ATOM     37  H   UNL     1       9.498   6.430   3.045  0.00  0.00    +0.156 HD
ENDROOT
BRANCH   8  22
ATOM     22  C   UNL     1      11.104   5.310   2.428  0.00  0.00    +0.042 A 
ATOM     24  C   UNL     1      10.762   4.609   1.272  0.00  0.00    +0.069 A 
ATOM     25  C   UNL     1      12.435   5.651   2.668  0.00  0.00    +0.069 A 
ATOM     27  C   UNL     1      13.424   5.289   1.753  0.00  0.00    +0.125 A 
ATOM     28  C   UNL     1      11.750   4.248   0.356  0.00  0.00    +0.125 A 
ATOM     29  C   UNL     1      13.082   4.588   0.597  0.00  0.00    +0.091 A 
BRANCH  27   4
ATOM      4  O   UNL     1      14.723   5.621   1.988  0.00  0.00    -0.495 OA
ATOM     35  C   UNL     1      15.042   7.010   2.031  0.00  0.00    +0.277 C 
ENDBRANCH  27   4
BRANCH  28   5
ATOM      5  O   UNL     1      11.416   3.564  -0.772  0.00  0.00    -0.495 OA
ATOM     36  C   UNL     1      12.468   2.878  -1.451  0.00  0.00    +0.277 C 
ENDBRANCH  28   5
ENDBRANCH   8  22
BRANCH  20   9
ATOM      3  O   UNL     1      15.932   9.933   6.507  0.00  0.00    -0.270 OA
ATOM      9  N   UNL     1      15.257   7.965   5.467  0.00  0.00    -0.277 N 
ATOM     23  C   UNL     1      16.190   8.898   5.899  0.00  0.00    +0.248 C 
ATOM     38  H   UNL     1      15.530   7.218   4.838  0.00  0.00    +0.155 HD
BRANCH  23  26
ATOM     26  C   UNL     1      17.611   8.574   5.601  0.00  0.00    +0.037 A 
ATOM     30  C   UNL     1      17.963   8.079   4.346  0.00  0.00    +0.013 A 
ATOM     31  C   UNL     1      18.589   8.768   6.575  0.00  0.00    +0.013 A 
ATOM     32  C   UNL     1      19.296   7.775   4.066  0.00  0.00    +0.001 A 
ATOM     33  C   UNL     1      19.922   8.465   6.295  0.00  0.00    +0.001 A 
ATOM     34  C   UNL     1      20.275   7.969   5.040  0.00  0.00    +0.000 A 
ENDBRANCH  23  26
ENDBRANCH  20   9
TORSDOF 5
ENDMDL
MODEL 2
REMARK VINA RESULT:      -7.3      0.100      1.974
REMARK  Name = 7142911
REMARK  7 active torsions:
REMARK  status: ('A' for Active; 'I' for Inactive)
REMARK    1  A    between atoms: O_4  and  C_27
REMARK    2  A    between atoms: O_4  and  C_35
REMARK    3  A    between atoms: O_5  and  C_28
REMARK    4  A    between atoms: O_5  and  C_36
REMARK    5  A    between atoms: N_8  and  C_22
REMARK    6  A    between atoms: N_9  and  C_20
REMARK    7  A    between atoms: C_23  and  C_26
REMARK                            x       y       z     vdW  Elec       q    Type
REMARK                         _______ _______ _______ _____ _____    ______ ____
ROOT
ATOM      1  O   UNL     1      13.977   6.276   7.339  0.00  0.00    -0.266 OA
ATOM      2  O   UNL     1      10.168   3.946   4.913  0.00  0.00    -0.252 OA
ATOM      6  N   UNL     1       9.340   5.994   5.593  0.00  0.00    -0.284 N 
ATOM      7  N   UNL     1      11.900   7.260   6.914  0.00  0.00    -0.310 N 
ATOM      8  N   UNL     1      10.115   5.693   3.386  0.00  0.00    -0.269 N 
ATOM     10  C   UNL     1       9.732   6.440   8.006  0.00  0.00    +0.027 C 
ATOM     11  C   UNL     1       9.668   8.312   6.403  0.00  0.00    +0.054 C 
ATOM     12  C   UNL     1       9.262   7.880   7.813  0.00  0.00    +0.018 C 
ATOM     13  C   UNL     1       9.090   5.513   6.954  0.00  0.00    +0.114 C 
ATOM     14  C   UNL     1      11.265   6.416   7.937  0.00  0.00    +0.130 C 
ATOM     15  C   UNL     1       8.967   7.403   5.375  0.00  0.00    +0.119 C 
ATOM     16  C   UNL     1      11.172   8.233   6.220  0.00  0.00    +0.027 A 
ATOM     17  C   UNL     1      11.795   9.064   5.368  0.00  0.00    +0.024 A 
ATOM     18  C   UNL     1      13.290   7.104   6.739  0.00  0.00    +0.273 A 
ATOM     19  C   UNL     1       9.888   5.114   4.635  0.00  0.00    +0.306 C 
ATOM     20  C   UNL     1      13.941   8.033   5.762  0.00  0.00    +0.099 A 
ATOM     21  C   UNL     1      13.207   8.958   5.136  0.00  0.00    +0.030 A 
ATOM     37  H   UNL     1       9.516   6.456   3.094  0.00  0.00    +0.156 HD
ENDROOT
BRANCH   8  22
ATOM     22  C   UNL     1      11.117   5.344   2.449  0.00  0.00    +0.042 A 
ATOM     24  C   UNL     1      12.442   5.720   2.672  0.00  0.00    +0.069 A 
ATOM     25  C   UNL     1      10.781   4.624   1.303  0.00  0.00    +0.069 A 
ATOM     27  C   UNL     1      11.769   4.280   0.380  0.00  0.00    +0.125 A 
ATOM     28  C   UNL     1      13.430   5.377   1.750  0.00  0.00    +0.125 A 
ATOM     29  C   UNL     1      13.093   4.656   0.603  0.00  0.00    +0.091 A 
BRANCH  27   4
ATOM      4  O   UNL     1      11.440   3.578  -0.739  0.00  0.00    -0.495 OA
ATOM     35  C   UNL     1      12.512   3.159  -1.581  0.00  0.00    +0.277 C 
ENDBRANCH  27   4
BRANCH  28   5
ATOM      5  O   UNL     1      14.723   5.743   1.968  0.00  0.00    -0.495 OA
ATOM     36  C   UNL     1      14.993   7.141   2.068  0.00  0.00    +0.277 C 
ENDBRANCH  28   5
ENDBRANCH   8  22
BRANCH  20   9
ATOM      3  O   UNL     1      15.940   9.971   6.389  0.00  0.00    -0.270 OA
ATOM      9  N   UNL     1      15.283   7.903   5.551  0.00  0.00    -0.277 N 
ATOM     23  C   UNL     1      16.207   8.886   5.880  0.00  0.00    +0.248 C 
ATOM     38  H   UNL     1      15.559   7.103   4.994  0.00  0.00    +0.155 HD
BRANCH  23  26
ATOM     26  C   UNL     1      17.629   8.554   5.597  0.00  0.00    +0.037 A 
ATOM     30  C   UNL     1      17.995   8.078   4.338  0.00  0.00    +0.013 A 
ATOM     31  C   UNL     1      18.595   8.721   6.589  0.00  0.00    +0.013 A 
ATOM     32  C   UNL     1      19.329   7.767   4.073  0.00  0.00    +0.001 A 
ATOM     33  C   UNL     1      19.928   8.411   6.322  0.00  0.00    +0.001 A 
ATOM     34  C   UNL     1      20.295   7.934   5.064  0.00  0.00    +0.000 A 
ENDBRANCH  23  26
ENDBRANCH  20   9
TORSDOF 5
ENDMDL
MODEL 3
REMARK VINA RESULT:      -6.9     17.632     21.787
REMARK  Name = 7142911
REMARK  7 active torsions:
REMARK  status: ('A' for Active; 'I' for Inactive)
REMARK    1  A    between atoms: O_4  and  C_27
REMARK    2  A    between atoms: O_4  and  C_35
REMARK    3  A    between atoms: O_5  and  C_28
REMARK    4  A    between atoms: O_5  and  C_36
REMARK    5  A    between atoms: N_8  and  C_22
REMARK    6  A    between atoms: N_9  and  C_20
REMARK    7  A    between atoms: C_23  and  C_26
REMARK                            x       y       z     vdW  Elec       q    Type
REMARK                         _______ _______ _______ _____ _____    ______ ____
ROOT
ATOM      1  O   UNL     1      21.036   3.247  20.762  0.00  0.00    -0.266 OA
ATOM      2  O   UNL     1      22.993   2.910  25.439  0.00  0.00    -0.252 OA
ATOM      6  N   UNL     1      24.756   3.436  24.041  0.00  0.00    -0.284 N 
ATOM      7  N   UNL     1      23.263   3.721  21.285  0.00  0.00    -0.310 N 
ATOM      8  N   UNL     1      23.671   5.124  25.279  0.00  0.00    -0.269 N 
ATOM     10  C   UNL     1      24.912   1.925  22.074  0.00  0.00    +0.027 C 
ATOM     11  C   UNL     1      25.648   4.270  21.886  0.00  0.00    +0.054 C 
ATOM     12  C   UNL     1      25.972   2.836  21.461  0.00  0.00    +0.018 C 
ATOM     13  C   UNL     1      24.914   2.045  23.611  0.00  0.00    +0.114 C 
ATOM     14  C   UNL     1      23.550   2.291  21.469  0.00  0.00    +0.130 C 
ATOM     15  C   UNL     1      25.714   4.369  23.422  0.00  0.00    +0.119 C 
ATOM     16  C   UNL     1      24.272   4.684  21.401  0.00  0.00    +0.027 A 
ATOM     17  C   UNL     1      24.012   5.972  21.123  0.00  0.00    +0.024 A 
ATOM     18  C   UNL     1      21.952   4.059  20.895  0.00  0.00    +0.273 A 
ATOM     19  C   UNL     1      23.751   3.765  24.974  0.00  0.00    +0.306 C 
ATOM     20  C   UNL     1      21.698   5.509  20.619  0.00  0.00    +0.099 A 
ATOM     21  C   UNL     1      22.698   6.390  20.726  0.00  0.00    +0.030 A 
ATOM     37  H   UNL     1      24.517   5.679  25.225  0.00  0.00    +0.156 HD
ENDROOT
BRANCH   8  22
ATOM     22  C   UNL     1      22.517   5.852  25.658  0.00  0.00    +0.042 A 
ATOM     24  C   UNL     1      21.813   5.494  26.807  0.00  0.00    +0.069 A 
ATOM     25  C   UNL     1      22.086   6.929  24.884  0.00  0.00    +0.069 A 
ATOM     27  C   UNL     1      20.950   7.647  25.257  0.00  0.00    +0.125 A 
ATOM     28  C   UNL     1      20.677   6.211  27.182  0.00  0.00    +0.125 A 
ATOM     29  C   UNL     1      20.246   7.288  26.406  0.00  0.00    +0.091 A 
BRANCH  27   4
ATOM      4  O   UNL     1      20.528   8.697  24.500  0.00  0.00    -0.495 OA
ATOM     35  C   UNL     1      21.349   9.071  23.396  0.00  0.00    +0.277 C 
ENDBRANCH  27   4
BRANCH  28   5
ATOM      5  O   UNL     1      19.989   5.862  28.303  0.00  0.00    -0.495 OA
ATOM     36  C   UNL     1      19.870   6.850  29.326  0.00  0.00    +0.277 C 
ENDBRANCH  28   5
ENDBRANCH   8  22
BRANCH  20   9
ATOM      3  O   UNL     1      19.610   6.338  22.380  0.00  0.00    -0.270 OA
ATOM      9  N   UNL     1      20.436   5.880  20.255  0.00  0.00    -0.277 N 
ATOM     23  C   UNL     1      19.463   6.275  21.162  0.00  0.00    +0.248 C 
ATOM     38  H   UNL     1      20.196   5.703  19.286  0.00  0.00    +0.155 HD
BRANCH  23  26
ATOM     26  C   UNL     1      18.154   6.664  20.574  0.00  0.00    +0.037 A 
ATOM     30  C   UNL     1      17.473   7.778  21.066  0.00  0.00    +0.013 A 
ATOM     31  C   UNL     1      17.608   5.917  19.531  0.00  0.00    +0.013 A 
ATOM     32  C   UNL     1      16.245   8.143  20.514  0.00  0.00    +0.001 A 
ATOM     33  C   UNL     1      16.381   6.283  18.979  0.00  0.00    +0.001 A 
ATOM     34  C   UNL     1      15.699   7.396  19.470  0.00  0.00    +0.000 A 
ENDBRANCH  23  26
ENDBRANCH  20   9
TORSDOF 5
ENDMDL
MODEL 4
REMARK VINA RESULT:      -6.8     17.547     21.690
REMARK  Name = 7142911
REMARK  7 active torsions:
REMARK  status: ('A' for Active; 'I' for Inactive)
REMARK    1  A    between atoms: O_4  and  C_27
REMARK    2  A    between atoms: O_4  and  C_35
REMARK    3  A    between atoms: O_5  and  C_28
REMARK    4  A    between atoms: O_5  and  C_36
REMARK    5  A    between atoms: N_8  and  C_22
REMARK    6  A    between atoms: N_9  and  C_20
REMARK    7  A    between atoms: C_23  and  C_26
REMARK                            x       y       z     vdW  Elec       q    Type
REMARK                         _______ _______ _______ _____ _____    ______ ____
ROOT
ATOM      1  O   UNL     1      20.960   3.214  20.813  0.00  0.00    -0.266 OA
ATOM      2  O   UNL     1      22.948   3.127  25.489  0.00  0.00    -0.252 OA
ATOM      6  N   UNL     1      24.702   3.578  24.053  0.00  0.00    -0.284 N 
ATOM      7  N   UNL     1      23.190   3.716  21.296  0.00  0.00    -0.310 N 
ATOM      8  N   UNL     1      23.624   5.329  25.207  0.00  0.00    -0.269 N 
ATOM     10  C   UNL     1      24.845   1.964  22.168  0.00  0.00    +0.027 C 
ATOM     11  C   UNL     1      25.579   4.296  21.850  0.00  0.00    +0.054 C 
ATOM     12  C   UNL     1      25.901   2.842  21.501  0.00  0.00    +0.018 C 
ATOM     13  C   UNL     1      24.858   2.166  23.697  0.00  0.00    +0.114 C 
ATOM     14  C   UNL     1      23.479   2.297  21.554  0.00  0.00    +0.130 C 
ATOM     15  C   UNL     1      25.655   4.477  23.379  0.00  0.00    +0.119 C 
ATOM     16  C   UNL     1      24.199   4.684  21.353  0.00  0.00    +0.027 A 
ATOM     17  C   UNL     1      23.937   5.955  21.009  0.00  0.00    +0.024 A 
ATOM     18  C   UNL     1      21.876   4.032  20.897  0.00  0.00    +0.273 A 
ATOM     19  C   UNL     1      23.702   3.956  24.974  0.00  0.00    +0.306 C 
ATOM     20  C   UNL     1      21.619   5.465  20.546  0.00  0.00    +0.099 A 
ATOM     21  C   UNL     1      22.619   6.351  20.599  0.00  0.00    +0.030 A 
ATOM     37  H   UNL     1      24.469   5.881  25.118  0.00  0.00    +0.156 HD
ENDROOT
BRANCH   8  22
ATOM     22  C   UNL     1      22.472   6.077  25.554  0.00  0.00    +0.042 A 
ATOM     24  C   UNL     1      22.008   7.078  24.701  0.00  0.00    +0.069 A 
ATOM     25  C   UNL     1      21.801   5.811  26.747  0.00  0.00    +0.069 A 
ATOM     27  C   UNL     1      20.666   6.547  27.089  0.00  0.00    +0.125 A 
ATOM     28  C   UNL     1      20.873   7.814  25.041  0.00  0.00    +0.125 A 
ATOM     29  C   UNL     1      20.202   7.548  26.235  0.00  0.00    +0.091 A 
BRANCH  27   4
ATOM      4  O   UNL     1      20.013   6.289  28.254  0.00  0.00    -0.495 OA
ATOM     35  C   UNL     1      20.687   5.473  29.210  0.00  0.00    +0.277 C 
ENDBRANCH  27   4
BRANCH  28   5
ATOM      5  O   UNL     1      20.419   8.791  24.209  0.00  0.00    -0.495 OA
ATOM     36  C   UNL     1      21.296   9.212  23.164  0.00  0.00    +0.277 C 
ENDBRANCH  28   5
ENDBRANCH   8  22
BRANCH  20   9
ATOM      3  O   UNL     1      19.535   6.362  22.277  0.00  0.00    -0.270 OA
ATOM      9  N   UNL     1      20.355   5.816  20.171  0.00  0.00    -0.277 N 
ATOM     23  C   UNL     1      19.384   6.246  21.064  0.00  0.00    +0.248 C 
ATOM     38  H   UNL     1      20.112   5.597  19.211  0.00  0.00    +0.155 HD
BRANCH  23  26
ATOM     26  C   UNL     1      18.071   6.605  20.465  0.00  0.00    +0.037 A 
ATOM     30  C   UNL     1      17.322   7.651  21.005  0.00  0.00    +0.013 A 
ATOM     31  C   UNL     1      17.591   5.899  19.362  0.00  0.00    +0.013 A 
ATOM     32  C   UNL     1      16.090   7.988  20.443  0.00  0.00    +0.001 A 
ATOM     33  C   UNL     1      16.361   6.237  18.800  0.00  0.00    +0.001 A 
ATOM     34  C   UNL     1      15.610   7.281  19.340  0.00  0.00    +0.000 A 
ENDBRANCH  23  26
ENDBRANCH  20   9
TORSDOF 5
ENDMDL
MODEL 5
REMARK VINA RESULT:      -6.8     24.686     29.319
REMARK  Name = 7142911
REMARK  7 active torsions:
REMARK  status: ('A' for Active; 'I' for Inactive)
REMARK    1  A    between atoms: O_4  and  C_27
REMARK    2  A    between atoms: O_4  and  C_35
REMARK    3  A    between atoms: O_5  and  C_28
REMARK    4  A    between atoms: O_5  and  C_36
REMARK    5  A    between atoms: N_8  and  C_22
REMARK    6  A    between atoms: N_9  and  C_20
REMARK    7  A    between atoms: C_23  and  C_26
REMARK                            x       y       z     vdW  Elec       q    Type
REMARK                         _______ _______ _______ _____ _____    ______ ____
ROOT
ATOM      1  O   UNL     1      -8.589  -8.338  17.212  0.00  0.00    -0.266 OA
ATOM      2  O   UNL     1      -3.844 -10.074  16.670  0.00  0.00    -0.252 OA
ATOM      6  N   UNL     1      -5.089 -11.846  17.477  0.00  0.00    -0.284 N 
ATOM      7  N   UNL     1      -7.958 -10.558  17.579  0.00  0.00    -0.310 N 
ATOM      8  N   UNL     1      -4.631 -11.661  15.171  0.00  0.00    -0.269 N 
ATOM     10  C   UNL     1      -6.410 -11.256  19.498  0.00  0.00    +0.027 C 
ATOM     11  C   UNL     1      -7.258 -12.954  17.924  0.00  0.00    +0.054 C 
ATOM     12  C   UNL     1      -7.140 -12.594  19.406  0.00  0.00    +0.018 C 
ATOM     13  C   UNL     1      -5.011 -11.356  18.855  0.00  0.00    +0.114 C 
ATOM     14  C   UNL     1      -7.277 -10.183  18.828  0.00  0.00    +0.130 C 
ATOM     15  C   UNL     1      -5.846 -13.101  17.326  0.00  0.00    +0.119 C 
ATOM     16  C   UNL     1      -8.032 -11.892  17.165  0.00  0.00    +0.027 A 
ATOM     17  C   UNL     1      -8.751 -12.225  16.080  0.00  0.00    +0.024 A 
ATOM     18  C   UNL     1      -8.610  -9.523  16.878  0.00  0.00    +0.273 A 
ATOM     19  C   UNL     1      -4.459 -11.119  16.444  0.00  0.00    +0.306 C 
ATOM     20  C   UNL     1      -9.378  -9.933  15.660  0.00  0.00    +0.099 A 
ATOM     21  C   UNL     1      -9.435 -11.223  15.314  0.00  0.00    +0.030 A 
ATOM     37  H   UNL     1      -4.752 -12.663  15.087  0.00  0.00    +0.156 HD
ENDROOT
BRANCH   8  22
ATOM     22  C   UNL     1      -4.671 -10.963  13.939  0.00  0.00    +0.042 A 
ATOM     24  C   UNL     1      -3.555 -10.960  13.104  0.00  0.00    +0.069 A 
ATOM     25  C   UNL     1      -5.827 -10.281  13.561  0.00  0.00    +0.069 A 
ATOM     27  C   UNL     1      -5.866  -9.594  12.347  0.00  0.00    +0.125 A 
ATOM     28  C   UNL     1      -3.593 -10.274  11.890  0.00  0.00    +0.125 A 
ATOM     29  C   UNL     1      -4.749  -9.591  11.511  0.00  0.00    +0.091 A 
BRANCH  27   4
ATOM      4  O   UNL     1      -6.994  -8.926  11.979  0.00  0.00    -0.495 OA
ATOM     35  C   UNL     1      -7.395  -9.032  10.614  0.00  0.00    +0.277 C 
ENDBRANCH  27   4
BRANCH  28   5
ATOM      5  O   UNL     1      -2.504 -10.271  11.074  0.00  0.00    -0.495 OA
ATOM     36  C   UNL     1      -1.301  -9.710  11.599  0.00  0.00    +0.277 C 
ENDBRANCH  28   5
ENDBRANCH   8  22
BRANCH  20   9
ATOM      3  O   UNL     1     -12.050  -9.013  16.059  0.00  0.00    -0.270 OA
ATOM      9  N   UNL     1     -10.010  -8.958  14.944  0.00  0.00    -0.277 N 
ATOM     23  C   UNL     1     -11.315  -8.554  15.188  0.00  0.00    +0.248 C 
ATOM     38  H   UNL     1      -9.521  -8.645  14.113  0.00  0.00    +0.155 HD
BRANCH  23  26
ATOM     26  C   UNL     1     -11.825  -7.462  14.318  0.00  0.00    +0.037 A 
ATOM     30  C   UNL     1     -11.870  -6.152  14.798  0.00  0.00    +0.013 A 
ATOM     31  C   UNL     1     -12.256  -7.745  13.023  0.00  0.00    +0.013 A 
ATOM     32  C   UNL     1     -12.348  -5.127  13.982  0.00  0.00    +0.001 A 
ATOM     33  C   UNL     1     -12.733  -6.720  12.206  0.00  0.00    +0.001 A 
ATOM     34  C   UNL     1     -12.779  -5.411  12.686  0.00  0.00    +0.000 A 
ENDBRANCH  23  26
ENDBRANCH  20   9
TORSDOF 5
ENDMDL
MODEL 6
REMARK VINA RESULT:      -6.8     24.682     29.287
REMARK  Name = 7142911
REMARK  7 active torsions:
REMARK  status: ('A' for Active; 'I' for Inactive)
REMARK    1  A    between atoms: O_4  and  C_27
REMARK    2  A    between atoms: O_4  and  C_35
REMARK    3  A    between atoms: O_5  and  C_28
REMARK    4  A    between atoms: O_5  and  C_36
REMARK    5  A    between atoms: N_8  and  C_22
REMARK    6  A    between atoms: N_9  and  C_20
REMARK    7  A    between atoms: C_23  and  C_26
REMARK                            x       y       z     vdW  Elec       q    Type
REMARK                         _______ _______ _______ _____ _____    ______ ____
ROOT
ATOM      1  O   UNL     1      -8.604  -8.341  17.169  0.00  0.00    -0.266 OA
ATOM      2  O   UNL     1      -3.854 -10.075  16.656  0.00  0.00    -0.252 OA
ATOM      6  N   UNL     1      -5.105 -11.850  17.450  0.00  0.00    -0.284 N 
ATOM      7  N   UNL     1      -7.975 -10.561  17.535  0.00  0.00    -0.310 N 
ATOM      8  N   UNL     1      -4.631 -11.659  15.147  0.00  0.00    -0.269 N 
ATOM     10  C   UNL     1      -6.441 -11.265  19.462  0.00  0.00    +0.027 C 
ATOM     11  C   UNL     1      -7.278 -12.959  17.879  0.00  0.00    +0.054 C 
ATOM     12  C   UNL     1      -7.170 -12.602  19.363  0.00  0.00    +0.018 C 
ATOM     13  C   UNL     1      -5.038 -11.363  18.830  0.00  0.00    +0.114 C 
ATOM     14  C   UNL     1      -7.303 -10.190  18.789  0.00  0.00    +0.130 C 
ATOM     15  C   UNL     1      -5.862 -13.104  17.290  0.00  0.00    +0.119 C 
ATOM     16  C   UNL     1      -8.046 -11.895  17.117  0.00  0.00    +0.027 A 
ATOM     17  C   UNL     1      -8.757 -12.225  16.026  0.00  0.00    +0.024 A 
ATOM     18  C   UNL     1      -8.622  -9.525  16.832  0.00  0.00    +0.273 A 
ATOM     19  C   UNL     1      -4.468 -11.120  16.424  0.00  0.00    +0.306 C 
ATOM     20  C   UNL     1      -9.381  -9.932  15.607  0.00  0.00    +0.099 A 
ATOM     21  C   UNL     1      -9.436 -11.221  15.257  0.00  0.00    +0.030 A 
ATOM     37  H   UNL     1      -4.751 -12.661  15.060  0.00  0.00    +0.156 HD
ENDROOT
BRANCH   8  22
ATOM     22  C   UNL     1      -4.662 -10.958  13.917  0.00  0.00    +0.042 A 
ATOM     24  C   UNL     1      -5.806 -10.252  13.546  0.00  0.00    +0.069 A 
ATOM     25  C   UNL     1      -3.549 -10.972  13.078  0.00  0.00    +0.069 A 
ATOM     27  C   UNL     1      -3.579 -10.281  11.866  0.00  0.00    +0.125 A 
ATOM     28  C   UNL     1      -5.837  -9.560  12.335  0.00  0.00    +0.125 A 
ATOM     29  C   UNL     1      -4.723  -9.575  11.495  0.00  0.00    +0.091 A 
BRANCH  27   4
ATOM      4  O   UNL     1      -2.493 -10.296  11.046  0.00  0.00    -0.495 OA
ATOM     35  C   UNL     1      -1.314  -9.649  11.519  0.00  0.00    +0.277 C 
ENDBRANCH  27   4
BRANCH  28   5
ATOM      5  O   UNL     1      -6.954  -8.871  11.973  0.00  0.00    -0.495 OA
ATOM     36  C   UNL     1      -7.583  -9.251  10.749  0.00  0.00    +0.277 C 
ENDBRANCH  28   5
ENDBRANCH   8  22
BRANCH  20   9
ATOM      3  O   UNL     1     -12.088  -9.082  15.922  0.00  0.00    -0.270 OA
ATOM      9  N   UNL     1     -10.008  -8.955  14.889  0.00  0.00    -0.277 N 
ATOM     23  C   UNL     1     -11.331  -8.587  15.091  0.00  0.00    +0.248 C 
ATOM     38  H   UNL     1      -9.495  -8.613  14.084  0.00  0.00    +0.155 HD
BRANCH  23  26
ATOM     26  C   UNL     1     -11.832  -7.486  14.226  0.00  0.00    +0.037 A 
ATOM     30  C   UNL     1     -11.872  -6.180  14.715  0.00  0.00    +0.013 A 
ATOM     31  C   UNL     1     -12.260  -7.759  12.927  0.00  0.00    +0.013 A 
ATOM     32  C   UNL     1     -12.343  -5.147  13.903  0.00  0.00    +0.001 A 
ATOM     33  C   UNL     1     -12.729  -6.726  12.116  0.00  0.00    +0.001 A 
ATOM     34  C   UNL     1     -12.771  -5.420  12.604  0.00  0.00    +0.000 A 
ENDBRANCH  23  26
ENDBRANCH  20   9
TORSDOF 5
ENDMDL
MODEL 7
REMARK VINA RESULT:      -6.7      1.962      6.615
REMARK  Name = 7142911
REMARK  7 active torsions:
REMARK  status: ('A' for Active; 'I' for Inactive)
REMARK    1  A    between atoms: O_4  and  C_27
REMARK    2  A    between atoms: O_4  and  C_35
REMARK    3  A    between atoms: O_5  and  C_28
REMARK    4  A    between atoms: O_5  and  C_36
REMARK    5  A    between atoms: N_8  and  C_22
REMARK    6  A    between atoms: N_9  and  C_20
REMARK    7  A    between atoms: C_23  and  C_26
REMARK                            x       y       z     vdW  Elec       q    Type
REMARK                         _______ _______ _______ _____ _____    ______ ____
ROOT
ATOM      1  O   UNL     1       9.987   7.497   1.748  0.00  0.00    -0.266 OA
ATOM      2  O   UNL     1      11.948  10.345   5.473  0.00  0.00    -0.252 OA
ATOM      6  N   UNL     1      10.496   8.863   6.492  0.00  0.00    -0.284 N 
ATOM      7  N   UNL     1       9.554   7.160   4.020  0.00  0.00    -0.310 N 
ATOM      8  N   UNL     1      12.813   8.422   6.443  0.00  0.00    -0.269 N 
ATOM     10  C   UNL     1       8.244   8.841   5.442  0.00  0.00    +0.027 C 
ATOM     11  C   UNL     1       9.139   6.791   6.478  0.00  0.00    +0.054 C 
ATOM     12  C   UNL     1       7.869   7.621   6.279  0.00  0.00    +0.018 C 
ATOM     13  C   UNL     1       9.326   9.677   6.155  0.00  0.00    +0.114 C 
ATOM     14  C   UNL     1       8.705   8.360   4.060  0.00  0.00    +0.130 C 
ATOM     15  C   UNL     1      10.179   7.634   7.241  0.00  0.00    +0.119 C 
ATOM     16  C   UNL     1       9.713   6.346   5.146  0.00  0.00    +0.027 A 
ATOM     17  C   UNL     1      10.405   5.198   5.058  0.00  0.00    +0.024 A 
ATOM     18  C   UNL     1      10.115   6.824   2.771  0.00  0.00    +0.273 A 
ATOM     19  C   UNL     1      11.780   9.296   6.099  0.00  0.00    +0.306 C 
ATOM     20  C   UNL     1      10.900   5.549   2.722  0.00  0.00    +0.099 A 
ATOM     21  C   UNL     1      11.010   4.795   3.820  0.00  0.00    +0.030 A 
ATOM     37  H   UNL     1      12.700   7.846   7.268  0.00  0.00    +0.156 HD
ENDROOT
BRANCH   8  22
ATOM     22  C   UNL     1      14.034   8.224   5.755  0.00  0.00    +0.042 A 
ATOM     24  C   UNL     1      14.052   7.503   4.561  0.00  0.00    +0.069 A 
ATOM     25  C   UNL     1      15.218   8.751   6.269  0.00  0.00    +0.069 A 
ATOM     27  C   UNL     1      16.422   8.557   5.590  0.00  0.00    +0.125 A 
ATOM     28  C   UNL     1      15.255   7.308   3.882  0.00  0.00    +0.125 A 
ATOM     29  C   UNL     1      16.440   7.836   4.397  0.00  0.00    +0.091 A 
BRANCH  27   4
ATOM      4  O   UNL     1      17.578   9.070   6.094  0.00  0.00    -0.495 OA
ATOM     35  C   UNL     1      17.649  10.486   6.242  0.00  0.00    +0.277 C 
ENDBRANCH  27   4
BRANCH  28   5
ATOM      5  O   UNL     1      15.274   6.605   2.717  0.00  0.00    -0.495 OA
ATOM     36  C   UNL     1      14.575   7.168   1.607  0.00  0.00    +0.277 C 
ENDBRANCH  28   5
ENDBRANCH   8  22
BRANCH  20   9
ATOM      3  O   UNL     1       9.702   3.955   0.680  0.00  0.00    -0.270 OA
ATOM      9  N   UNL     1      11.473   5.196   1.535  0.00  0.00    -0.277 N 
ATOM     23  C   UNL     1      10.836   4.416   0.580  0.00  0.00    +0.248 C 
ATOM     38  H   UNL     1      12.461   5.409   1.451  0.00  0.00    +0.155 HD
BRANCH  23  26
ATOM     26  C   UNL     1      11.612   4.155  -0.661  0.00  0.00    +0.037 A 
ATOM     30  C   UNL     1      10.946   3.893  -1.858  0.00  0.00    +0.013 A 
ATOM     31  C   UNL     1      13.006   4.174  -0.628  0.00  0.00    +0.013 A 
ATOM     32  C   UNL     1      11.675   3.648  -3.022  0.00  0.00    +0.001 A 
ATOM     33  C   UNL     1      13.735   3.929  -1.792  0.00  0.00    +0.001 A 
ATOM     34  C   UNL     1      13.069   3.666  -2.989  0.00  0.00    +0.000 A 
ENDBRANCH  23  26
ENDBRANCH  20   9
TORSDOF 5
ENDMDL
MODEL 8
REMARK VINA RESULT:      -6.6     25.431     28.484
REMARK  Name = 7142911
REMARK  7 active torsions:
REMARK  status: ('A' for Active; 'I' for Inactive)
REMARK    1  A    between atoms: O_4  and  C_27
REMARK    2  A    between atoms: O_4  and  C_35
REMARK    3  A    between atoms: O_5  and  C_28
REMARK    4  A    between atoms: O_5  and  C_36
REMARK    5  A    between atoms: N_8  and  C_22
REMARK    6  A    between atoms: N_9  and  C_20
REMARK    7  A    between atoms: C_23  and  C_26
REMARK                            x       y       z     vdW  Elec       q    Type
REMARK                         _______ _______ _______ _____ _____    ______ ____
ROOT
ATOM      1  O   UNL     1      -6.602 -14.263  16.082  0.00  0.00    -0.266 OA
ATOM      2  O   UNL     1      -9.092 -10.747  13.386  0.00  0.00    -0.252 OA
ATOM      6  N   UNL     1      -8.909  -9.903  15.530  0.00  0.00    -0.284 N 
ATOM      7  N   UNL     1      -7.233 -12.175  16.921  0.00  0.00    -0.310 N 
ATOM      8  N   UNL     1      -7.393  -9.236  13.851  0.00  0.00    -0.269 N 
ATOM     10  C   UNL     1      -9.682 -11.505  17.266  0.00  0.00    +0.027 C 
ATOM     11  C   UNL     1      -7.885  -9.899  17.785  0.00  0.00    +0.054 C 
ATOM     12  C   UNL     1      -9.127 -10.589  18.353  0.00  0.00    +0.018 C 
ATOM     13  C   UNL     1     -10.047 -10.694  16.006  0.00  0.00    +0.114 C 
ATOM     14  C   UNL     1      -8.642 -12.593  16.969  0.00  0.00    +0.130 C 
ATOM     15  C   UNL     1      -8.292  -9.053  16.563  0.00  0.00    +0.119 C 
ATOM     16  C   UNL     1      -6.833 -10.915  17.381  0.00  0.00    +0.027 A 
ATOM     17  C   UNL     1      -5.530 -10.595  17.428  0.00  0.00    +0.024 A 
ATOM     18  C   UNL     1      -6.302 -13.136  16.479  0.00  0.00    +0.273 A 
ATOM     19  C   UNL     1      -8.509 -10.005  14.180  0.00  0.00    +0.306 C 
ATOM     20  C   UNL     1      -4.861 -12.730  16.523  0.00  0.00    +0.099 A 
ATOM     21  C   UNL     1      -4.526 -11.522  16.988  0.00  0.00    +0.030 A 
ATOM     37  H   UNL     1      -7.231  -8.379  14.367  0.00  0.00    +0.156 HD
ENDROOT
BRANCH   8  22
ATOM     22  C   UNL     1      -6.420  -9.514  12.861  0.00  0.00    +0.042 A 
ATOM     24  C   UNL     1      -6.684  -9.223  11.523  0.00  0.00    +0.069 A 
ATOM     25  C   UNL     1      -5.198 -10.079  13.223  0.00  0.00    +0.069 A 
ATOM     27  C   UNL     1      -4.239 -10.353  12.247  0.00  0.00    +0.125 A 
ATOM     28  C   UNL     1      -5.726  -9.496  10.547  0.00  0.00    +0.125 A 
ATOM     29  C   UNL     1      -4.503 -10.061  10.910  0.00  0.00    +0.091 A 
BRANCH  27   4
ATOM      4  O   UNL     1      -3.046 -10.905  12.601  0.00  0.00    -0.495 OA
ATOM     35  C   UNL     1      -2.481 -10.490  13.843  0.00  0.00    +0.277 C 
ENDBRANCH  27   4
BRANCH  28   5
ATOM      5  O   UNL     1      -5.983  -9.211   9.241  0.00  0.00    -0.495 OA
ATOM     36  C   UNL     1      -5.011  -9.626   8.282  0.00  0.00    +0.277 C 
ENDBRANCH  28   5
ENDBRANCH   8  22
BRANCH  20   9
ATOM      3  O   UNL     1      -4.383 -13.481  13.812  0.00  0.00    -0.270 OA
ATOM      9  N   UNL     1      -3.930 -13.626  16.088  0.00  0.00    -0.277 N 
ATOM     23  C   UNL     1      -3.745 -13.950  14.751  0.00  0.00    +0.248 C 
ATOM     38  H   UNL     1      -3.475 -14.167  16.816  0.00  0.00    +0.155 HD
BRANCH  23  26
ATOM     26  C   UNL     1      -2.666 -14.933  14.468  0.00  0.00    +0.037 A 
ATOM     30  C   UNL     1      -1.625 -14.595  13.603  0.00  0.00    +0.013 A 
ATOM     31  C   UNL     1      -2.692 -16.190  15.070  0.00  0.00    +0.013 A 
ATOM     32  C   UNL     1      -0.613 -15.517  13.338  0.00  0.00    +0.001 A 
ATOM     33  C   UNL     1      -1.679 -17.111  14.806  0.00  0.00    +0.001 A 
ATOM     34  C   UNL     1      -0.639 -16.775  13.940  0.00  0.00    +0.000 A 
ENDBRANCH  23  26
ENDBRANCH  20   9
TORSDOF 5
ENDMDL
MODEL 9
REMARK VINA RESULT:      -6.6     25.431     28.577
REMARK  Name = 7142911
REMARK  7 active torsions:
REMARK  status: ('A' for Active; 'I' for Inactive)
REMARK    1  A    between atoms: O_4  and  C_27
REMARK    2  A    between atoms: O_4  and  C_35
REMARK    3  A    between atoms: O_5  and  C_28
REMARK    4  A    between atoms: O_5  and  C_36
REMARK    5  A    between atoms: N_8  and  C_22
REMARK    6  A    between atoms: N_9  and  C_20
REMARK    7  A    between atoms: C_23  and  C_26
REMARK                            x       y       z     vdW  Elec       q    Type
REMARK                         _______ _______ _______ _____ _____    ______ ____
ROOT
ATOM      1  O   UNL     1      -6.636 -14.298  16.116  0.00  0.00    -0.266 OA
ATOM      2  O   UNL     1      -9.091 -10.739  13.445  0.00  0.00    -0.252 OA
ATOM      6  N   UNL     1      -8.889  -9.907  15.591  0.00  0.00    -0.284 N 
ATOM      7  N   UNL     1      -7.237 -12.206  16.966  0.00  0.00    -0.310 N 
ATOM      8  N   UNL     1      -7.372  -9.251  13.910  0.00  0.00    -0.269 N 
ATOM     10  C   UNL     1      -9.675 -11.506  17.324  0.00  0.00    +0.027 C 
ATOM     11  C   UNL     1      -7.856  -9.926  17.842  0.00  0.00    +0.054 C 
ATOM     12  C   UNL     1      -9.104 -10.602  18.413  0.00  0.00    +0.018 C 
ATOM     13  C   UNL     1     -10.035 -10.685  16.069  0.00  0.00    +0.114 C 
ATOM     14  C   UNL     1      -8.650 -12.606  17.019  0.00  0.00    +0.130 C 
ATOM     15  C   UNL     1      -8.257  -9.070  16.626  0.00  0.00    +0.119 C 
ATOM     16  C   UNL     1      -6.819 -10.953  17.430  0.00  0.00    +0.027 A 
ATOM     17  C   UNL     1      -5.511 -10.650  17.473  0.00  0.00    +0.024 A 
ATOM     18  C   UNL     1      -6.319 -13.177  16.516  0.00  0.00    +0.273 A 
ATOM     19  C   UNL     1      -8.496 -10.008  14.240  0.00  0.00    +0.306 C 
ATOM     20  C   UNL     1      -4.873 -12.789  16.556  0.00  0.00    +0.099 A 
ATOM     21  C   UNL     1      -4.522 -11.588  17.025  0.00  0.00    +0.030 A 
ATOM     37  H   UNL     1      -7.196  -8.399  14.429  0.00  0.00    +0.156 HD
ENDROOT
BRANCH   8  22
ATOM     22  C   UNL     1      -6.406  -9.538  12.914  0.00  0.00    +0.042 A 
ATOM     24  C   UNL     1      -5.169 -10.069  13.277  0.00  0.00    +0.069 A 
ATOM     25  C   UNL     1      -6.693  -9.291  11.572  0.00  0.00    +0.069 A 
ATOM     27  C   UNL     1      -5.742  -9.575  10.591  0.00  0.00    +0.125 A 
ATOM     28  C   UNL     1      -4.217 -10.353  12.297  0.00  0.00    +0.125 A 
ATOM     29  C   UNL     1      -4.504 -10.106  10.954  0.00  0.00    +0.091 A 
BRANCH  27   4
ATOM      4  O   UNL     1      -6.022  -9.332   9.281  0.00  0.00    -0.495 OA
ATOM     35  C   UNL     1      -4.982  -9.583   8.338  0.00  0.00    +0.277 C 
ENDBRANCH  27   4
BRANCH  28   5
ATOM      5  O   UNL     1      -3.009 -10.871  12.650  0.00  0.00    -0.495 OA
ATOM     36  C   UNL     1      -2.499 -10.513  13.934  0.00  0.00    +0.277 C 
ENDBRANCH  28   5
ENDBRANCH   8  22
BRANCH  20   9
ATOM      3  O   UNL     1      -4.381 -13.497  13.835  0.00  0.00    -0.270 OA
ATOM      9  N   UNL     1      -3.955 -13.696  16.114  0.00  0.00    -0.277 N 
ATOM     23  C   UNL     1      -3.763 -13.997  14.772  0.00  0.00    +0.248 C 
ATOM     38  H   UNL     1      -3.519 -14.259  16.835  0.00  0.00    +0.155 HD
BRANCH  23  26
ATOM     26  C   UNL     1      -2.700 -14.995  14.482  0.00  0.00    +0.037 A 
ATOM     30  C   UNL     1      -2.702 -16.226  15.138  0.00  0.00    +0.013 A 
ATOM     31  C   UNL     1      -1.702 -14.702  13.553  0.00  0.00    +0.013 A 
ATOM     32  C   UNL     1      -1.705 -17.162  14.866  0.00  0.00    +0.001 A 
ATOM     33  C   UNL     1      -0.706 -15.639  13.280  0.00  0.00    +0.001 A 
ATOM     34  C   UNL     1      -0.707 -16.869  13.937  0.00  0.00    +0.000 A 
ENDBRANCH  23  26
ENDBRANCH  20   9
TORSDOF 5
ENDMDL
MODEL 10
REMARK VINA RESULT:      -6.5     31.823     35.107
REMARK  Name = 7142911
REMARK  7 active torsions:
REMARK  status: ('A' for Active; 'I' for Inactive)
REMARK    1  A    between atoms: O_4  and  C_27
REMARK    2  A    between atoms: O_4  and  C_35
REMARK    3  A    between atoms: O_5  and  C_28
REMARK    4  A    between atoms: O_5  and  C_36
REMARK    5  A    between atoms: N_8  and  C_22
REMARK    6  A    between atoms: N_9  and  C_20
REMARK    7  A    between atoms: C_23  and  C_26
REMARK                            x       y       z     vdW  Elec       q    Type
REMARK                         _______ _______ _______ _____ _____    ______ ____
ROOT
ATOM      1  O   UNL     1       9.217  -9.633  33.153  0.00  0.00    -0.266 OA
ATOM      2  O   UNL     1       8.475  -7.634  37.766  0.00  0.00    -0.252 OA
ATOM      6  N   UNL     1       8.253  -5.890  36.266  0.00  0.00    -0.284 N 
ATOM      7  N   UNL     1       8.609  -7.409  33.533  0.00  0.00    -0.310 N 
ATOM      8  N   UNL     1       6.345  -6.990  37.108  0.00  0.00    -0.269 N 
ATOM     10  C   UNL     1      10.163  -5.728  34.684  0.00  0.00    +0.027 C 
ATOM     11  C   UNL     1       7.910  -5.027  33.970  0.00  0.00    +0.054 C 
ATOM     12  C   UNL     1       9.398  -4.686  33.873  0.00  0.00    +0.018 C 
ATOM     13  C   UNL     1       9.703  -5.715  36.156  0.00  0.00    +0.114 C 
ATOM     14  C   UNL     1       9.959  -7.100  34.029  0.00  0.00    +0.130 C 
ATOM     15  C   UNL     1       7.469  -4.951  35.444  0.00  0.00    +0.119 C 
ATOM     16  C   UNL     1       7.632  -6.413  33.419  0.00  0.00    +0.027 A 
ATOM     17  C   UNL     1       6.442  -6.694  32.864  0.00  0.00    +0.024 A 
ATOM     18  C   UNL     1       8.383  -8.728  33.091  0.00  0.00    +0.273 A 
ATOM     19  C   UNL     1       7.736  -6.893  37.113  0.00  0.00    +0.306 C 
ATOM     20  C   UNL     1       7.035  -9.006  32.502  0.00  0.00    +0.099 A 
ATOM     21  C   UNL     1       6.140  -8.018  32.398  0.00  0.00    +0.030 A 
ATOM     37  H   UNL     1       5.805  -6.154  36.922  0.00  0.00    +0.156 HD
ENDROOT
BRANCH   8  22
ATOM     22  C   UNL     1       5.565  -8.152  37.327  0.00  0.00    +0.042 A 
ATOM     24  C   UNL     1       4.960  -8.798  36.250  0.00  0.00    +0.069 A 
ATOM     25  C   UNL     1       5.402  -8.650  38.620  0.00  0.00    +0.069 A 
ATOM     27  C   UNL     1       4.634  -9.795  38.835  0.00  0.00    +0.125 A 
ATOM     28  C   UNL     1       4.192  -9.943  36.464  0.00  0.00    +0.125 A 
ATOM     29  C   UNL     1       4.030 -10.441  37.758  0.00  0.00    +0.091 A 
BRANCH  27   4
ATOM      4  O   UNL     1       4.475 -10.280  40.097  0.00  0.00    -0.495 OA
ATOM     35  C   UNL     1       4.884  -9.438  41.173  0.00  0.00    +0.277 C 
ENDBRANCH  27   4
BRANCH  28   5
ATOM      5  O   UNL     1       3.602 -10.575  35.413  0.00  0.00    -0.495 OA
ATOM     36  C   UNL     1       4.424 -11.440  34.631  0.00  0.00    +0.277 C 
ENDBRANCH  28   5
ENDBRANCH   8  22
BRANCH  20   9
ATOM      3  O   UNL     1       7.022  -9.908  29.794  0.00  0.00    -0.270 OA
ATOM      9  N   UNL     1       6.771 -10.275  32.077  0.00  0.00    -0.277 N 
ATOM     23  C   UNL     1       6.781 -10.652  30.741  0.00  0.00    +0.248 C 
ATOM     38  H   UNL     1       6.413 -10.904  32.787  0.00  0.00    +0.155 HD
BRANCH  23  26
ATOM     26  C   UNL     1       6.491 -12.086  30.474  0.00  0.00    +0.037 A 
ATOM     30  C   UNL     1       7.052 -12.715  29.363  0.00  0.00    +0.013 A 
ATOM     31  C   UNL     1       5.661 -12.802  31.336  0.00  0.00    +0.013 A 
ATOM     32  C   UNL     1       6.780 -14.060  29.113  0.00  0.00    +0.001 A 
ATOM     33  C   UNL     1       5.390 -14.147  31.086  0.00  0.00    +0.001 A 
ATOM     34  C   UNL     1       5.950 -14.776  29.974  0.00  0.00    +0.000 A 
ENDBRANCH  23  26
ENDBRANCH  20   9
TORSDOF 5
ENDMDL
