REMARK  Name = 71693922
REMARK  7 active torsions:
REMARK  status: ('A' for Active; 'I' for Inactive)
REMARK    1  A    between atoms: O_1  and  C_8
REMARK    2  A    between atoms: O_2  and  C_10
REMARK    3  A    between atoms: N_4  and  C_7
REMARK    4  A    between atoms: C_6  and  C_11
REMARK    5  A    between atoms: C_12  and  C_16
REMARK    6  A    between atoms: C_14  and  C_19
REMARK    7  A    between atoms: C_24  and  C_25
REMARK                            x       y       z     vdW  Elec       q    Type
REMARK                         _______ _______ _______ _____ _____    ______ ____
ROOT
ATOM      6  C   UNL     1       2.191   0.459   0.902  0.00  0.00    +0.045 C 
ATOM      7  C   UNL     1       1.360   1.312  -0.083  0.00  0.00    +0.112 C 
ATOM      8  C   UNL     1       1.753   2.746   0.270  0.00  0.00    +0.164 C 
ATOM      9  C   UNL     1       3.394   1.345   1.317  0.00  0.00    +0.044 C 
ATOM     10  C   UNL     1       3.252   2.642   0.522  0.00  0.00    +0.145 C 
ENDROOT
BRANCH   6  11
ATOM     11  C   UNL     1       2.577  -0.891   0.336  0.00  0.00    -0.039 A 
ATOM     12  C   UNL     1       2.177  -2.072   0.960  0.00  0.00    -0.047 A 
ATOM     13  C   UNL     1       3.343  -0.943  -0.829  0.00  0.00    +0.004 A 
ATOM     15  C   UNL     1       2.543  -3.305   0.421  0.00  0.00    +0.003 A 
ATOM     16  C   UNL     1       1.356  -2.042   2.208  0.00  0.00    +0.044 C 
ATOM     17  C   UNL     1       3.710  -2.176  -1.368  0.00  0.00    +0.000 A 
ATOM     18  C   UNL     1       3.309  -3.357  -0.744  0.00  0.00    +0.000 A 
ENDBRANCH   6  11
BRANCH   7   4
ATOM      3  O   UNL     1      -0.251  -0.556  -1.552  0.00  0.00    -0.270 OA
ATOM      4  N   UNL     1      -0.055   1.089   0.071  0.00  0.00    -0.305 N 
ATOM     14  C   UNL     1      -0.753   0.159  -0.688  0.00  0.00    +0.244 C 
ATOM     26  H   UNL     1      -0.539   1.665   0.752  0.00  0.00    +0.149 HD
BRANCH  14  19
ATOM     19  C   UNL     1      -2.212   0.068  -0.428  0.00  0.00    +0.037 A 
ATOM     20  C   UNL     1      -3.075  -0.364  -1.435  0.00  0.00    +0.014 A 
ATOM     21  C   UNL     1      -2.720   0.414   0.825  0.00  0.00    +0.014 A 
ATOM     22  C   UNL     1      -4.446  -0.451  -1.189  0.00  0.00    +0.019 A 
ATOM     23  C   UNL     1      -4.090   0.327   1.070  0.00  0.00    +0.019 A 
ATOM     24  C   UNL     1      -4.953  -0.105   0.064  0.00  0.00    +0.052 A 
BRANCH  24  25
ATOM      5  N   UNL     1      -7.497  -0.266   0.519  0.00  0.00    -0.191 NA
ATOM     25  C   UNL     1      -6.357  -0.194   0.315  0.00  0.00    +0.099 C 
ENDBRANCH  24  25
ENDBRANCH  14  19
ENDBRANCH   7   4
BRANCH   8   1
ATOM      1  O   UNL     1       1.474   3.653  -0.781  0.00  0.00    -0.387 OA
ATOM     27  H   UNL     1       1.835   4.518  -0.523  0.00  0.00    +0.210 HD
ENDBRANCH   8   1
BRANCH  10   2
ATOM      2  O   UNL     1       3.968   2.507  -0.702  0.00  0.00    -0.389 OA
ATOM     28  H   UNL     1       4.909   2.405  -0.480  0.00  0.00    +0.210 HD
ENDBRANCH  10   2
TORSDOF 6
