MODEL 1
REMARK VINA RESULT:      -6.6      0.000      0.000
REMARK  Name = 45783447
REMARK  9 active torsions:
REMARK  status: ('A' for Active; 'I' for Inactive)
REMARK    1  A    between atoms: O_2  and  C_23
REMARK    2  A    between atoms: O_2  and  C_26
REMARK    3  A    between atoms: O_3  and  C_27
REMARK    4  A    between atoms: O_3  and  C_28
REMARK    5  A    between atoms: N_4  and  C_9
REMARK    6  A    between atoms: N_5  and  C_19
REMARK    7  A    between atoms: C_10  and  C_18
REMARK    8  A    between atoms: C_20  and  C_21
REMARK    9  A    between atoms: C_26  and  C_27
REMARK                            x       y       z     vdW  Elec       q    Type
REMARK                         _______ _______ _______ _____ _____    ______ ____
ROOT
ATOM      1  O   UNL     1      14.464   6.663  19.739  0.00  0.00    -0.336 OA
ATOM      6  N   UNL     1      15.698   8.180  20.834  0.00  0.00    -0.189 NA
ATOM      7  N   UNL     1      15.775   6.170  19.742  0.00  0.00    -0.054 NA
ATOM     18  C   UNL     1      14.506   7.849  20.402  0.00  0.00    +0.245 A 
ATOM     20  C   UNL     1      16.442   7.119  20.405  0.00  0.00    +0.221 A 
ENDROOT
BRANCH  20  21
ATOM      8  N   UNL     1      18.407   8.132  21.228  0.00  0.00    -0.252 NA
ATOM     21  C   UNL     1      17.852   7.039  20.656  0.00  0.00    +0.115 A 
ATOM     22  C   UNL     1      18.558   5.895  20.322  0.00  0.00    +0.077 A 
ATOM     23  C   UNL     1      19.923   5.871  20.588  0.00  0.00    +0.124 A 
ATOM     24  C   UNL     1      19.736   8.071  21.472  0.00  0.00    +0.115 A 
ATOM     25  C   UNL     1      20.530   6.975  21.174  0.00  0.00    +0.065 A 
BRANCH  23   2
ATOM      2  O   UNL     1      20.660   4.771  20.277  0.00  0.00    -0.490 OA
BRANCH   2  26
ATOM     26  C   UNL     1      21.982   4.702  20.811  0.00  0.00    +0.257 C 
BRANCH  26  27
ATOM     27  C   UNL     1      22.055   3.557  21.803  0.00  0.00    +0.200 C 
BRANCH  27   3
ATOM      3  O   UNL     1      21.885   4.072  23.118  0.00  0.00    -0.380 OA
ATOM     28  C   UNL     1      22.841   5.083  23.408  0.00  0.00    +0.194 C 
ENDBRANCH  27   3
ENDBRANCH  26  27
ENDBRANCH   2  26
ENDBRANCH  23   2
ENDBRANCH  20  21
BRANCH  18  10
ATOM      4  N   UNL     1      12.316   8.418  19.365  0.00  0.00    -0.288 NA
ATOM     10  C   UNL     1      13.196   8.594  20.538  0.00  0.00    +0.146 C 
ATOM     11  C   UNL     1      10.943   8.532  19.858  0.00  0.00    +0.085 C 
ATOM     14  C   UNL     1      12.356   8.108  21.734  0.00  0.00    +0.030 C 
ATOM     15  C   UNL     1      11.003   7.735  21.146  0.00  0.00    +0.017 C 
BRANCH   4   9
ATOM      5  N   UNL     1      14.517  10.644  16.493  0.00  0.00    -0.305 NA
ATOM      9  C   UNL     1      12.594   9.363  18.288  0.00  0.00    +0.060 C 
ATOM     12  C   UNL     1      13.201   8.635  17.086  0.00  0.00    +0.034 C 
ATOM     13  C   UNL     1      13.542  10.469  18.761  0.00  0.00    +0.034 C 
ATOM     16  C   UNL     1      13.591   9.623  15.984  0.00  0.00    +0.085 C 
ATOM     17  C   UNL     1      13.921  11.398  17.604  0.00  0.00    +0.085 C 
ATOM     19  C   UNL     1      14.919  11.550  15.418  0.00  0.00    +0.104 C 
ENDBRANCH   4   9
ENDBRANCH  18  10
TORSDOF 7
ENDMDL
MODEL 2
REMARK VINA RESULT:      -6.5      1.621      3.323
REMARK  Name = 45783447
REMARK  9 active torsions:
REMARK  status: ('A' for Active; 'I' for Inactive)
REMARK    1  A    between atoms: O_2  and  C_23
REMARK    2  A    between atoms: O_2  and  C_26
REMARK    3  A    between atoms: O_3  and  C_27
REMARK    4  A    between atoms: O_3  and  C_28
REMARK    5  A    between atoms: N_4  and  C_9
REMARK    6  A    between atoms: N_5  and  C_19
REMARK    7  A    between atoms: C_10  and  C_18
REMARK    8  A    between atoms: C_20  and  C_21
REMARK    9  A    between atoms: C_26  and  C_27
REMARK                            x       y       z     vdW  Elec       q    Type
REMARK                         _______ _______ _______ _____ _____    ______ ____
ROOT
ATOM      1  O   UNL     1      15.759   6.074  18.316  0.00  0.00    -0.336 OA
ATOM      6  N   UNL     1      16.283   7.628  19.842  0.00  0.00    -0.189 NA
ATOM      7  N   UNL     1      16.980   5.676  18.874  0.00  0.00    -0.054 NA
ATOM     18  C   UNL     1      15.418   7.231  18.941  0.00  0.00    +0.245 A 
ATOM     20  C   UNL     1      17.223   6.642  19.764  0.00  0.00    +0.221 A 
ENDROOT
BRANCH  20  21
ATOM      8  N   UNL     1      18.368   7.516  21.632  0.00  0.00    -0.252 NA
ATOM     21  C   UNL     1      18.394   6.653  20.591  0.00  0.00    +0.115 A 
ATOM     22  C   UNL     1      19.460   5.815  20.306  0.00  0.00    +0.077 A 
ATOM     23  C   UNL     1      20.570   5.865  21.141  0.00  0.00    +0.124 A 
ATOM     24  C   UNL     1      19.465   7.537  22.422  0.00  0.00    +0.115 A 
ATOM     25  C   UNL     1      20.581   6.740  22.221  0.00  0.00    +0.065 A 
BRANCH  23   2
ATOM      2  O   UNL     1      21.642   5.062  20.902  0.00  0.00    -0.490 OA
BRANCH   2  26
ATOM     26  C   UNL     1      21.511   3.683  21.246  0.00  0.00    +0.257 C 
BRANCH  26  27
ATOM     27  C   UNL     1      22.574   3.324  22.267  0.00  0.00    +0.200 C 
BRANCH  27   3
ATOM      3  O   UNL     1      22.086   3.623  23.569  0.00  0.00    -0.380 OA
ATOM     28  C   UNL     1      22.976   4.477  24.274  0.00  0.00    +0.194 C 
ENDBRANCH  27   3
ENDBRANCH  26  27
ENDBRANCH   2  26
ENDBRANCH  23   2
ENDBRANCH  20  21
BRANCH  18  10
ATOM      4  N   UNL     1      13.961   9.246  19.035  0.00  0.00    -0.288 NA
ATOM     10  C   UNL     1      14.117   7.875  18.511  0.00  0.00    +0.146 C 
ATOM     11  C   UNL     1      13.138   9.968  18.064  0.00  0.00    +0.085 C 
ATOM     14  C   UNL     1      14.003   8.023  16.983  0.00  0.00    +0.030 C 
ATOM     15  C   UNL     1      13.723   9.501  16.747  0.00  0.00    +0.017 C 
BRANCH   4   9
ATOM      5  N   UNL     1      11.616  10.566  22.324  0.00  0.00    -0.305 NA
ATOM      9  C   UNL     1      13.391   9.290  20.379  0.00  0.00    +0.060 C 
ATOM     12  C   UNL     1      11.868   9.144  20.315  0.00  0.00    +0.034 C 
ATOM     13  C   UNL     1      13.762  10.594  21.090  0.00  0.00    +0.034 C 
ATOM     16  C   UNL     1      11.244   9.286  21.704  0.00  0.00    +0.085 C 
ATOM     17  C   UNL     1      13.075  10.689  22.454  0.00  0.00    +0.085 C 
ATOM     19  C   UNL     1      10.972  10.708  23.630  0.00  0.00    +0.104 C 
ENDBRANCH   4   9
ENDBRANCH  18  10
TORSDOF 7
ENDMDL
MODEL 3
REMARK VINA RESULT:      -6.4      2.269      9.003
REMARK  Name = 45783447
REMARK  9 active torsions:
REMARK  status: ('A' for Active; 'I' for Inactive)
REMARK    1  A    between atoms: O_2  and  C_23
REMARK    2  A    between atoms: O_2  and  C_26
REMARK    3  A    between atoms: O_3  and  C_27
REMARK    4  A    between atoms: O_3  and  C_28
REMARK    5  A    between atoms: N_4  and  C_9
REMARK    6  A    between atoms: N_5  and  C_19
REMARK    7  A    between atoms: C_10  and  C_18
REMARK    8  A    between atoms: C_20  and  C_21
REMARK    9  A    between atoms: C_26  and  C_27
REMARK                            x       y       z     vdW  Elec       q    Type
REMARK                         _______ _______ _______ _____ _____    ______ ____
ROOT
ATOM      1  O   UNL     1      18.317   6.162  19.978  0.00  0.00    -0.336 OA
ATOM      6  N   UNL     1      16.905   7.810  20.534  0.00  0.00    -0.189 NA
ATOM      7  N   UNL     1      17.131   5.914  19.275  0.00  0.00    -0.054 NA
ATOM     18  C   UNL     1      18.099   7.296  20.694  0.00  0.00    +0.245 A 
ATOM     20  C   UNL     1      16.349   6.928  19.656  0.00  0.00    +0.221 A 
ENDROOT
BRANCH  20  21
ATOM      8  N   UNL     1      14.888   7.542  17.908  0.00  0.00    -0.252 NA
ATOM     21  C   UNL     1      15.006   7.088  19.176  0.00  0.00    +0.115 A 
ATOM     22  C   UNL     1      13.931   6.783  19.994  0.00  0.00    +0.077 A 
ATOM     23  C   UNL     1      12.651   6.956  19.479  0.00  0.00    +0.124 A 
ATOM     24  C   UNL     1      13.629   7.698  17.441  0.00  0.00    +0.115 A 
ATOM     25  C   UNL     1      12.488   7.422  18.179  0.00  0.00    +0.065 A 
BRANCH  23   2
ATOM      2  O   UNL     1      11.562   6.672  20.243  0.00  0.00    -0.490 OA
BRANCH   2  26
ATOM     26  C   UNL     1      11.499   7.274  21.535  0.00  0.00    +0.257 C 
BRANCH  26  27
ATOM     27  C   UNL     1      10.975   8.690  21.396  0.00  0.00    +0.200 C 
BRANCH  27   3
ATOM      3  O   UNL     1      10.671   9.202  22.688  0.00  0.00    -0.380 OA
ATOM     28  C   UNL     1      10.951  10.592  22.776  0.00  0.00    +0.194 C 
ENDBRANCH  27   3
ENDBRANCH  26  27
ENDBRANCH   2  26
ENDBRANCH  23   2
ENDBRANCH  20  21
BRANCH  18  10
ATOM      4  N   UNL     1      20.552   7.253  21.111  0.00  0.00    -0.288 NA
ATOM     10  C   UNL     1      19.247   7.785  21.552  0.00  0.00    +0.146 C 
ATOM     11  C   UNL     1      21.552   8.257  21.478  0.00  0.00    +0.085 C 
ATOM     14  C   UNL     1      19.413   9.315  21.509  0.00  0.00    +0.030 C 
ATOM     15  C   UNL     1      20.858   9.548  21.092  0.00  0.00    +0.017 C 
BRANCH   4   9
ATOM      5  N   UNL     1      22.814   3.840  22.248  0.00  0.00    -0.305 NA
ATOM      9  C   UNL     1      20.860   5.940  21.672  0.00  0.00    +0.060 C 
ATOM     12  C   UNL     1      21.893   6.071  22.794  0.00  0.00    +0.034 C 
ATOM     13  C   UNL     1      21.381   4.991  20.590  0.00  0.00    +0.034 C 
ATOM     16  C   UNL     1      22.301   4.696  23.327  0.00  0.00    +0.085 C 
ATOM     17  C   UNL     1      21.807   3.651  21.195  0.00  0.00    +0.085 C 
ATOM     19  C   UNL     1      23.247   2.549  22.781  0.00  0.00    +0.104 C 
ENDBRANCH   4   9
ENDBRANCH  18  10
TORSDOF 7
ENDMDL
MODEL 4
REMARK VINA RESULT:      -6.2     16.125     20.020
REMARK  Name = 45783447
REMARK  9 active torsions:
REMARK  status: ('A' for Active; 'I' for Inactive)
REMARK    1  A    between atoms: O_2  and  C_23
REMARK    2  A    between atoms: O_2  and  C_26
REMARK    3  A    between atoms: O_3  and  C_27
REMARK    4  A    between atoms: O_3  and  C_28
REMARK    5  A    between atoms: N_4  and  C_9
REMARK    6  A    between atoms: N_5  and  C_19
REMARK    7  A    between atoms: C_10  and  C_18
REMARK    8  A    between atoms: C_20  and  C_21
REMARK    9  A    between atoms: C_26  and  C_27
REMARK                            x       y       z     vdW  Elec       q    Type
REMARK                         _______ _______ _______ _____ _____    ______ ____
ROOT
ATOM      1  O   UNL     1      12.350   2.791   1.903  0.00  0.00    -0.336 OA
ATOM      6  N   UNL     1      12.213   5.008   1.612  0.00  0.00    -0.189 NA
ATOM      7  N   UNL     1      11.347   3.236   2.773  0.00  0.00    -0.054 NA
ATOM     18  C   UNL     1      12.807   3.895   1.257  0.00  0.00    +0.245 A 
ATOM     20  C   UNL     1      11.326   4.553   2.543  0.00  0.00    +0.221 A 
ENDROOT
BRANCH  20  21
ATOM      8  N   UNL     1      10.032   6.525   2.524  0.00  0.00    -0.252 NA
ATOM     21  C   UNL     1      10.431   5.441   3.228  0.00  0.00    +0.115 A 
ATOM     22  C   UNL     1      10.027   5.165   4.523  0.00  0.00    +0.077 A 
ATOM     23  C   UNL     1       9.157   6.059   5.139  0.00  0.00    +0.124 A 
ATOM     24  C   UNL     1       9.188   7.372   3.155  0.00  0.00    +0.115 A 
ATOM     25  C   UNL     1       8.725   7.186   4.449  0.00  0.00    +0.065 A 
BRANCH  23   2
ATOM      2  O   UNL     1       8.732   5.833   6.411  0.00  0.00    -0.490 OA
BRANCH   2  26
ATOM     26  C   UNL     1       9.432   6.501   7.459  0.00  0.00    +0.257 C 
BRANCH  26  27
ATOM     27  C   UNL     1      10.599   5.639   7.903  0.00  0.00    +0.200 C 
BRANCH  27   3
ATOM      3  O   UNL     1      10.508   5.422   9.305  0.00  0.00    -0.380 OA
ATOM     28  C   UNL     1       9.335   4.695   9.644  0.00  0.00    +0.194 C 
ENDBRANCH  27   3
ENDBRANCH  26  27
ENDBRANCH   2  26
ENDBRANCH  23   2
ENDBRANCH  20  21
BRANCH  18  10
ATOM      4  N   UNL     1      13.837   4.622  -0.889  0.00  0.00    -0.288 NA
ATOM     10  C   UNL     1      13.911   3.679   0.245  0.00  0.00    +0.146 C 
ATOM     11  C   UNL     1      15.209   4.810  -1.360  0.00  0.00    +0.085 C 
ATOM     14  C   UNL     1      15.316   3.892   0.841  0.00  0.00    +0.030 C 
ATOM     15  C   UNL     1      15.976   4.927  -0.058  0.00  0.00    +0.017 C 
BRANCH   4   9
ATOM      5  N   UNL     1      10.337   3.150  -2.796  0.00  0.00    -0.305 NA
ATOM      9  C   UNL     1      12.946   4.173  -1.955  0.00  0.00    +0.060 C 
ATOM     12  C   UNL     1      11.701   5.062  -2.015  0.00  0.00    +0.034 C 
ATOM     13  C   UNL     1      12.536   2.712  -1.749  0.00  0.00    +0.034 C 
ATOM     16  C   UNL     1      10.709   4.547  -3.061  0.00  0.00    +0.085 C 
ATOM     17  C   UNL     1      11.517   2.274  -2.803  0.00  0.00    +0.085 C 
ATOM     19  C   UNL     1       9.352   2.689  -3.774  0.00  0.00    +0.104 C 
ENDBRANCH   4   9
ENDBRANCH  18  10
TORSDOF 7
ENDMDL
MODEL 5
REMARK VINA RESULT:      -6.1     26.232     30.104
REMARK  Name = 45783447
REMARK  9 active torsions:
REMARK  status: ('A' for Active; 'I' for Inactive)
REMARK    1  A    between atoms: O_2  and  C_23
REMARK    2  A    between atoms: O_2  and  C_26
REMARK    3  A    between atoms: O_3  and  C_27
REMARK    4  A    between atoms: O_3  and  C_28
REMARK    5  A    between atoms: N_4  and  C_9
REMARK    6  A    between atoms: N_5  and  C_19
REMARK    7  A    between atoms: C_10  and  C_18
REMARK    8  A    between atoms: C_20  and  C_21
REMARK    9  A    between atoms: C_26  and  C_27
REMARK                            x       y       z     vdW  Elec       q    Type
REMARK                         _______ _______ _______ _____ _____    ______ ____
ROOT
ATOM      1  O   UNL     1      -4.100 -11.559  17.749  0.00  0.00    -0.336 OA
ATOM      6  N   UNL     1      -5.363 -10.568  16.187  0.00  0.00    -0.189 NA
ATOM      7  N   UNL     1      -5.332 -11.290  18.358  0.00  0.00    -0.054 NA
ATOM     18  C   UNL     1      -4.202 -11.103  16.473  0.00  0.00    +0.245 A 
ATOM     20  C   UNL     1      -6.022 -10.706  17.374  0.00  0.00    +0.221 A 
ENDROOT
BRANCH  20  21
ATOM      8  N   UNL     1      -8.096 -10.899  18.481  0.00  0.00    -0.252 NA
ATOM     21  C   UNL     1      -7.371 -10.248  17.543  0.00  0.00    +0.115 A 
ATOM     22  C   UNL     1      -7.856  -9.202  16.776  0.00  0.00    +0.077 A 
ATOM     23  C   UNL     1      -9.171  -8.798  16.982  0.00  0.00    +0.124 A 
ATOM     24  C   UNL     1      -9.370 -10.479  18.653  0.00  0.00    +0.115 A 
ATOM     25  C   UNL     1      -9.949  -9.443  17.936  0.00  0.00    +0.065 A 
BRANCH  23   2
ATOM      2  O   UNL     1      -9.694  -7.775  16.253  0.00  0.00    -0.490 OA
BRANCH   2  26
ATOM     26  C   UNL     1     -10.814  -7.087  16.809  0.00  0.00    +0.257 C 
BRANCH  26  27
ATOM     27  C   UNL     1     -11.206  -5.951  15.883  0.00  0.00    +0.200 C 
BRANCH  27   3
ATOM      3  O   UNL     1     -12.236  -6.399  15.011  0.00  0.00    -0.380 OA
ATOM     28  C   UNL     1     -12.691  -5.354  14.163  0.00  0.00    +0.194 C 
ENDBRANCH  27   3
ENDBRANCH  26  27
ENDBRANCH   2  26
ENDBRANCH  23   2
ENDBRANCH  20  21
BRANCH  18  10
ATOM      4  N   UNL     1      -3.089 -10.536  14.321  0.00  0.00    -0.288 NA
ATOM     10  C   UNL     1      -2.984 -11.279  15.593  0.00  0.00    +0.146 C 
ATOM     11  C   UNL     1      -1.722 -10.194  13.928  0.00  0.00    +0.085 C 
ATOM     14  C   UNL     1      -1.694 -10.751  16.249  0.00  0.00    +0.030 C 
ATOM     15  C   UNL     1      -1.114  -9.763  15.248  0.00  0.00    +0.017 C 
BRANCH   4   9
ATOM      5  N   UNL     1      -4.478 -11.615  10.453  0.00  0.00    -0.305 NA
ATOM      9  C   UNL     1      -3.792 -11.276  13.277  0.00  0.00    +0.060 C 
ATOM     12  C   UNL     1      -2.796 -11.830  12.255  0.00  0.00    +0.034 C 
ATOM     13  C   UNL     1      -4.823 -10.387  12.574  0.00  0.00    +0.034 C 
ATOM     16  C   UNL     1      -3.522 -12.524  11.101  0.00  0.00    +0.085 C 
ATOM     17  C   UNL     1      -5.482 -11.129  11.409  0.00  0.00    +0.085 C 
ATOM     19  C   UNL     1      -5.126 -12.276   9.321  0.00  0.00    +0.104 C 
ENDBRANCH   4   9
ENDBRANCH  18  10
TORSDOF 7
ENDMDL
MODEL 6
REMARK VINA RESULT:      -5.9     26.916     29.575
REMARK  Name = 45783447
REMARK  9 active torsions:
REMARK  status: ('A' for Active; 'I' for Inactive)
REMARK    1  A    between atoms: O_2  and  C_23
REMARK    2  A    between atoms: O_2  and  C_26
REMARK    3  A    between atoms: O_3  and  C_27
REMARK    4  A    between atoms: O_3  and  C_28
REMARK    5  A    between atoms: N_4  and  C_9
REMARK    6  A    between atoms: N_5  and  C_19
REMARK    7  A    between atoms: C_10  and  C_18
REMARK    8  A    between atoms: C_20  and  C_21
REMARK    9  A    between atoms: C_26  and  C_27
REMARK                            x       y       z     vdW  Elec       q    Type
REMARK                         _______ _______ _______ _____ _____    ______ ____
ROOT
ATOM      1  O   UNL     1      -2.180 -10.619  14.332  0.00  0.00    -0.336 OA
ATOM      6  N   UNL     1      -4.414 -10.750  14.431  0.00  0.00    -0.189 NA
ATOM      7  N   UNL     1      -2.508 -10.657  15.693  0.00  0.00    -0.054 NA
ATOM     18  C   UNL     1      -3.358 -10.679  13.659  0.00  0.00    +0.245 A 
ATOM     20  C   UNL     1      -3.842 -10.734  15.669  0.00  0.00    +0.221 A 
ENDROOT
BRANCH  20  21
ATOM      8  N   UNL     1      -4.055 -11.417  17.917  0.00  0.00    -0.252 NA
ATOM     21  C   UNL     1      -4.633 -10.795  16.864  0.00  0.00    +0.115 A 
ATOM     22  C   UNL     1      -5.901 -10.238  16.894  0.00  0.00    +0.077 A 
ATOM     23  C   UNL     1      -6.624 -10.325  18.079  0.00  0.00    +0.124 A 
ATOM     24  C   UNL     1      -4.787 -11.483  19.051  0.00  0.00    +0.115 A 
ATOM     25  C   UNL     1      -6.063 -10.958  19.182  0.00  0.00    +0.065 A 
BRANCH  23   2
ATOM      2  O   UNL     1      -7.874  -9.794  18.158  0.00  0.00    -0.490 OA
BRANCH   2  26
ATOM     26  C   UNL     1      -8.277  -8.921  17.103  0.00  0.00    +0.257 C 
BRANCH  26  27
ATOM     27  C   UNL     1      -9.746  -8.584  17.275  0.00  0.00    +0.200 C 
BRANCH  27   3
ATOM      3  O   UNL     1     -10.289  -8.221  16.012  0.00  0.00    -0.380 OA
ATOM     28  C   UNL     1     -10.377  -6.809  15.870  0.00  0.00    +0.194 C 
ENDBRANCH  27   3
ENDBRANCH  26  27
ENDBRANCH   2  26
ENDBRANCH  23   2
ENDBRANCH  20  21
BRANCH  18  10
ATOM      4  N   UNL     1      -4.091  -9.578  11.550  0.00  0.00    -0.288 NA
ATOM     10  C   UNL     1      -3.275 -10.654  12.147  0.00  0.00    +0.146 C 
ATOM     11  C   UNL     1      -3.429  -9.202  10.301  0.00  0.00    +0.085 C 
ATOM     14  C   UNL     1      -1.847 -10.394  11.634  0.00  0.00    +0.030 C 
ATOM     15  C   UNL     1      -1.970  -9.190  10.710  0.00  0.00    +0.017 C 
BRANCH   4   9
ATOM      5  N   UNL     1      -7.700 -10.506   9.508  0.00  0.00    -0.305 NA
ATOM      9  C   UNL     1      -5.485  -9.960  11.340  0.00  0.00    +0.060 C 
ATOM     12  C   UNL     1      -5.565 -11.247  10.515  0.00  0.00    +0.034 C 
ATOM     13  C   UNL     1      -6.260  -8.841  10.639  0.00  0.00    +0.034 C 
ATOM     16  C   UNL     1      -7.018 -11.609  10.200  0.00  0.00    +0.085 C 
ATOM     17  C   UNL     1      -7.691  -9.281  10.320  0.00  0.00    +0.085 C 
ATOM     19  C   UNL     1      -9.072 -10.885   9.170  0.00  0.00    +0.104 C 
ENDBRANCH   4   9
ENDBRANCH  18  10
TORSDOF 7
ENDMDL
MODEL 7
REMARK VINA RESULT:      -5.9     27.236     29.601
REMARK  Name = 45783447
REMARK  9 active torsions:
REMARK  status: ('A' for Active; 'I' for Inactive)
REMARK    1  A    between atoms: O_2  and  C_23
REMARK    2  A    between atoms: O_2  and  C_26
REMARK    3  A    between atoms: O_3  and  C_27
REMARK    4  A    between atoms: O_3  and  C_28
REMARK    5  A    between atoms: N_4  and  C_9
REMARK    6  A    between atoms: N_5  and  C_19
REMARK    7  A    between atoms: C_10  and  C_18
REMARK    8  A    between atoms: C_20  and  C_21
REMARK    9  A    between atoms: C_26  and  C_27
REMARK                            x       y       z     vdW  Elec       q    Type
REMARK                         _______ _______ _______ _____ _____    ______ ____
ROOT
ATOM      1  O   UNL     1      -4.062 -10.888  17.360  0.00  0.00    -0.336 OA
ATOM      6  N   UNL     1      -5.257 -10.160  15.611  0.00  0.00    -0.189 NA
ATOM      7  N   UNL     1      -3.244 -11.051  16.235  0.00  0.00    -0.054 NA
ATOM     18  C   UNL     1      -5.228 -10.359  16.905  0.00  0.00    +0.245 A 
ATOM     20  C   UNL     1      -4.019 -10.600  15.244  0.00  0.00    +0.221 A 
ENDROOT
BRANCH  20  21
ATOM      8  N   UNL     1      -2.247 -10.549  13.688  0.00  0.00    -0.252 NA
ATOM     21  C   UNL     1      -3.586 -10.575  13.877  0.00  0.00    +0.115 A 
ATOM     22  C   UNL     1      -4.514 -10.579  12.849  0.00  0.00    +0.077 A 
ATOM     23  C   UNL     1      -4.039 -10.555  11.542  0.00  0.00    +0.124 A 
ATOM     24  C   UNL     1      -1.822 -10.526  12.404  0.00  0.00    +0.115 A 
ATOM     25  C   UNL     1      -2.669 -10.528  11.307  0.00  0.00    +0.065 A 
BRANCH  23   2
ATOM      2  O   UNL     1      -4.911 -10.558  10.497  0.00  0.00    -0.490 OA
BRANCH   2  26
ATOM     26  C   UNL     1      -4.354 -10.468   9.186  0.00  0.00    +0.257 C 
BRANCH  26  27
ATOM     27  C   UNL     1      -5.232  -9.568   8.337  0.00  0.00    +0.200 C 
BRANCH  27   3
ATOM      3  O   UNL     1      -5.708  -8.494   9.139  0.00  0.00    -0.380 OA
ATOM     28  C   UNL     1      -7.078  -8.219   8.880  0.00  0.00    +0.194 C 
ENDBRANCH  27   3
ENDBRANCH  26  27
ENDBRANCH   2  26
ENDBRANCH  23   2
ENDBRANCH  20  21
BRANCH  18  10
ATOM      4  N   UNL     1      -7.646 -10.461  17.482  0.00  0.00    -0.288 NA
ATOM     10  C   UNL     1      -6.295 -10.083  17.942  0.00  0.00    +0.146 C 
ATOM     11  C   UNL     1      -8.405 -10.823  18.679  0.00  0.00    +0.085 C 
ATOM     14  C   UNL     1      -6.085 -10.884  19.241  0.00  0.00    +0.030 C 
ATOM     15  C   UNL     1      -7.391 -11.635  19.461  0.00  0.00    +0.017 C 
BRANCH   4   9
ATOM      5  N   UNL     1     -10.748  -8.305  15.535  0.00  0.00    -0.305 NA
ATOM      9  C   UNL     1      -8.307  -9.413  16.709  0.00  0.00    +0.060 C 
ATOM     12  C   UNL     1      -9.382  -8.727  17.555  0.00  0.00    +0.034 C 
ATOM     13  C   UNL     1      -8.932  -9.985  15.433  0.00  0.00    +0.034 C 
ATOM     16  C   UNL     1     -10.152  -7.693  16.731  0.00  0.00    +0.085 C 
ATOM     17  C   UNL     1      -9.718  -8.910  14.678  0.00  0.00    +0.085 C 
ATOM     19  C   UNL     1     -11.521  -7.317  14.785  0.00  0.00    +0.104 C 
ENDBRANCH   4   9
ENDBRANCH  18  10
TORSDOF 7
ENDMDL
MODEL 8
REMARK VINA RESULT:      -5.9      2.673      3.838
REMARK  Name = 45783447
REMARK  9 active torsions:
REMARK  status: ('A' for Active; 'I' for Inactive)
REMARK    1  A    between atoms: O_2  and  C_23
REMARK    2  A    between atoms: O_2  and  C_26
REMARK    3  A    between atoms: O_3  and  C_27
REMARK    4  A    between atoms: O_3  and  C_28
REMARK    5  A    between atoms: N_4  and  C_9
REMARK    6  A    between atoms: N_5  and  C_19
REMARK    7  A    between atoms: C_10  and  C_18
REMARK    8  A    between atoms: C_20  and  C_21
REMARK    9  A    between atoms: C_26  and  C_27
REMARK                            x       y       z     vdW  Elec       q    Type
REMARK                         _______ _______ _______ _____ _____    ______ ____
ROOT
ATOM      1  O   UNL     1      14.295   8.725  20.167  0.00  0.00    -0.336 OA
ATOM      6  N   UNL     1      15.320   7.797  21.930  0.00  0.00    -0.189 NA
ATOM      7  N   UNL     1      15.645   8.604  19.814  0.00  0.00    -0.054 NA
ATOM     18  C   UNL     1      14.190   8.227  21.427  0.00  0.00    +0.245 A 
ATOM     20  C   UNL     1      16.183   8.050  20.904  0.00  0.00    +0.221 A 
ENDROOT
BRANCH  20  21
ATOM      8  N   UNL     1      18.364   8.709  21.516  0.00  0.00    -0.252 NA
ATOM     21  C   UNL     1      17.579   7.735  21.000  0.00  0.00    +0.115 A 
ATOM     22  C   UNL     1      18.049   6.500  20.583  0.00  0.00    +0.077 A 
ATOM     23  C   UNL     1      19.411   6.248  20.700  0.00  0.00    +0.124 A 
ATOM     24  C   UNL     1      19.683   8.428  21.614  0.00  0.00    +0.115 A 
ATOM     25  C   UNL     1      20.251   7.224  21.224  0.00  0.00    +0.065 A 
BRANCH  23   2
ATOM      2  O   UNL     1      19.921   5.051  20.303  0.00  0.00    -0.490 OA
BRANCH   2  26
ATOM     26  C   UNL     1      21.328   4.863  20.450  0.00  0.00    +0.257 C 
BRANCH  26  27
ATOM     27  C   UNL     1      21.579   3.563  21.190  0.00  0.00    +0.200 C 
BRANCH  27   3
ATOM      3  O   UNL     1      22.979   3.313  21.226  0.00  0.00    -0.380 OA
ATOM     28  C   UNL     1      23.360   2.666  22.433  0.00  0.00    +0.194 C 
ENDBRANCH  27   3
ENDBRANCH  26  27
ENDBRANCH   2  26
ENDBRANCH  23   2
ENDBRANCH  20  21
BRANCH  18  10
ATOM      4  N   UNL     1      12.038   9.451  21.688  0.00  0.00    -0.288 NA
ATOM     10  C   UNL     1      12.809   8.243  22.047  0.00  0.00    +0.146 C 
ATOM     11  C   UNL     1      10.628   9.062  21.706  0.00  0.00    +0.085 C 
ATOM     14  C   UNL     1      11.932   7.066  21.579  0.00  0.00    +0.030 C 
ATOM     15  C   UNL     1      10.667   7.707  21.027  0.00  0.00    +0.017 C 
BRANCH   4   9
ATOM      5  N   UNL     1      11.459  13.146  23.705  0.00  0.00    -0.305 NA
ATOM      9  C   UNL     1      12.306  10.587  22.565  0.00  0.00    +0.060 C 
ATOM     12  C   UNL     1      11.234  10.682  23.654  0.00  0.00    +0.034 C 
ATOM     13  C   UNL     1      12.359  11.894  21.769  0.00  0.00    +0.034 C 
ATOM     16  C   UNL     1      11.442  11.924  24.523  0.00  0.00    +0.085 C 
ATOM     17  C   UNL     1      12.530  13.097  22.699  0.00  0.00    +0.085 C 
ATOM     19  C   UNL     1      11.609  14.327  24.554  0.00  0.00    +0.104 C 
ENDBRANCH   4   9
ENDBRANCH  18  10
TORSDOF 7
ENDMDL
MODEL 9
REMARK VINA RESULT:      -5.8     26.646     29.670
REMARK  Name = 45783447
REMARK  9 active torsions:
REMARK  status: ('A' for Active; 'I' for Inactive)
REMARK    1  A    between atoms: O_2  and  C_23
REMARK    2  A    between atoms: O_2  and  C_26
REMARK    3  A    between atoms: O_3  and  C_27
REMARK    4  A    between atoms: O_3  and  C_28
REMARK    5  A    between atoms: N_4  and  C_9
REMARK    6  A    between atoms: N_5  and  C_19
REMARK    7  A    between atoms: C_10  and  C_18
REMARK    8  A    between atoms: C_20  and  C_21
REMARK    9  A    between atoms: C_26  and  C_27
REMARK                            x       y       z     vdW  Elec       q    Type
REMARK                         _______ _______ _______ _____ _____    ______ ____
ROOT
ATOM      1  O   UNL     1      -7.402 -11.707  16.327  0.00  0.00    -0.336 OA
ATOM      6  N   UNL     1      -6.020 -10.010  16.807  0.00  0.00    -0.189 NA
ATOM      7  N   UNL     1      -6.214 -11.962  15.630  0.00  0.00    -0.054 NA
ATOM     18  C   UNL     1      -7.203 -10.539  16.994  0.00  0.00    +0.245 A 
ATOM     20  C   UNL     1      -5.450 -10.918  15.964  0.00  0.00    +0.221 A 
ENDROOT
BRANCH  20  21
ATOM      8  N   UNL     1      -3.154 -10.622  16.417  0.00  0.00    -0.252 NA
ATOM     21  C   UNL     1      -4.113 -10.752  15.472  0.00  0.00    +0.115 A 
ATOM     22  C   UNL     1      -3.865 -10.735  14.109  0.00  0.00    +0.077 A 
ATOM     23  C   UNL     1      -2.550 -10.572  13.688  0.00  0.00    +0.124 A 
ATOM     24  C   UNL     1      -1.888 -10.466  15.970  0.00  0.00    +0.115 A 
ATOM     25  C   UNL     1      -1.537 -10.434  14.629  0.00  0.00    +0.065 A 
BRANCH  23   2
ATOM      2  O   UNL     1      -2.256 -10.548  12.360  0.00  0.00    -0.490 OA
BRANCH   2  26
ATOM     26  C   UNL     1      -3.325 -10.249  11.462  0.00  0.00    +0.257 C 
BRANCH  26  27
ATOM     27  C   UNL     1      -2.829  -9.278  10.408  0.00  0.00    +0.200 C 
BRANCH  27   3
ATOM      3  O   UNL     1      -3.735  -9.282   9.312  0.00  0.00    -0.380 OA
ATOM     28  C   UNL     1      -4.889  -8.501   9.588  0.00  0.00    +0.194 C 
ENDBRANCH  27   3
ENDBRANCH  26  27
ENDBRANCH   2  26
ENDBRANCH  23   2
ENDBRANCH  20  21
BRANCH  18  10
ATOM      4  N   UNL     1      -9.653 -10.122  17.134  0.00  0.00    -0.288 NA
ATOM     10  C   UNL     1      -8.357 -10.038  17.836  0.00  0.00    +0.146 C 
ATOM     11  C   UNL     1     -10.672 -10.308  18.167  0.00  0.00    +0.085 C 
ATOM     14  C   UNL     1      -8.555 -10.859  19.124  0.00  0.00    +0.030 C 
ATOM     15  C   UNL     1     -10.007 -11.313  19.086  0.00  0.00    +0.017 C 
BRANCH   4   9
ATOM      5  N   UNL     1     -11.813  -6.946  15.318  0.00  0.00    -0.305 NA
ATOM      9  C   UNL     1      -9.930  -8.962  16.292  0.00  0.00    +0.060 C 
ATOM     12  C   UNL     1     -10.374  -7.776  17.151  0.00  0.00    +0.034 C 
ATOM     13  C   UNL     1     -11.005  -9.284  15.250  0.00  0.00    +0.034 C 
ATOM     16  C   UNL     1     -10.763  -6.580  16.279  0.00  0.00    +0.085 C 
ATOM     17  C   UNL     1     -11.374  -8.039  14.440  0.00  0.00    +0.085 C 
ATOM     19  C   UNL     1     -12.210  -5.782  14.526  0.00  0.00    +0.104 C 
ENDBRANCH   4   9
ENDBRANCH  18  10
TORSDOF 7
ENDMDL
MODEL 10
REMARK VINA RESULT:      -5.7     27.393     30.888
REMARK  Name = 45783447
REMARK  9 active torsions:
REMARK  status: ('A' for Active; 'I' for Inactive)
REMARK    1  A    between atoms: O_2  and  C_23
REMARK    2  A    between atoms: O_2  and  C_26
REMARK    3  A    between atoms: O_3  and  C_27
REMARK    4  A    between atoms: O_3  and  C_28
REMARK    5  A    between atoms: N_4  and  C_9
REMARK    6  A    between atoms: N_5  and  C_19
REMARK    7  A    between atoms: C_10  and  C_18
REMARK    8  A    between atoms: C_20  and  C_21
REMARK    9  A    between atoms: C_26  and  C_27
REMARK                            x       y       z     vdW  Elec       q    Type
REMARK                         _______ _______ _______ _____ _____    ______ ____
ROOT
ATOM      1  O   UNL     1     -13.430   5.096  22.164  0.00  0.00    -0.336 OA
ATOM      6  N   UNL     1     -14.289   7.111  21.695  0.00  0.00    -0.189 NA
ATOM      7  N   UNL     1     -12.407   5.818  21.536  0.00  0.00    -0.054 NA
ATOM     18  C   UNL     1     -14.502   5.929  22.218  0.00  0.00    +0.245 A 
ATOM     20  C   UNL     1     -12.991   6.995  21.291  0.00  0.00    +0.221 A 
ENDROOT
BRANCH  20  21
ATOM      8  N   UNL     1     -12.486   9.297  21.195  0.00  0.00    -0.252 NA
ATOM     21  C   UNL     1     -12.305   8.076  20.643  0.00  0.00    +0.115 A 
ATOM     22  C   UNL     1     -11.518   7.837  19.528  0.00  0.00    +0.077 A 
ATOM     23  C   UNL     1     -10.875   8.921  18.940  0.00  0.00    +0.124 A 
ATOM     24  C   UNL     1     -11.845  10.327  20.596  0.00  0.00    +0.115 A 
ATOM     25  C   UNL     1     -11.037  10.193  19.478  0.00  0.00    +0.065 A 
BRANCH  23   2
ATOM      2  O   UNL     1     -10.091   8.738  17.843  0.00  0.00    -0.490 OA
BRANCH   2  26
ATOM     26  C   UNL     1     -10.015   9.817  16.912  0.00  0.00    +0.257 C 
BRANCH  26  27
ATOM     27  C   UNL     1     -10.676   9.397  15.613  0.00  0.00    +0.200 C 
BRANCH  27   3
ATOM      3  O   UNL     1     -10.475   8.003  15.420  0.00  0.00    -0.380 OA
ATOM     28  C   UNL     1     -10.454   7.667  14.040  0.00  0.00    +0.194 C 
ENDBRANCH  27   3
ENDBRANCH  26  27
ENDBRANCH   2  26
ENDBRANCH  23   2
ENDBRANCH  20  21
BRANCH  18  10
ATOM      4  N   UNL     1     -16.474   4.429  21.987  0.00  0.00    -0.288 NA
ATOM     10  C   UNL     1     -15.755   5.377  22.862  0.00  0.00    +0.146 C 
ATOM     11  C   UNL     1     -17.162   3.490  22.872  0.00  0.00    +0.085 C 
ATOM     14  C   UNL     1     -15.463   4.580  24.147  0.00  0.00    +0.030 C 
ATOM     15  C   UNL     1     -16.106   3.218  23.925  0.00  0.00    +0.017 C 
BRANCH   4   9
ATOM      5  N   UNL     1     -18.034   7.353  19.327  0.00  0.00    -0.305 NA
ATOM      9  C   UNL     1     -17.392   5.083  21.059  0.00  0.00    +0.060 C 
ATOM     12  C   UNL     1     -16.716   5.292  19.701  0.00  0.00    +0.034 C 
ATOM     13  C   UNL     1     -17.871   6.426  21.617  0.00  0.00    +0.034 C 
ATOM     16  C   UNL     1     -17.628   6.065  18.746  0.00  0.00    +0.085 C 
ATOM     17  C   UNL     1     -18.745   7.163  20.599  0.00  0.00    +0.085 C 
ATOM     19  C   UNL     1     -18.864   8.101  18.384  0.00  0.00    +0.104 C 
ENDBRANCH   4   9
ENDBRANCH  18  10
TORSDOF 7
ENDMDL
