MODEL 1
REMARK VINA RESULT:      -7.3      0.000      0.000
REMARK  Name = 45783698
REMARK  7 active torsions:
REMARK  status: ('A' for Active; 'I' for Inactive)
REMARK    1  A    between atoms: O_4  and  C_27
REMARK    2  A    between atoms: O_4  and  C_28
REMARK    3  A    between atoms: N_5  and  C_14
REMARK    4  A    between atoms: N_8  and  C_22
REMARK    5  A    between atoms: C_10  and  C_15
REMARK    6  A    between atoms: C_14  and  C_16
REMARK    7  A    between atoms: C_19  and  C_23
REMARK                            x       y       z     vdW  Elec       q    Type
REMARK                         _______ _______ _______ _____ _____    ______ ____
ROOT
ATOM      5  N   UNL     1      12.597   8.516  18.716  0.00  0.00    -0.287 NA
ATOM     10  C   UNL     1      13.702   7.680  18.203  0.00  0.00    +0.146 C 
ATOM     11  C   UNL     1      13.921   8.165  16.759  0.00  0.00    +0.030 C 
ATOM     12  C   UNL     1      12.856   9.228  16.530  0.00  0.00    +0.017 C 
ATOM     13  C   UNL     1      11.791   8.893  17.555  0.00  0.00    +0.085 C 
ENDROOT
BRANCH  10  15
ATOM      1  O   UNL     1      15.134   8.956  19.717  0.00  0.00    -0.336 OA
ATOM      6  N   UNL     1      15.901   6.905  19.243  0.00  0.00    -0.190 NA
ATOM      7  N   UNL     1      16.339   8.817  20.421  0.00  0.00    -0.056 NA
ATOM     15  C   UNL     1      14.952   7.785  19.051  0.00  0.00    +0.245 A 
ATOM     19  C   UNL     1      16.730   7.584  20.090  0.00  0.00    +0.204 A 
BRANCH  19  23
ATOM      9  N   UNL     1      19.698   6.986  22.249  0.00  0.00    -0.221 NA
ATOM     23  C   UNL     1      17.940   6.997  20.589  0.00  0.00    +0.041 A 
ATOM     24  C   UNL     1      18.532   5.917  19.944  0.00  0.00    +0.018 A 
ATOM     25  C   UNL     1      18.557   7.491  21.728  0.00  0.00    +0.126 A 
ATOM     26  C   UNL     1      19.706   5.370  20.451  0.00  0.00    +0.068 A 
ATOM     27  C   UNL     1      20.243   5.937  21.596  0.00  0.00    +0.214 A 
BRANCH  27   4
ATOM      4  O   UNL     1      21.400   5.416  22.114  0.00  0.00    -0.480 OA
ATOM     28  C   UNL     1      22.164   4.576  21.256  0.00  0.00    +0.279 C 
ENDBRANCH  27   4
ENDBRANCH  19  23
ENDBRANCH  10  15
BRANCH   5  14
ATOM     14  C   UNL     1      11.803   7.853  19.743  0.00  0.00    +0.120 C 
BRANCH  14  16
ATOM     16  C   UNL     1      11.539   8.756  20.918  0.00  0.00    -0.033 A 
ATOM     17  C   UNL     1      12.021  10.065  20.915  0.00  0.00    +0.007 A 
ATOM     18  C   UNL     1      10.812   8.282  22.011  0.00  0.00    +0.007 A 
ATOM     20  C   UNL     1      11.776  10.901  22.005  0.00  0.00    +0.033 A 
ATOM     21  C   UNL     1      10.568   9.119  23.100  0.00  0.00    +0.033 A 
ATOM     22  C   UNL     1      11.050  10.428  23.098  0.00  0.00    +0.126 A 
BRANCH  22   8
ATOM      2  O   UNL     1      10.120  12.318  24.035  0.00  0.00    -0.126 OA
ATOM      3  O   UNL     1      11.270  10.968  25.328  0.00  0.00    -0.126 OA
ATOM      8  N   UNL     1      10.802  11.278  24.207  0.00  0.00    +0.056 N 
ENDBRANCH  22   8
ENDBRANCH  14  16
ENDBRANCH   5  14
TORSDOF 6
ENDMDL
MODEL 2
REMARK VINA RESULT:      -6.7     30.863     32.813
REMARK  Name = 45783698
REMARK  7 active torsions:
REMARK  status: ('A' for Active; 'I' for Inactive)
REMARK    1  A    between atoms: O_4  and  C_27
REMARK    2  A    between atoms: O_4  and  C_28
REMARK    3  A    between atoms: N_5  and  C_14
REMARK    4  A    between atoms: N_8  and  C_22
REMARK    5  A    between atoms: C_10  and  C_15
REMARK    6  A    between atoms: C_14  and  C_16
REMARK    7  A    between atoms: C_19  and  C_23
REMARK                            x       y       z     vdW  Elec       q    Type
REMARK                         _______ _______ _______ _____ _____    ______ ____
ROOT
ATOM      5  N   UNL     1     -14.522   5.435  33.172  0.00  0.00    -0.287 NA
ATOM     10  C   UNL     1     -15.968   5.680  32.995  0.00  0.00    +0.146 C 
ATOM     11  C   UNL     1     -16.120   7.209  33.096  0.00  0.00    +0.030 C 
ATOM     12  C   UNL     1     -14.721   7.730  33.391  0.00  0.00    +0.017 C 
ATOM     13  C   UNL     1     -14.015   6.533  33.995  0.00  0.00    +0.085 C 
ENDROOT
BRANCH  10  15
ATOM      1  O   UNL     1     -17.647   4.403  31.761  0.00  0.00    -0.336 OA
ATOM      6  N   UNL     1     -16.007   5.235  30.481  0.00  0.00    -0.190 NA
ATOM      7  N   UNL     1     -17.933   4.001  30.449  0.00  0.00    -0.056 NA
ATOM     15  C   UNL     1     -16.497   5.125  31.690  0.00  0.00    +0.245 A 
ATOM     19  C   UNL     1     -16.922   4.530  29.754  0.00  0.00    +0.204 A 
BRANCH  19  23
ATOM      9  N   UNL     1     -17.221   5.238  26.116  0.00  0.00    -0.221 NA
ATOM     23  C   UNL     1     -16.796   4.374  28.334  0.00  0.00    +0.041 A 
ATOM     24  C   UNL     1     -16.161   3.264  27.789  0.00  0.00    +0.018 A 
ATOM     25  C   UNL     1     -17.305   5.324  27.463  0.00  0.00    +0.126 A 
ATOM     26  C   UNL     1     -16.055   3.140  26.407  0.00  0.00    +0.068 A 
ATOM     27  C   UNL     1     -16.597   4.146  25.623  0.00  0.00    +0.214 A 
BRANCH  27   4
ATOM      4  O   UNL     1     -16.505   4.046  24.259  0.00  0.00    -0.480 OA
ATOM     28  C   UNL     1     -15.373   4.653  23.647  0.00  0.00    +0.279 C 
ENDBRANCH  27   4
ENDBRANCH  19  23
ENDBRANCH  10  15
BRANCH   5  14
ATOM     14  C   UNL     1     -14.227   4.131  33.754  0.00  0.00    +0.120 C 
BRANCH  14  16
ATOM     16  C   UNL     1     -14.191   3.047  32.710  0.00  0.00    -0.033 A 
ATOM     17  C   UNL     1     -13.484   3.242  31.525  0.00  0.00    +0.007 A 
ATOM     18  C   UNL     1     -14.866   1.846  32.931  0.00  0.00    +0.007 A 
ATOM     20  C   UNL     1     -13.451   2.237  30.558  0.00  0.00    +0.033 A 
ATOM     21  C   UNL     1     -14.834   0.841  31.964  0.00  0.00    +0.033 A 
ATOM     22  C   UNL     1     -14.127   1.036  30.777  0.00  0.00    +0.126 A 
BRANCH  22   8
ATOM      2  O   UNL     1     -15.039  -0.072  28.973  0.00  0.00    -0.126 OA
ATOM      3  O   UNL     1     -13.121  -0.778  29.772  0.00  0.00    -0.126 OA
ATOM      8  N   UNL     1     -14.094   0.013  29.793  0.00  0.00    +0.056 N 
ENDBRANCH  22   8
ENDBRANCH  14  16
ENDBRANCH   5  14
TORSDOF 6
ENDMDL
MODEL 3
REMARK VINA RESULT:      -6.7     26.463     30.767
REMARK  Name = 45783698
REMARK  7 active torsions:
REMARK  status: ('A' for Active; 'I' for Inactive)
REMARK    1  A    between atoms: O_4  and  C_27
REMARK    2  A    between atoms: O_4  and  C_28
REMARK    3  A    between atoms: N_5  and  C_14
REMARK    4  A    between atoms: N_8  and  C_22
REMARK    5  A    between atoms: C_10  and  C_15
REMARK    6  A    between atoms: C_14  and  C_16
REMARK    7  A    between atoms: C_19  and  C_23
REMARK                            x       y       z     vdW  Elec       q    Type
REMARK                         _______ _______ _______ _____ _____    ______ ____
ROOT
ATOM      5  N   UNL     1     -15.460   5.448  21.928  0.00  0.00    -0.287 NA
ATOM     10  C   UNL     1     -16.723   5.166  22.638  0.00  0.00    +0.146 C 
ATOM     11  C   UNL     1     -17.731   4.830  21.524  0.00  0.00    +0.030 C 
ATOM     12  C   UNL     1     -16.961   5.010  20.223  0.00  0.00    +0.017 C 
ATOM     13  C   UNL     1     -15.832   5.946  20.604  0.00  0.00    +0.085 C 
ENDROOT
BRANCH  10  15
ATOM      1  O   UNL     1     -16.541   2.786  23.162  0.00  0.00    -0.336 OA
ATOM      6  N   UNL     1     -16.495   4.124  24.958  0.00  0.00    -0.190 NA
ATOM      7  N   UNL     1     -16.411   1.942  24.274  0.00  0.00    -0.056 NA
ATOM     15  C   UNL     1     -16.583   4.052  23.655  0.00  0.00    +0.245 A 
ATOM     19  C   UNL     1     -16.390   2.804  25.294  0.00  0.00    +0.204 A 
BRANCH  19  23
ATOM      9  N   UNL     1     -16.455   0.618  28.301  0.00  0.00    -0.221 NA
ATOM     23  C   UNL     1     -16.266   2.383  26.659  0.00  0.00    +0.041 A 
ATOM     24  C   UNL     1     -15.857   3.270  27.648  0.00  0.00    +0.018 A 
ATOM     25  C   UNL     1     -16.551   1.079  27.034  0.00  0.00    +0.126 A 
ATOM     26  C   UNL     1     -15.746   2.833  28.964  0.00  0.00    +0.068 A 
ATOM     27  C   UNL     1     -16.055   1.509  29.235  0.00  0.00    +0.214 A 
BRANCH  27   4
ATOM      4  O   UNL     1     -15.954   1.054  30.524  0.00  0.00    -0.480 OA
ATOM     28  C   UNL     1     -15.131  -0.086  30.738  0.00  0.00    +0.279 C 
ENDBRANCH  27   4
ENDBRANCH  19  23
ENDBRANCH  10  15
BRANCH   5  14
ATOM     14  C   UNL     1     -14.595   6.381  22.641  0.00  0.00    +0.120 C 
BRANCH  14  16
ATOM     16  C   UNL     1     -13.587   7.022  21.727  0.00  0.00    -0.033 A 
ATOM     17  C   UNL     1     -13.708   8.370  21.389  0.00  0.00    +0.007 A 
ATOM     18  C   UNL     1     -12.530   6.268  21.217  0.00  0.00    +0.007 A 
ATOM     20  C   UNL     1     -12.773   8.964  20.541  0.00  0.00    +0.033 A 
ATOM     21  C   UNL     1     -11.595   6.862  20.369  0.00  0.00    +0.033 A 
ATOM     22  C   UNL     1     -11.717   8.210  20.030  0.00  0.00    +0.126 A 
BRANCH  22   8
ATOM      2  O   UNL     1     -10.086   9.780  19.592  0.00  0.00    -0.126 OA
ATOM      3  O   UNL     1     -10.631   8.367  18.003  0.00  0.00    -0.126 OA
ATOM      8  N   UNL     1     -10.766   8.815  19.167  0.00  0.00    +0.056 N 
ENDBRANCH  22   8
ENDBRANCH  14  16
ENDBRANCH   5  14
TORSDOF 6
ENDMDL
MODEL 4
REMARK VINA RESULT:      -6.6      3.569      5.491
REMARK  Name = 45783698
REMARK  7 active torsions:
REMARK  status: ('A' for Active; 'I' for Inactive)
REMARK    1  A    between atoms: O_4  and  C_27
REMARK    2  A    between atoms: O_4  and  C_28
REMARK    3  A    between atoms: N_5  and  C_14
REMARK    4  A    between atoms: N_8  and  C_22
REMARK    5  A    between atoms: C_10  and  C_15
REMARK    6  A    between atoms: C_14  and  C_16
REMARK    7  A    between atoms: C_19  and  C_23
REMARK                            x       y       z     vdW  Elec       q    Type
REMARK                         _______ _______ _______ _____ _____    ______ ____
ROOT
ATOM      5  N   UNL     1      16.578   7.516  21.544  0.00  0.00    -0.287 NA
ATOM     10  C   UNL     1      17.828   7.810  20.814  0.00  0.00    +0.146 C 
ATOM     11  C   UNL     1      18.060   9.316  21.030  0.00  0.00    +0.030 C 
ATOM     12  C   UNL     1      16.862   9.793  21.838  0.00  0.00    +0.017 C 
ATOM     13  C   UNL     1      15.798   8.754  21.546  0.00  0.00    +0.085 C 
ENDROOT
BRANCH  10  15
ATOM      1  O   UNL     1      19.224   6.953  22.627  0.00  0.00    -0.336 OA
ATOM      6  N   UNL     1      19.823   6.232  20.593  0.00  0.00    -0.190 NA
ATOM      7  N   UNL     1      20.331   6.116  22.820  0.00  0.00    -0.056 NA
ATOM     15  C   UNL     1      18.991   6.965  21.288  0.00  0.00    +0.245 A 
ATOM     19  C   UNL     1      20.626   5.731  21.576  0.00  0.00    +0.204 A 
BRANCH  19  23
ATOM      9  N   UNL     1      23.812   4.461  20.138  0.00  0.00    -0.221 NA
ATOM     23  C   UNL     1      21.715   4.845  21.279  0.00  0.00    +0.041 A 
ATOM     24  C   UNL     1      21.757   3.559  21.805  0.00  0.00    +0.018 A 
ATOM     25  C   UNL     1      22.758   5.245  20.458  0.00  0.00    +0.126 A 
ATOM     26  C   UNL     1      22.825   2.723  21.499  0.00  0.00    +0.068 A 
ATOM     27  C   UNL     1      23.818   3.218  20.668  0.00  0.00    +0.214 A 
BRANCH  27   4
ATOM      4  O   UNL     1      24.881   2.413  20.351  0.00  0.00    -0.480 OA
ATOM     28  C   UNL     1      25.950   2.365  21.289  0.00  0.00    +0.279 C 
ENDBRANCH  27   4
ENDBRANCH  19  23
ENDBRANCH  10  15
BRANCH   5  14
ATOM     14  C   UNL     1      15.832   6.398  20.979  0.00  0.00    +0.120 C 
BRANCH  14  16
ATOM     16  C   UNL     1      14.844   6.853  19.938  0.00  0.00    -0.033 A 
ATOM     17  C   UNL     1      15.274   7.123  18.639  0.00  0.00    +0.007 A 
ATOM     18  C   UNL     1      13.498   7.003  20.273  0.00  0.00    +0.007 A 
ATOM     20  C   UNL     1      14.359   7.545  17.674  0.00  0.00    +0.033 A 
ATOM     21  C   UNL     1      12.583   7.424  19.308  0.00  0.00    +0.033 A 
ATOM     22  C   UNL     1      13.013   7.696  18.009  0.00  0.00    +0.126 A 
BRANCH  22   8
ATOM      2  O   UNL     1      10.886   7.755  17.121  0.00  0.00    -0.126 OA
ATOM      3  O   UNL     1      12.479   8.862  16.094  0.00  0.00    -0.126 OA
ATOM      8  N   UNL     1      12.081   8.125  17.027  0.00  0.00    +0.056 N 
ENDBRANCH  22   8
ENDBRANCH  14  16
ENDBRANCH   5  14
TORSDOF 6
ENDMDL
MODEL 5
REMARK VINA RESULT:      -6.4     15.809     19.373
REMARK  Name = 45783698
REMARK  7 active torsions:
REMARK  status: ('A' for Active; 'I' for Inactive)
REMARK    1  A    between atoms: O_4  and  C_27
REMARK    2  A    between atoms: O_4  and  C_28
REMARK    3  A    between atoms: N_5  and  C_14
REMARK    4  A    between atoms: N_8  and  C_22
REMARK    5  A    between atoms: C_10  and  C_15
REMARK    6  A    between atoms: C_14  and  C_16
REMARK    7  A    between atoms: C_19  and  C_23
REMARK                            x       y       z     vdW  Elec       q    Type
REMARK                         _______ _______ _______ _____ _____    ______ ____
ROOT
ATOM      5  N   UNL     1      10.806   7.243   4.409  0.00  0.00    -0.287 NA
ATOM     10  C   UNL     1      10.890   7.666   2.996  0.00  0.00    +0.146 C 
ATOM     11  C   UNL     1      12.064   8.661   2.955  0.00  0.00    +0.030 C 
ATOM     12  C   UNL     1      12.536   8.780   4.397  0.00  0.00    +0.017 C 
ATOM     13  C   UNL     1      11.326   8.355   5.205  0.00  0.00    +0.085 C 
ENDROOT
BRANCH  10  15
ATOM      1  O   UNL     1      11.836   5.467   2.507  0.00  0.00    -0.336 OA
ATOM      6  N   UNL     1      10.619   6.330   0.837  0.00  0.00    -0.190 NA
ATOM      7  N   UNL     1      11.868   4.522   1.472  0.00  0.00    -0.056 NA
ATOM     15  C   UNL     1      11.080   6.499   2.050  0.00  0.00    +0.245 A 
ATOM     19  C   UNL     1      11.129   5.103   0.524  0.00  0.00    +0.204 A 
BRANCH  19  23
ATOM      9  N   UNL     1       9.496   4.316  -2.723  0.00  0.00    -0.221 NA
ATOM     23  C   UNL     1      10.878   4.485  -0.746  0.00  0.00    +0.041 A 
ATOM     24  C   UNL     1      11.718   3.494  -1.240  0.00  0.00    +0.018 A 
ATOM     25  C   UNL     1       9.789   4.858  -1.520  0.00  0.00    +0.126 A 
ATOM     26  C   UNL     1      11.449   2.913  -2.475  0.00  0.00    +0.068 A 
ATOM     27  C   UNL     1      10.335   3.357  -3.170  0.00  0.00    +0.214 A 
BRANCH  27   4
ATOM      4  O   UNL     1      10.048   2.799  -4.389  0.00  0.00    -0.480 OA
ATOM     28  C   UNL     1       9.535   3.673  -5.388  0.00  0.00    +0.279 C 
ENDBRANCH  27   4
ENDBRANCH  19  23
ENDBRANCH  10  15
BRANCH   5  14
ATOM     14  C   UNL     1       9.460   6.859   4.815  0.00  0.00    +0.120 C 
BRANCH  14  16
ATOM     16  C   UNL     1       9.430   6.320   6.220  0.00  0.00    -0.033 A 
ATOM     17  C   UNL     1       9.854   5.016   6.476  0.00  0.00    +0.007 A 
ATOM     18  C   UNL     1       8.979   7.125   7.266  0.00  0.00    +0.007 A 
ATOM     20  C   UNL     1       9.826   4.516   7.778  0.00  0.00    +0.033 A 
ATOM     21  C   UNL     1       8.951   6.625   8.568  0.00  0.00    +0.033 A 
ATOM     22  C   UNL     1       9.373   5.321   8.824  0.00  0.00    +0.126 A 
BRANCH  22   8
ATOM      2  O   UNL     1      10.427   4.655  10.764  0.00  0.00    -0.126 OA
ATOM      3  O   UNL     1       8.237   4.533  10.669  0.00  0.00    -0.126 OA
ATOM      8  N   UNL     1       9.344   4.812  10.149  0.00  0.00    +0.056 N 
ENDBRANCH  22   8
ENDBRANCH  14  16
ENDBRANCH   5  14
TORSDOF 6
ENDMDL
MODEL 6
REMARK VINA RESULT:      -6.4     27.206     29.039
REMARK  Name = 45783698
REMARK  7 active torsions:
REMARK  status: ('A' for Active; 'I' for Inactive)
REMARK    1  A    between atoms: O_4  and  C_27
REMARK    2  A    between atoms: O_4  and  C_28
REMARK    3  A    between atoms: N_5  and  C_14
REMARK    4  A    between atoms: N_8  and  C_22
REMARK    5  A    between atoms: C_10  and  C_15
REMARK    6  A    between atoms: C_14  and  C_16
REMARK    7  A    between atoms: C_19  and  C_23
REMARK                            x       y       z     vdW  Elec       q    Type
REMARK                         _______ _______ _______ _____ _____    ______ ____
ROOT
ATOM      5  N   UNL     1      -3.489 -11.813  14.089  0.00  0.00    -0.287 NA
ATOM     10  C   UNL     1      -2.576 -11.862  12.928  0.00  0.00    +0.146 C 
ATOM     11  C   UNL     1      -2.531 -13.348  12.529  0.00  0.00    +0.030 C 
ATOM     12  C   UNL     1      -3.396 -14.063  13.557  0.00  0.00    +0.017 C 
ATOM     13  C   UNL     1      -3.396 -13.119  14.742  0.00  0.00    +0.085 C 
ENDROOT
BRANCH  10  15
ATOM      1  O   UNL     1      -2.160  -9.995  11.407  0.00  0.00    -0.336 OA
ATOM      6  N   UNL     1      -4.150 -10.981  11.121  0.00  0.00    -0.190 NA
ATOM      7  N   UNL     1      -2.790  -9.306  10.362  0.00  0.00    -0.056 NA
ATOM     15  C   UNL     1      -3.029 -10.965  11.795  0.00  0.00    +0.245 A 
ATOM     19  C   UNL     1      -3.957  -9.945  10.252  0.00  0.00    +0.204 A 
BRANCH  19  23
ATOM      9  N   UNL     1      -6.877  -8.229   8.717  0.00  0.00    -0.221 NA
ATOM     23  C   UNL     1      -4.952  -9.577   9.287  0.00  0.00    +0.041 A 
ATOM     24  C   UNL     1      -4.985 -10.169   8.030  0.00  0.00    +0.018 A 
ATOM     25  C   UNL     1      -5.913  -8.621   9.580  0.00  0.00    +0.126 A 
ATOM     26  C   UNL     1      -5.963  -9.792   7.115  0.00  0.00    +0.068 A 
ATOM     27  C   UNL     1      -6.877  -8.826   7.505  0.00  0.00    +0.214 A 
BRANCH  27   4
ATOM      4  O   UNL     1      -7.850  -8.439   6.621  0.00  0.00    -0.480 OA
ATOM     28  C   UNL     1      -8.347  -7.112   6.758  0.00  0.00    +0.279 C 
ENDBRANCH  27   4
ENDBRANCH  19  23
ENDBRANCH  10  15
BRANCH   5  14
ATOM     14  C   UNL     1      -3.195 -10.719  15.006  0.00  0.00    +0.120 C 
BRANCH  14  16
ATOM     16  C   UNL     1      -4.033 -10.793  16.254  0.00  0.00    -0.033 A 
ATOM     17  C   UNL     1      -5.339 -10.304  16.247  0.00  0.00    +0.007 A 
ATOM     18  C   UNL     1      -3.502 -11.350  17.417  0.00  0.00    +0.007 A 
ATOM     20  C   UNL     1      -6.115 -10.372  17.405  0.00  0.00    +0.033 A 
ATOM     21  C   UNL     1      -4.279 -11.418  18.575  0.00  0.00    +0.033 A 
ATOM     22  C   UNL     1      -5.585 -10.929  18.569  0.00  0.00    +0.126 A 
BRANCH  22   8
ATOM      2  O   UNL     1      -5.815 -11.252  20.840  0.00  0.00    -0.126 OA
ATOM      3  O   UNL     1      -7.611 -10.804  19.661  0.00  0.00    -0.126 OA
ATOM      8  N   UNL     1      -6.375 -10.998  19.746  0.00  0.00    +0.056 N 
ENDBRANCH  22   8
ENDBRANCH  14  16
ENDBRANCH   5  14
TORSDOF 6
ENDMDL
MODEL 7
REMARK VINA RESULT:      -6.3     14.405     17.432
REMARK  Name = 45783698
REMARK  7 active torsions:
REMARK  status: ('A' for Active; 'I' for Inactive)
REMARK    1  A    between atoms: O_4  and  C_27
REMARK    2  A    between atoms: O_4  and  C_28
REMARK    3  A    between atoms: N_5  and  C_14
REMARK    4  A    between atoms: N_8  and  C_22
REMARK    5  A    between atoms: C_10  and  C_15
REMARK    6  A    between atoms: C_14  and  C_16
REMARK    7  A    between atoms: C_19  and  C_23
REMARK                            x       y       z     vdW  Elec       q    Type
REMARK                         _______ _______ _______ _____ _____    ______ ____
ROOT
ATOM      5  N   UNL     1       9.901   6.632   5.508  0.00  0.00    -0.287 NA
ATOM     10  C   UNL     1      10.581   7.726   6.231  0.00  0.00    +0.146 C 
ATOM     11  C   UNL     1       9.956   7.712   7.638  0.00  0.00    +0.030 C 
ATOM     12  C   UNL     1       8.895   6.622   7.592  0.00  0.00    +0.017 C 
ATOM     13  C   UNL     1       8.577   6.496   6.116  0.00  0.00    +0.085 C 
ENDROOT
BRANCH  10  15
ATOM      1  O   UNL     1      12.584   6.723   7.208  0.00  0.00    -0.336 OA
ATOM      6  N   UNL     1      12.996   8.105   5.494  0.00  0.00    -0.190 NA
ATOM      7  N   UNL     1      13.975   6.730   7.038  0.00  0.00    -0.056 NA
ATOM     15  C   UNL     1      12.086   7.558   6.258  0.00  0.00    +0.245 A 
ATOM     19  C   UNL     1      14.140   7.567   6.010  0.00  0.00    +0.204 A 
BRANCH  19  23
ATOM      9  N   UNL     1      16.928   7.916   3.575  0.00  0.00    -0.221 NA
ATOM     23  C   UNL     1      15.431   7.886   5.474  0.00  0.00    +0.041 A 
ATOM     24  C   UNL     1      16.419   8.452   6.271  0.00  0.00    +0.018 A 
ATOM     25  C   UNL     1      15.733   7.639   4.143  0.00  0.00    +0.126 A 
ATOM     26  C   UNL     1      17.662   8.750   5.723  0.00  0.00    +0.068 A 
ATOM     27  C   UNL     1      17.863   8.465   4.381  0.00  0.00    +0.214 A 
BRANCH  27   4
ATOM      4  O   UNL     1      19.080   8.749   3.818  0.00  0.00    -0.480 OA
ATOM     28  C   UNL     1      20.033   7.693   3.787  0.00  0.00    +0.279 C 
ENDBRANCH  27   4
ENDBRANCH  19  23
ENDBRANCH  10  15
BRANCH   5  14
ATOM     14  C   UNL     1       9.824   6.855   4.070  0.00  0.00    +0.120 C 
BRANCH  14  16
ATOM     16  C   UNL     1      10.766   5.958   3.312  0.00  0.00    -0.033 A 
ATOM     17  C   UNL     1      10.534   4.584   3.263  0.00  0.00    +0.007 A 
ATOM     18  C   UNL     1      11.873   6.502   2.659  0.00  0.00    +0.007 A 
ATOM     20  C   UNL     1      11.408   3.753   2.561  0.00  0.00    +0.033 A 
ATOM     21  C   UNL     1      12.746   5.671   1.957  0.00  0.00    +0.033 A 
ATOM     22  C   UNL     1      12.515   4.297   1.909  0.00  0.00    +0.126 A 
BRANCH  22   8
ATOM      2  O   UNL     1      13.116   3.120   0.020  0.00  0.00    -0.126 OA
ATOM      3  O   UNL     1      14.453   3.058   1.759  0.00  0.00    -0.126 OA
ATOM      8  N   UNL     1      13.404   3.451   1.195  0.00  0.00    +0.056 N 
ENDBRANCH  22   8
ENDBRANCH  14  16
ENDBRANCH   5  14
TORSDOF 6
ENDMDL
MODEL 8
REMARK VINA RESULT:      -6.3     26.643     29.365
REMARK  Name = 45783698
REMARK  7 active torsions:
REMARK  status: ('A' for Active; 'I' for Inactive)
REMARK    1  A    between atoms: O_4  and  C_27
REMARK    2  A    between atoms: O_4  and  C_28
REMARK    3  A    between atoms: N_5  and  C_14
REMARK    4  A    between atoms: N_8  and  C_22
REMARK    5  A    between atoms: C_10  and  C_15
REMARK    6  A    between atoms: C_14  and  C_16
REMARK    7  A    between atoms: C_19  and  C_23
REMARK                            x       y       z     vdW  Elec       q    Type
REMARK                         _______ _______ _______ _____ _____    ______ ____
ROOT
ATOM      5  N   UNL     1      -3.161 -10.660  14.401  0.00  0.00    -0.287 NA
ATOM     10  C   UNL     1      -3.006 -11.260  15.741  0.00  0.00    +0.146 C 
ATOM     11  C   UNL     1      -1.712 -10.641  16.300  0.00  0.00    +0.030 C 
ATOM     12  C   UNL     1      -1.179  -9.756  15.182  0.00  0.00    +0.017 C 
ATOM     13  C   UNL     1      -1.812 -10.338  13.934  0.00  0.00    +0.085 C 
ENDROOT
BRANCH  10  15
ATOM      1  O   UNL     1      -4.032 -11.251  17.959  0.00  0.00    -0.336 OA
ATOM      6  N   UNL     1      -5.404 -10.595  16.313  0.00  0.00    -0.190 NA
ATOM      7  N   UNL     1      -5.259 -10.954  18.568  0.00  0.00    -0.056 NA
ATOM     15  C   UNL     1      -4.205 -11.011  16.632  0.00  0.00    +0.245 A 
ATOM     19  C   UNL     1      -6.015 -10.575  17.534  0.00  0.00    +0.204 A 
BRANCH  19  23
ATOM      9  N   UNL     1      -9.519 -10.474  18.775  0.00  0.00    -0.221 NA
ATOM     23  C   UNL     1      -7.382 -10.170  17.684  0.00  0.00    +0.041 A 
ATOM     24  C   UNL     1      -7.908  -9.127  16.930  0.00  0.00    +0.018 A 
ATOM     25  C   UNL     1      -8.222 -10.806  18.586  0.00  0.00    +0.126 A 
ATOM     26  C   UNL     1      -9.238  -8.757  17.097  0.00  0.00    +0.068 A 
ATOM     27  C   UNL     1      -9.994  -9.457  18.024  0.00  0.00    +0.214 A 
BRANCH  27   4
ATOM      4  O   UNL     1     -11.308  -9.111  18.206  0.00  0.00    -0.480 OA
ATOM     28  C   UNL     1     -12.009  -9.787  19.243  0.00  0.00    +0.279 C 
ENDBRANCH  27   4
ENDBRANCH  19  23
ENDBRANCH  10  15
BRANCH   5  14
ATOM     14  C   UNL     1      -3.875 -11.519  13.464  0.00  0.00    +0.120 C 
BRANCH  14  16
ATOM     16  C   UNL     1      -4.731 -10.725  12.515  0.00  0.00    -0.033 A 
ATOM     17  C   UNL     1      -4.446 -10.728  11.149  0.00  0.00    +0.007 A 
ATOM     18  C   UNL     1      -5.809  -9.986  13.001  0.00  0.00    +0.007 A 
ATOM     20  C   UNL     1      -5.239  -9.991  10.270  0.00  0.00    +0.033 A 
ATOM     21  C   UNL     1      -6.603  -9.250  12.121  0.00  0.00    +0.033 A 
ATOM     22  C   UNL     1      -6.318  -9.251  10.755  0.00  0.00    +0.126 A 
BRANCH  22   8
ATOM      2  O   UNL     1      -6.567  -7.771   9.005  0.00  0.00    -0.126 OA
ATOM      3  O   UNL     1      -8.373  -8.589   9.948  0.00  0.00    -0.126 OA
ATOM      8  N   UNL     1      -7.125  -8.501   9.860  0.00  0.00    +0.056 N 
ENDBRANCH  22   8
ENDBRANCH  14  16
ENDBRANCH   5  14
TORSDOF 6
ENDMDL
MODEL 9
REMARK VINA RESULT:      -6.1     27.779     29.975
REMARK  Name = 45783698
REMARK  7 active torsions:
REMARK  status: ('A' for Active; 'I' for Inactive)
REMARK    1  A    between atoms: O_4  and  C_27
REMARK    2  A    between atoms: O_4  and  C_28
REMARK    3  A    between atoms: N_5  and  C_14
REMARK    4  A    between atoms: N_8  and  C_22
REMARK    5  A    between atoms: C_10  and  C_15
REMARK    6  A    between atoms: C_14  and  C_16
REMARK    7  A    between atoms: C_19  and  C_23
REMARK                            x       y       z     vdW  Elec       q    Type
REMARK                         _______ _______ _______ _____ _____    ______ ____
ROOT
ATOM      5  N   UNL     1     -10.162 -11.860  19.013  0.00  0.00    -0.287 NA
ATOM     10  C   UNL     1      -8.947 -12.310  19.723  0.00  0.00    +0.146 C 
ATOM     11  C   UNL     1      -8.958 -13.843  19.582  0.00  0.00    +0.030 C 
ATOM     12  C   UNL     1     -10.245 -14.165  18.835  0.00  0.00    +0.017 C 
ATOM     13  C   UNL     1     -11.123 -12.960  19.101  0.00  0.00    +0.085 C 
ENDROOT
BRANCH  10  15
ATOM      1  O   UNL     1      -7.041 -10.804  19.986  0.00  0.00    -0.336 OA
ATOM      6  N   UNL     1      -7.110 -11.855  18.009  0.00  0.00    -0.190 NA
ATOM      7  N   UNL     1      -5.921 -10.361  19.269  0.00  0.00    -0.056 NA
ATOM     15  C   UNL     1      -7.685 -11.681  19.171  0.00  0.00    +0.245 A 
ATOM     19  C   UNL     1      -6.032 -11.025  18.115  0.00  0.00    +0.204 A 
BRANCH  19  23
ATOM      9  N   UNL     1      -4.655 -10.435  14.711  0.00  0.00    -0.221 NA
ATOM     23  C   UNL     1      -5.083 -10.884  17.049  0.00  0.00    +0.041 A 
ATOM     24  C   UNL     1      -3.722 -11.048  17.274  0.00  0.00    +0.018 A 
ATOM     25  C   UNL     1      -5.496 -10.581  15.760  0.00  0.00    +0.126 A 
ATOM     26  C   UNL     1      -2.825 -10.905  16.220  0.00  0.00    +0.068 A 
ATOM     27  C   UNL     1      -3.340 -10.602  14.969  0.00  0.00    +0.214 A 
BRANCH  27   4
ATOM      4  O   UNL     1      -2.477 -10.457  13.914  0.00  0.00    -0.480 OA
ATOM     28  C   UNL     1      -2.937 -10.906  12.645  0.00  0.00    +0.279 C 
ENDBRANCH  27   4
ENDBRANCH  19  23
ENDBRANCH  10  15
BRANCH   5  14
ATOM     14  C   UNL     1     -10.706 -10.613  19.538  0.00  0.00    +0.120 C 
BRANCH  14  16
ATOM     16  C   UNL     1     -10.935  -9.599  18.450  0.00  0.00    -0.033 A 
ATOM     17  C   UNL     1     -12.221  -9.382  17.957  0.00  0.00    +0.007 A 
ATOM     18  C   UNL     1      -9.859  -8.876  17.934  0.00  0.00    +0.007 A 
ATOM     20  C   UNL     1     -12.432  -8.442  16.948  0.00  0.00    +0.033 A 
ATOM     21  C   UNL     1     -10.070  -7.936  16.925  0.00  0.00    +0.033 A 
ATOM     22  C   UNL     1     -11.357  -7.719  16.432  0.00  0.00    +0.126 A 
BRANCH  22   8
ATOM      2  O   UNL     1     -12.574  -6.886  14.659  0.00  0.00    -0.126 OA
ATOM      3  O   UNL     1     -10.754  -5.821  15.270  0.00  0.00    -0.126 OA
ATOM      8  N   UNL     1     -11.572  -6.763  15.404  0.00  0.00    +0.056 N 
ENDBRANCH  22   8
ENDBRANCH  14  16
ENDBRANCH   5  14
TORSDOF 6
ENDMDL
MODEL 10
REMARK VINA RESULT:      -6.1     15.439     18.978
REMARK  Name = 45783698
REMARK  7 active torsions:
REMARK  status: ('A' for Active; 'I' for Inactive)
REMARK    1  A    between atoms: O_4  and  C_27
REMARK    2  A    between atoms: O_4  and  C_28
REMARK    3  A    between atoms: N_5  and  C_14
REMARK    4  A    between atoms: N_8  and  C_22
REMARK    5  A    between atoms: C_10  and  C_15
REMARK    6  A    between atoms: C_14  and  C_16
REMARK    7  A    between atoms: C_19  and  C_23
REMARK                            x       y       z     vdW  Elec       q    Type
REMARK                         _______ _______ _______ _____ _____    ______ ____
ROOT
ATOM      5  N   UNL     1       9.465   7.648   6.387  0.00  0.00    -0.287 NA
ATOM     10  C   UNL     1      10.596   6.701   6.474  0.00  0.00    +0.146 C 
ATOM     11  C   UNL     1      10.415   5.999   7.832  0.00  0.00    +0.030 C 
ATOM     12  C   UNL     1       9.196   6.659   8.461  0.00  0.00    +0.017 C 
ATOM     13  C   UNL     1       9.115   8.001   7.763  0.00  0.00    +0.085 C 
ENDROOT
BRANCH  10  15
ATOM      1  O   UNL     1      10.159   4.479   5.558  0.00  0.00    -0.336 OA
ATOM      6  N   UNL     1      11.057   5.913   4.090  0.00  0.00    -0.190 NA
ATOM      7  N   UNL     1      10.293   3.773   4.354  0.00  0.00    -0.056 NA
ATOM     15  C   UNL     1      10.632   5.729   5.314  0.00  0.00    +0.245 A 
ATOM     19  C   UNL     1      10.829   4.685   3.539  0.00  0.00    +0.204 A 
BRANCH  19  23
ATOM      9  N   UNL     1      10.451   4.363  -0.147  0.00  0.00    -0.221 NA
ATOM     23  C   UNL     1      11.147   4.404   2.169  0.00  0.00    +0.041 A 
ATOM     24  C   UNL     1      12.398   3.917   1.809  0.00  0.00    +0.018 A 
ATOM     25  C   UNL     1      10.216   4.607   1.162  0.00  0.00    +0.126 A 
ATOM     26  C   UNL     1      12.678   3.653   0.472  0.00  0.00    +0.068 A 
ATOM     27  C   UNL     1      11.678   3.891  -0.458  0.00  0.00    +0.214 A 
BRANCH  27   4
ATOM      4  O   UNL     1      11.929   3.638  -1.781  0.00  0.00    -0.480 OA
ATOM     28  C   UNL     1      12.037   2.271  -2.162  0.00  0.00    +0.279 C 
ENDBRANCH  27   4
ENDBRANCH  19  23
ENDBRANCH  10  15
BRANCH   5  14
ATOM     14  C   UNL     1       9.760   8.823   5.577  0.00  0.00    +0.120 C 
BRANCH  14  16
ATOM     16  C   UNL     1       8.618   9.175   4.663  0.00  0.00    -0.033 A 
ATOM     17  C   UNL     1       8.549   8.619   3.385  0.00  0.00    +0.007 A 
ATOM     18  C   UNL     1       7.627  10.057   5.094  0.00  0.00    +0.007 A 
ATOM     20  C   UNL     1       7.490   8.946   2.538  0.00  0.00    +0.033 A 
ATOM     21  C   UNL     1       6.568  10.384   4.246  0.00  0.00    +0.033 A 
ATOM     22  C   UNL     1       6.499   9.829   2.968  0.00  0.00    +0.126 A 
BRANCH  22   8
ATOM      2  O   UNL     1       4.271   9.744   2.381  0.00  0.00    -0.126 OA
ATOM      3  O   UNL     1       5.650  10.865   1.092  0.00  0.00    -0.126 OA
ATOM      8  N   UNL     1       5.422  10.162   2.106  0.00  0.00    +0.056 N 
ENDBRANCH  22   8
ENDBRANCH  14  16
ENDBRANCH   5  14
TORSDOF 6
ENDMDL
