MODEL 1
REMARK VINA RESULT:      -7.3      0.000      0.000
REMARK  Name = 28962742
REMARK  8 active torsions:
REMARK  status: ('A' for Active; 'I' for Inactive)
REMARK    1  A    between atoms: O_1  and  C_9
REMARK    2  A    between atoms: N_4  and  C_13
REMARK    3  A    between atoms: C_6  and  C_16
REMARK    4  A    between atoms: C_8  and  C_18
REMARK    5  A    between atoms: C_11  and  C_17
REMARK    6  A    between atoms: C_17  and  C_19
REMARK    7  A    between atoms: C_17  and  C_20
REMARK    8  A    between atoms: C_21  and  C_22
REMARK                            x       y       z     vdW  Elec       q    Type
REMARK                         _______ _______ _______ _____ _____    ______ ____
ROOT
ATOM      6  C   UNL     1      -3.697 -10.562  10.467  0.00  0.00    -0.027 C 
ATOM      7  C   UNL     1      -5.016 -10.245  11.248  0.00  0.00    +0.028 C 
ATOM      8  C   UNL     1      -5.798  -9.063  10.570  0.00  0.00    +0.012 C 
ATOM      9  C   UNL     1      -4.742 -10.079  12.770  0.00  0.00    +0.122 C 
ATOM     10  C   UNL     1      -3.012 -11.800  11.092  0.00  0.00    +0.007 C 
ATOM     11  C   UNL     1      -3.964 -11.273  13.368  0.00  0.00    +0.029 C 
ATOM     12  C   UNL     1      -4.052 -10.909   9.002  0.00  0.00    +0.009 C 
ATOM     13  C   UNL     1      -6.082  -9.392   9.077  0.00  0.00    +0.076 C 
ATOM     14  C   UNL     1      -2.707 -11.625  12.574  0.00  0.00    +0.007 C 
ATOM     15  C   UNL     1      -4.834  -9.810   8.299  0.00  0.00    +0.023 C 
ATOM     16  C   UNL     1      -2.698  -9.378  10.483  0.00  0.00    +0.011 C 
ATOM     18  C   UNL     1      -7.122  -8.718  11.273  0.00  0.00    +0.010 C 
ENDROOT
BRANCH  13   4
ATOM      3  O   UNL     1      -8.169  -9.498   7.062  0.00  0.00    -0.276 OA
ATOM      4  N   UNL     1      -6.698  -8.277   8.391  0.00  0.00    -0.312 N 
ATOM     21  C   UNL     1      -7.692  -8.432   7.440  0.00  0.00    +0.216 C 
ATOM     32  H   UNL     1      -6.342  -7.346   8.589  0.00  0.00    +0.149 HD
BRANCH  21  22
ATOM     22  C   UNL     1      -8.172  -7.114   6.905  0.00  0.00    +0.075 C 
ATOM     25  C   UNL     1      -9.385  -7.302   5.991  0.00  0.00    +0.013 C 
ATOM     26  C   UNL     1      -8.444  -6.145   8.058  0.00  0.00    +0.013 C 
ATOM     29  C   UNL     1     -10.682  -7.574   6.751  0.00  0.00    +0.001 C 
ATOM     30  C   UNL     1      -9.745  -6.446   8.798  0.00  0.00    +0.001 C 
ATOM     31  C   UNL     1     -10.929  -6.540   7.843  0.00  0.00    +0.000 C 
ENDBRANCH  21  22
ENDBRANCH  13   4
BRANCH   9   1
ATOM      1  O   UNL     1      -5.984 -10.007  13.473  0.00  0.00    -0.391 OA
ATOM     33  H   UNL     1      -5.921 -10.579  14.257  0.00  0.00    +0.210 HD
ENDBRANCH   9   1
BRANCH  11  17
ATOM     17  C   UNL     1      -3.591 -11.032  14.837  0.00  0.00    +0.078 C 
ATOM     19  C   UNL     1      -2.087 -10.923  15.009  0.00  0.00    +0.017 C 
BRANCH  17  20
ATOM      2  O   UNL     1      -4.034 -13.334  15.259  0.00  0.00    -0.275 OA
ATOM      5  N   UNL     1      -4.711 -11.818  16.865  0.00  0.00    -0.301 N 
ATOM     20  C   UNL     1      -4.126 -12.174  15.664  0.00  0.00    +0.219 C 
ATOM     23  C   UNL     1      -5.280 -12.801  17.774  0.00  0.00    +0.108 C 
ATOM     24  C   UNL     1      -4.848 -10.466  17.402  0.00  0.00    +0.108 C 
ATOM     27  C   UNL     1      -5.502 -12.037  19.071  0.00  0.00    +0.020 C 
ATOM     28  C   UNL     1      -5.794 -10.623  18.585  0.00  0.00    +0.020 C 
ENDBRANCH  17  20
ENDBRANCH  11  17
TORSDOF 5
ENDMDL
MODEL 2
REMARK VINA RESULT:      -7.0     29.139     32.659
REMARK  Name = 28962742
REMARK  8 active torsions:
REMARK  status: ('A' for Active; 'I' for Inactive)
REMARK    1  A    between atoms: O_1  and  C_9
REMARK    2  A    between atoms: N_4  and  C_13
REMARK    3  A    between atoms: C_6  and  C_16
REMARK    4  A    between atoms: C_8  and  C_18
REMARK    5  A    between atoms: C_11  and  C_17
REMARK    6  A    between atoms: C_17  and  C_19
REMARK    7  A    between atoms: C_17  and  C_20
REMARK    8  A    between atoms: C_21  and  C_22
REMARK                            x       y       z     vdW  Elec       q    Type
REMARK                         _______ _______ _______ _____ _____    ______ ____
ROOT
ATOM      6  C   UNL     1      20.559   7.754  21.977  0.00  0.00    -0.027 C 
ATOM      7  C   UNL     1      19.651   6.614  21.408  0.00  0.00    +0.028 C 
ATOM      8  C   UNL     1      20.514   5.525  20.673  0.00  0.00    +0.012 C 
ATOM      9  C   UNL     1      18.467   7.195  20.584  0.00  0.00    +0.122 C 
ATOM     10  C   UNL     1      19.693   8.745  22.790  0.00  0.00    +0.007 C 
ATOM     11  C   UNL     1      17.667   8.263  21.365  0.00  0.00    +0.029 C 
ATOM     12  C   UNL     1      21.597   7.136  22.943  0.00  0.00    +0.009 C 
ATOM     13  C   UNL     1      21.604   4.966  21.631  0.00  0.00    +0.076 C 
ATOM     14  C   UNL     1      18.555   9.347  21.974  0.00  0.00    +0.007 C 
ATOM     15  C   UNL     1      22.448   6.054  22.293  0.00  0.00    +0.023 C 
ATOM     16  C   UNL     1      21.300   8.536  20.864  0.00  0.00    +0.011 C 
ATOM     18  C   UNL     1      19.685   4.358  20.112  0.00  0.00    +0.010 C 
ENDROOT
BRANCH  13   4
ATOM      3  O   UNL     1      22.829   2.571  22.723  0.00  0.00    -0.276 OA
ATOM      4  N   UNL     1      22.491   4.045  20.953  0.00  0.00    -0.312 N 
ATOM     21  C   UNL     1      23.027   2.925  21.564  0.00  0.00    +0.216 C 
ATOM     32  H   UNL     1      22.765   4.270  20.001  0.00  0.00    +0.149 HD
BRANCH  21  22
ATOM     22  C   UNL     1      23.893   2.132  20.630  0.00  0.00    +0.075 C 
ATOM     25  C   UNL     1      24.803   3.049  19.811  0.00  0.00    +0.013 C 
ATOM     26  C   UNL     1      24.671   1.068  21.409  0.00  0.00    +0.013 C 
ATOM     29  C   UNL     1      25.992   3.591  20.603  0.00  0.00    +0.001 C 
ATOM     30  C   UNL     1      25.848   1.642  22.192  0.00  0.00    +0.001 C 
ATOM     31  C   UNL     1      26.762   2.479  21.305  0.00  0.00    +0.000 C 
ENDBRANCH  21  22
ENDBRANCH  13   4
BRANCH   9   1
ATOM      1  O   UNL     1      17.548   6.148  20.265  0.00  0.00    -0.391 OA
ATOM     33  H   UNL     1      16.986   5.993  21.043  0.00  0.00    +0.210 HD
ENDBRANCH   9   1
BRANCH  11  17
ATOM     17  C   UNL     1      16.587   8.917  20.492  0.00  0.00    +0.078 C 
ATOM     19  C   UNL     1      16.751  10.425  20.457  0.00  0.00    +0.017 C 
BRANCH  17  20
ATOM      2  O   UNL     1      15.046   8.533  22.266  0.00  0.00    -0.275 OA
ATOM      5  N   UNL     1      14.263   8.256  20.111  0.00  0.00    -0.301 N 
ATOM     20  C   UNL     1      15.233   8.555  21.049  0.00  0.00    +0.219 C 
ATOM     23  C   UNL     1      12.908   7.882  20.487  0.00  0.00    +0.108 C 
ATOM     24  C   UNL     1      14.420   8.267  18.659  0.00  0.00    +0.108 C 
ATOM     27  C   UNL     1      12.117   7.966  19.190  0.00  0.00    +0.020 C 
ATOM     28  C   UNL     1      13.154   7.602  18.136  0.00  0.00    +0.020 C 
ENDBRANCH  17  20
ENDBRANCH  11  17
TORSDOF 5
ENDMDL
MODEL 3
REMARK VINA RESULT:      -6.9      1.712      8.787
REMARK  Name = 28962742
REMARK  8 active torsions:
REMARK  status: ('A' for Active; 'I' for Inactive)
REMARK    1  A    between atoms: O_1  and  C_9
REMARK    2  A    between atoms: N_4  and  C_13
REMARK    3  A    between atoms: C_6  and  C_16
REMARK    4  A    between atoms: C_8  and  C_18
REMARK    5  A    between atoms: C_11  and  C_17
REMARK    6  A    between atoms: C_17  and  C_19
REMARK    7  A    between atoms: C_17  and  C_20
REMARK    8  A    between atoms: C_21  and  C_22
REMARK                            x       y       z     vdW  Elec       q    Type
REMARK                         _______ _______ _______ _____ _____    ______ ____
ROOT
ATOM      6  C   UNL     1      -3.912 -10.193  10.929  0.00  0.00    -0.027 C 
ATOM      7  C   UNL     1      -5.189  -9.747  11.716  0.00  0.00    +0.028 C 
ATOM      8  C   UNL     1      -5.410 -10.650  12.983  0.00  0.00    +0.012 C 
ATOM      9  C   UNL     1      -6.416  -9.612  10.770  0.00  0.00    +0.122 C 
ATOM     10  C   UNL     1      -3.661  -9.215   9.757  0.00  0.00    +0.007 C 
ATOM     11  C   UNL     1      -6.125  -8.716   9.544  0.00  0.00    +0.029 C 
ATOM     12  C   UNL     1      -2.689 -10.121  11.873  0.00  0.00    +0.009 C 
ATOM     13  C   UNL     1      -4.144 -10.630  13.886  0.00  0.00    +0.076 C 
ATOM     14  C   UNL     1      -4.847  -9.110   8.806  0.00  0.00    +0.007 C 
ATOM     15  C   UNL     1      -2.855 -10.958  13.133  0.00  0.00    +0.023 C 
ATOM     16  C   UNL     1      -4.035 -11.629  10.362  0.00  0.00    +0.011 C 
ATOM     18  C   UNL     1      -6.636 -10.248  13.820  0.00  0.00    +0.010 C 
ENDROOT
BRANCH  13   4
ATOM      3  O   UNL     1      -4.079  -9.976  16.714  0.00  0.00    -0.276 OA
ATOM      4  N   UNL     1      -4.268 -11.543  15.002  0.00  0.00    -0.312 N 
ATOM     21  C   UNL     1      -4.224 -11.131  16.322  0.00  0.00    +0.216 C 
ATOM     32  H   UNL     1      -4.340 -12.534  14.793  0.00  0.00    +0.149 HD
BRANCH  21  22
ATOM     22  C   UNL     1      -4.401 -12.275  17.277  0.00  0.00    +0.075 C 
ATOM     25  C   UNL     1      -4.320 -11.796  18.729  0.00  0.00    +0.013 C 
ATOM     26  C   UNL     1      -5.704 -13.019  16.972  0.00  0.00    +0.013 C 
ATOM     29  C   UNL     1      -5.582 -11.079  19.204  0.00  0.00    +0.001 C 
ATOM     30  C   UNL     1      -6.946 -12.275  17.456  0.00  0.00    +0.001 C 
ATOM     31  C   UNL     1      -6.839 -11.897  18.929  0.00  0.00    +0.000 C 
ENDBRANCH  21  22
ENDBRANCH  13   4
BRANCH   9   1
ATOM      1  O   UNL     1      -7.498  -9.001  11.475  0.00  0.00    -0.391 OA
ATOM     33  H   UNL     1      -8.152  -9.690  11.681  0.00  0.00    +0.210 HD
ENDBRANCH   9   1
BRANCH  11  17
ATOM     17  C   UNL     1      -7.301  -8.701   8.558  0.00  0.00    +0.078 C 
ATOM     19  C   UNL     1      -6.872  -9.189   7.187  0.00  0.00    +0.017 C 
BRANCH  17  20
ATOM      2  O   UNL     1      -7.100  -6.373   8.096  0.00  0.00    -0.275 OA
ATOM      5  N   UNL     1      -9.159  -7.131   8.819  0.00  0.00    -0.301 N 
ATOM     20  C   UNL     1      -7.833  -7.293   8.464  0.00  0.00    +0.219 C 
ATOM     23  C   UNL     1      -9.819  -5.835   8.789  0.00  0.00    +0.108 C 
ATOM     24  C   UNL     1     -10.078  -8.177   9.259  0.00  0.00    +0.108 C 
ATOM     27  C   UNL     1     -11.299  -6.158   8.925  0.00  0.00    +0.020 C 
ATOM     28  C   UNL     1     -11.293  -7.420   9.778  0.00  0.00    +0.020 C 
ENDBRANCH  17  20
ENDBRANCH  11  17
TORSDOF 5
ENDMDL
MODEL 4
REMARK VINA RESULT:      -6.7      3.404      8.772
REMARK  Name = 28962742
REMARK  8 active torsions:
REMARK  status: ('A' for Active; 'I' for Inactive)
REMARK    1  A    between atoms: O_1  and  C_9
REMARK    2  A    between atoms: N_4  and  C_13
REMARK    3  A    between atoms: C_6  and  C_16
REMARK    4  A    between atoms: C_8  and  C_18
REMARK    5  A    between atoms: C_11  and  C_17
REMARK    6  A    between atoms: C_17  and  C_19
REMARK    7  A    between atoms: C_17  and  C_20
REMARK    8  A    between atoms: C_21  and  C_22
REMARK                            x       y       z     vdW  Elec       q    Type
REMARK                         _______ _______ _______ _____ _____    ______ ____
ROOT
ATOM      6  C   UNL     1      -4.780 -11.342  17.384  0.00  0.00    -0.027 C 
ATOM      7  C   UNL     1      -5.813 -10.626  16.452  0.00  0.00    +0.028 C 
ATOM      8  C   UNL     1      -7.263 -10.714  17.051  0.00  0.00    +0.012 C 
ATOM      9  C   UNL     1      -5.669 -11.105  14.979  0.00  0.00    +0.122 C 
ATOM     10  C   UNL     1      -3.352 -11.139  16.825  0.00  0.00    +0.007 C 
ATOM     11  C   UNL     1      -4.217 -10.998  14.458  0.00  0.00    +0.029 C 
ATOM     12  C   UNL     1      -4.832 -10.692  18.787  0.00  0.00    +0.009 C 
ATOM     13  C   UNL     1      -7.287 -10.127  18.490  0.00  0.00    +0.076 C 
ATOM     14  C   UNL     1      -3.197 -11.643  15.395  0.00  0.00    +0.007 C 
ATOM     15  C   UNL     1      -6.221 -10.724  19.409  0.00  0.00    +0.023 C 
ATOM     16  C   UNL     1      -5.052 -12.862  17.516  0.00  0.00    +0.011 C 
ATOM     18  C   UNL     1      -8.326 -10.004  16.197  0.00  0.00    +0.010 C 
ENDROOT
BRANCH  13   4
ATOM      3  O   UNL     1      -8.585 -12.624  19.207  0.00  0.00    -0.276 OA
ATOM      4  N   UNL     1      -8.580 -10.297  19.117  0.00  0.00    -0.312 N 
ATOM     21  C   UNL     1      -9.115 -11.536  19.420  0.00  0.00    +0.216 C 
ATOM     32  H   UNL     1      -9.131  -9.462  19.292  0.00  0.00    +0.149 HD
BRANCH  21  22
ATOM     22  C   UNL     1     -10.455 -11.426  20.087  0.00  0.00    +0.075 C 
ATOM     25  C   UNL     1     -11.008 -10.003  19.978  0.00  0.00    +0.013 C 
ATOM     26  C   UNL     1     -11.413 -12.478  19.522  0.00  0.00    +0.013 C 
ATOM     29  C   UNL     1     -11.564  -9.672  18.594  0.00  0.00    +0.001 C 
ATOM     30  C   UNL     1     -11.947 -12.119  18.138  0.00  0.00    +0.001 C 
ATOM     31  C   UNL     1     -12.558 -10.723  18.113  0.00  0.00    +0.000 C 
ENDBRANCH  21  22
ENDBRANCH  13   4
BRANCH   9   1
ATOM      1  O   UNL     1      -6.470 -10.282  14.129  0.00  0.00    -0.391 OA
ATOM     33  H   UNL     1      -6.410 -10.634  13.225  0.00  0.00    +0.210 HD
ENDBRANCH   9   1
BRANCH  11  17
ATOM     17  C   UNL     1      -4.071 -11.595  13.052  0.00  0.00    +0.078 C 
ATOM     19  C   UNL     1      -3.476 -12.990  13.110  0.00  0.00    +0.017 C 
BRANCH  17  20
ATOM      2  O   UNL     1      -1.984 -10.597  12.485  0.00  0.00    -0.275 OA
ATOM      5  N   UNL     1      -3.821  -9.992  11.221  0.00  0.00    -0.301 N 
ATOM     20  C   UNL     1      -3.186 -10.689  12.233  0.00  0.00    +0.219 C 
ATOM     23  C   UNL     1      -3.108  -9.073  10.346  0.00  0.00    +0.108 C 
ATOM     24  C   UNL     1      -5.237 -10.059  10.870  0.00  0.00    +0.108 C 
ATOM     27  C   UNL     1      -4.082  -8.797   9.211  0.00  0.00    +0.020 C 
ATOM     28  C   UNL     1      -5.440  -8.908   9.894  0.00  0.00    +0.020 C 
ENDBRANCH  17  20
ENDBRANCH  11  17
TORSDOF 5
ENDMDL
MODEL 5
REMARK VINA RESULT:      -6.7     23.489     26.327
REMARK  Name = 28962742
REMARK  8 active torsions:
REMARK  status: ('A' for Active; 'I' for Inactive)
REMARK    1  A    between atoms: O_1  and  C_9
REMARK    2  A    between atoms: N_4  and  C_13
REMARK    3  A    between atoms: C_6  and  C_16
REMARK    4  A    between atoms: C_8  and  C_18
REMARK    5  A    between atoms: C_11  and  C_17
REMARK    6  A    between atoms: C_17  and  C_19
REMARK    7  A    between atoms: C_17  and  C_20
REMARK    8  A    between atoms: C_21  and  C_22
REMARK                            x       y       z     vdW  Elec       q    Type
REMARK                         _______ _______ _______ _____ _____    ______ ____
ROOT
ATOM      6  C   UNL     1       9.590   6.159   5.910  0.00  0.00    -0.027 C 
ATOM      7  C   UNL     1      10.764   7.080   5.440  0.00  0.00    +0.028 C 
ATOM      8  C   UNL     1      10.517   8.569   5.877  0.00  0.00    +0.012 C 
ATOM      9  C   UNL     1      11.075   6.870   3.930  0.00  0.00    +0.122 C 
ATOM     10  C   UNL     1       9.918   4.687   5.565  0.00  0.00    +0.007 C 
ATOM     11  C   UNL     1      11.299   5.383   3.571  0.00  0.00    +0.029 C 
ATOM     12  C   UNL     1       9.454   6.262   7.448  0.00  0.00    +0.009 C 
ATOM     13  C   UNL     1      10.306   8.650   7.415  0.00  0.00    +0.076 C 
ATOM     14  C   UNL     1      10.184   4.471   4.080  0.00  0.00    +0.007 C 
ATOM     15  C   UNL     1       9.238   7.688   7.934  0.00  0.00    +0.023 C 
ATOM     16  C   UNL     1       8.238   6.536   5.252  0.00  0.00    +0.011 C 
ATOM     18  C   UNL     1      11.650   9.526   5.470  0.00  0.00    +0.010 C 
ENDROOT
BRANCH  13   4
ATOM      3  O   UNL     1      12.037  10.593   8.705  0.00  0.00    -0.276 OA
ATOM      4  N   UNL     1       9.961   9.990   7.839  0.00  0.00    -0.312 N 
ATOM     21  C   UNL     1      10.862  10.845   8.449  0.00  0.00    +0.216 C 
ATOM     32  H   UNL     1       8.997  10.287   7.722  0.00  0.00    +0.149 HD
BRANCH  21  22
ATOM     22  C   UNL     1      10.252  12.180   8.762  0.00  0.00    +0.075 C 
ATOM     25  C   UNL     1       8.806  12.026   9.237  0.00  0.00    +0.013 C 
ATOM     26  C   UNL     1      11.127  12.937   9.764  0.00  0.00    +0.013 C 
ATOM     29  C   UNL     1       8.689  11.529  10.677  0.00  0.00    +0.001 C 
ATOM     30  C   UNL     1      10.991  12.414  11.192  0.00  0.00    +0.001 C 
ATOM     31  C   UNL     1       9.534  12.360  11.636  0.00  0.00    +0.000 C 
ENDBRANCH  21  22
ENDBRANCH  13   4
BRANCH   9   1
ATOM      1  O   UNL     1      12.279   7.558   3.591  0.00  0.00    -0.391 OA
ATOM     33  H   UNL     1      12.427   8.254   4.254  0.00  0.00    +0.210 HD
ENDBRANCH   9   1
BRANCH  11  17
ATOM     17  C   UNL     1      11.474   5.183   2.060  0.00  0.00    +0.078 C 
ATOM     19  C   UNL     1      10.181   4.718   1.416  0.00  0.00    +0.017 C 
BRANCH  17  20
ATOM      2  O   UNL     1      12.376   2.979   2.120  0.00  0.00    -0.275 OA
ATOM      5  N   UNL     1      13.738   4.655   1.299  0.00  0.00    -0.301 N 
ATOM     20  C   UNL     1      12.561   4.162   1.831  0.00  0.00    +0.219 C 
ATOM     23  C   UNL     1      14.884   3.800   1.026  0.00  0.00    +0.108 C 
ATOM     24  C   UNL     1      14.019   6.041   0.934  0.00  0.00    +0.108 C 
ATOM     27  C   UNL     1      15.802   4.658   0.167  0.00  0.00    +0.020 C 
ATOM     28  C   UNL     1      15.518   6.067   0.672  0.00  0.00    +0.020 C 
ENDBRANCH  17  20
ENDBRANCH  11  17
TORSDOF 5
ENDMDL
MODEL 6
REMARK VINA RESULT:      -6.6     29.616     32.296
REMARK  Name = 28962742
REMARK  8 active torsions:
REMARK  status: ('A' for Active; 'I' for Inactive)
REMARK    1  A    between atoms: O_1  and  C_9
REMARK    2  A    between atoms: N_4  and  C_13
REMARK    3  A    between atoms: C_6  and  C_16
REMARK    4  A    between atoms: C_8  and  C_18
REMARK    5  A    between atoms: C_11  and  C_17
REMARK    6  A    between atoms: C_17  and  C_19
REMARK    7  A    between atoms: C_17  and  C_20
REMARK    8  A    between atoms: C_21  and  C_22
REMARK                            x       y       z     vdW  Elec       q    Type
REMARK                         _______ _______ _______ _____ _____    ______ ____
ROOT
ATOM      6  C   UNL     1      19.907   8.870  21.719  0.00  0.00    -0.027 C 
ATOM      7  C   UNL     1      19.873   7.607  20.795  0.00  0.00    +0.028 C 
ATOM      8  C   UNL     1      18.461   6.918  20.840  0.00  0.00    +0.012 C 
ATOM      9  C   UNL     1      21.083   6.671  21.075  0.00  0.00    +0.122 C 
ATOM     10  C   UNL     1      21.269   9.586  21.563  0.00  0.00    +0.007 C 
ATOM     11  C   UNL     1      22.436   7.416  21.022  0.00  0.00    +0.029 C 
ATOM     12  C   UNL     1      18.803   9.854  21.267  0.00  0.00    +0.009 C 
ATOM     13  C   UNL     1      17.352   7.938  20.458  0.00  0.00    +0.076 C 
ATOM     14  C   UNL     1      22.455   8.682  21.876  0.00  0.00    +0.007 C 
ATOM     15  C   UNL     1      17.413   9.234  21.266  0.00  0.00    +0.023 C 
ATOM     16  C   UNL     1      19.696   8.518  23.213  0.00  0.00    +0.011 C 
ATOM     18  C   UNL     1      18.349   5.683  19.930  0.00  0.00    +0.010 C 
ENDROOT
BRANCH  13   4
ATOM      3  O   UNL     1      15.041   8.399  18.761  0.00  0.00    -0.276 OA
ATOM      4  N   UNL     1      16.029   7.370  20.601  0.00  0.00    -0.312 N 
ATOM     21  C   UNL     1      14.988   7.653  19.735  0.00  0.00    +0.216 C 
ATOM     32  H   UNL     1      15.857   6.776  21.407  0.00  0.00    +0.149 HD
BRANCH  21  22
ATOM     22  C   UNL     1      13.733   6.913  20.098  0.00  0.00    +0.075 C 
ATOM     25  C   UNL     1      13.244   7.310  21.492  0.00  0.00    +0.013 C 
ATOM     26  C   UNL     1      12.669   7.118  19.017  0.00  0.00    +0.013 C 
ATOM     29  C   UNL     1      12.561   8.676  21.531  0.00  0.00    +0.001 C 
ATOM     30  C   UNL     1      12.010   8.493  19.080  0.00  0.00    +0.001 C 
ATOM     31  C   UNL     1      11.471   8.797  20.473  0.00  0.00    +0.000 C 
ENDBRANCH  21  22
ENDBRANCH  13   4
BRANCH   9   1
ATOM      1  O   UNL     1      21.138   5.650  20.077  0.00  0.00    -0.391 OA
ATOM     33  H   UNL     1      21.381   6.067  19.233  0.00  0.00    +0.210 HD
ENDBRANCH   9   1
BRANCH  11  17
ATOM     17  C   UNL     1      23.603   6.506  21.429  0.00  0.00    +0.078 C 
ATOM     19  C   UNL     1      24.168   6.912  22.777  0.00  0.00    +0.017 C 
BRANCH  17  20
ATOM      2  O   UNL     1      25.070   7.692  19.975  0.00  0.00    -0.275 OA
ATOM      5  N   UNL     1      25.148   5.384  19.899  0.00  0.00    -0.301 N 
ATOM     20  C   UNL     1      24.675   6.595  20.371  0.00  0.00    +0.219 C 
ATOM     23  C   UNL     1      26.177   5.299  18.874  0.00  0.00    +0.108 C 
ATOM     24  C   UNL     1      24.724   4.054  20.328  0.00  0.00    +0.108 C 
ATOM     27  C   UNL     1      26.619   3.844  18.898  0.00  0.00    +0.020 C 
ATOM     28  C   UNL     1      25.347   3.111  19.309  0.00  0.00    +0.020 C 
ENDBRANCH  17  20
ENDBRANCH  11  17
TORSDOF 5
ENDMDL
MODEL 7
REMARK VINA RESULT:      -6.5      3.008      5.425
REMARK  Name = 28962742
REMARK  8 active torsions:
REMARK  status: ('A' for Active; 'I' for Inactive)
REMARK    1  A    between atoms: O_1  and  C_9
REMARK    2  A    between atoms: N_4  and  C_13
REMARK    3  A    between atoms: C_6  and  C_16
REMARK    4  A    between atoms: C_8  and  C_18
REMARK    5  A    between atoms: C_11  and  C_17
REMARK    6  A    between atoms: C_17  and  C_19
REMARK    7  A    between atoms: C_17  and  C_20
REMARK    8  A    between atoms: C_21  and  C_22
REMARK                            x       y       z     vdW  Elec       q    Type
REMARK                         _______ _______ _______ _____ _____    ______ ____
ROOT
ATOM      6  C   UNL     1      -4.194 -11.872  15.931  0.00  0.00    -0.027 C 
ATOM      7  C   UNL     1      -5.541 -11.350  15.330  0.00  0.00    +0.028 C 
ATOM      8  C   UNL     1      -5.291 -10.580  13.982  0.00  0.00    +0.012 C 
ATOM      9  C   UNL     1      -6.372 -10.580  16.395  0.00  0.00    +0.122 C 
ATOM     10  C   UNL     1      -4.486 -12.720  17.191  0.00  0.00    +0.007 C 
ATOM     11  C   UNL     1      -6.573 -11.393  17.694  0.00  0.00    +0.029 C 
ATOM     12  C   UNL     1      -3.503 -12.791  14.896  0.00  0.00    +0.009 C 
ATOM     13  C   UNL     1      -4.528 -11.489  12.977  0.00  0.00    +0.076 C 
ATOM     14  C   UNL     1      -5.267 -11.956  18.253  0.00  0.00    +0.007 C 
ATOM     15  C   UNL     1      -3.257 -12.107  13.559  0.00  0.00    +0.023 C 
ATOM     16  C   UNL     1      -3.230 -10.722  16.317  0.00  0.00    +0.011 C 
ATOM     18  C   UNL     1      -6.579 -10.063  13.321  0.00  0.00    +0.010 C 
ENDROOT
BRANCH  13   4
ATOM      3  O   UNL     1      -5.004 -12.321  10.236  0.00  0.00    -0.276 OA
ATOM      4  N   UNL     1      -4.179 -10.774  11.768  0.00  0.00    -0.312 N 
ATOM     21  C   UNL     1      -4.449 -11.257  10.500  0.00  0.00    +0.216 C 
ATOM     32  H   UNL     1      -3.667  -9.902  11.868  0.00  0.00    +0.149 HD
BRANCH  21  22
ATOM     22  C   UNL     1      -4.005 -10.308   9.426  0.00  0.00    +0.075 C 
ATOM     25  C   UNL     1      -4.962 -10.341   8.233  0.00  0.00    +0.013 C 
ATOM     26  C   UNL     1      -3.829  -8.902  10.005  0.00  0.00    +0.013 C 
ATOM     29  C   UNL     1      -6.271  -9.593   8.483  0.00  0.00    +0.001 C 
ATOM     30  C   UNL     1      -5.154  -8.184  10.247  0.00  0.00    +0.001 C 
ATOM     31  C   UNL     1      -6.029  -8.180   8.999  0.00  0.00    +0.000 C 
ENDBRANCH  21  22
ENDBRANCH  13   4
BRANCH   9   1
ATOM      1  O   UNL     1      -7.676 -10.309  15.877  0.00  0.00    -0.391 OA
ATOM     33  H   UNL     1      -8.065  -9.588  16.401  0.00  0.00    +0.210 HD
ENDBRANCH   9   1
BRANCH  11  17
ATOM     17  C   UNL     1      -7.281 -10.569  18.778  0.00  0.00    +0.078 C 
ATOM     19  C   UNL     1      -6.342 -10.255  19.928  0.00  0.00    +0.017 C 
BRANCH  17  20
ATOM      2  O   UNL     1      -8.308 -12.420  19.869  0.00  0.00    -0.275 OA
ATOM      5  N   UNL     1      -9.705 -10.788  19.020  0.00  0.00    -0.301 N 
ATOM     20  C   UNL     1      -8.469 -11.351  19.278  0.00  0.00    +0.219 C 
ATOM     23  C   UNL     1     -10.949 -11.422  19.431  0.00  0.00    +0.108 C 
ATOM     24  C   UNL     1      -9.963  -9.527  18.330  0.00  0.00    +0.108 C 
ATOM     27  C   UNL     1     -12.004 -10.341  19.251  0.00  0.00    +0.020 C 
ATOM     28  C   UNL     1     -11.464  -9.533  18.078  0.00  0.00    +0.020 C 
ENDBRANCH  17  20
ENDBRANCH  11  17
TORSDOF 5
ENDMDL
MODEL 8
REMARK VINA RESULT:      -6.5     23.374     26.568
REMARK  Name = 28962742
REMARK  8 active torsions:
REMARK  status: ('A' for Active; 'I' for Inactive)
REMARK    1  A    between atoms: O_1  and  C_9
REMARK    2  A    between atoms: N_4  and  C_13
REMARK    3  A    between atoms: C_6  and  C_16
REMARK    4  A    between atoms: C_8  and  C_18
REMARK    5  A    between atoms: C_11  and  C_17
REMARK    6  A    between atoms: C_17  and  C_19
REMARK    7  A    between atoms: C_17  and  C_20
REMARK    8  A    between atoms: C_21  and  C_22
REMARK                            x       y       z     vdW  Elec       q    Type
REMARK                         _______ _______ _______ _____ _____    ______ ____
ROOT
ATOM      6  C   UNL     1      13.716   4.927   0.744  0.00  0.00    -0.027 C 
ATOM      7  C   UNL     1      12.163   5.100   0.824  0.00  0.00    +0.028 C 
ATOM      8  C   UNL     1      11.680   5.138   2.319  0.00  0.00    +0.012 C 
ATOM      9  C   UNL     1      11.433   4.072  -0.088  0.00  0.00    +0.122 C 
ATOM     10  C   UNL     1      14.169   5.008  -0.733  0.00  0.00    +0.007 C 
ATOM     11  C   UNL     1      11.963   4.085  -1.540  0.00  0.00    +0.029 C 
ATOM     12  C   UNL     1      14.392   6.089   1.507  0.00  0.00    +0.009 C 
ATOM     13  C   UNL     1      12.423   6.261   3.096  0.00  0.00    +0.076 C 
ATOM     14  C   UNL     1      13.485   3.976  -1.622  0.00  0.00    +0.007 C 
ATOM     15  C   UNL     1      13.944   6.193   2.958  0.00  0.00    +0.023 C 
ATOM     16  C   UNL     1      14.195   3.578   1.338  0.00  0.00    +0.011 C 
ATOM     18  C   UNL     1      10.162   5.336   2.471  0.00  0.00    +0.010 C 
ENDROOT
BRANCH  13   4
ATOM      3  O   UNL     1      11.736   8.537   4.764  0.00  0.00    -0.276 OA
ATOM      4  N   UNL     1      12.089   6.250   4.504  0.00  0.00    -0.312 N 
ATOM     21  C   UNL     1      11.774   7.394   5.214  0.00  0.00    +0.216 C 
ATOM     32  H   UNL     1      12.140   5.360   4.992  0.00  0.00    +0.149 HD
BRANCH  21  22
ATOM     22  C   UNL     1      11.444   7.097   6.648  0.00  0.00    +0.075 C 
ATOM     25  C   UNL     1      10.839   8.322   7.338  0.00  0.00    +0.013 C 
ATOM     26  C   UNL     1      10.543   5.863   6.737  0.00  0.00    +0.013 C 
ATOM     29  C   UNL     1       9.382   8.577   6.957  0.00  0.00    +0.001 C 
ATOM     30  C   UNL     1       9.095   6.150   6.346  0.00  0.00    +0.001 C 
ATOM     31  C   UNL     1       8.524   7.328   7.125  0.00  0.00    +0.000 C 
ENDBRANCH  21  22
ENDBRANCH  13   4
BRANCH   9   1
ATOM      1  O   UNL     1      10.044   4.398  -0.157  0.00  0.00    -0.391 OA
ATOM     33  H   UNL     1       9.711   4.494   0.752  0.00  0.00    +0.210 HD
ENDBRANCH   9   1
BRANCH  11  17
ATOM     17  C   UNL     1      11.324   2.978  -2.389  0.00  0.00    +0.078 C 
ATOM     19  C   UNL     1      12.046   1.657  -2.198  0.00  0.00    +0.017 C 
BRANCH  17  20
ATOM      2  O   UNL     1      12.378   3.162  -4.517  0.00  0.00    -0.275 OA
ATOM      5  N   UNL     1      10.247   4.031  -4.317  0.00  0.00    -0.301 N 
ATOM     20  C   UNL     1      11.376   3.391  -3.838  0.00  0.00    +0.219 C 
ATOM     23  C   UNL     1      10.142   4.497  -5.691  0.00  0.00    +0.108 C 
ATOM     24  C   UNL     1       9.029   4.328  -3.567  0.00  0.00    +0.108 C 
ATOM     27  C   UNL     1       8.668   4.824  -5.870  0.00  0.00    +0.020 C 
ATOM     28  C   UNL     1       8.247   5.268  -4.474  0.00  0.00    +0.020 C 
ENDBRANCH  17  20
ENDBRANCH  11  17
TORSDOF 5
ENDMDL
MODEL 9
REMARK VINA RESULT:      -6.4     28.269     31.555
REMARK  Name = 28962742
REMARK  8 active torsions:
REMARK  status: ('A' for Active; 'I' for Inactive)
REMARK    1  A    between atoms: O_1  and  C_9
REMARK    2  A    between atoms: N_4  and  C_13
REMARK    3  A    between atoms: C_6  and  C_16
REMARK    4  A    between atoms: C_8  and  C_18
REMARK    5  A    between atoms: C_11  and  C_17
REMARK    6  A    between atoms: C_17  and  C_19
REMARK    7  A    between atoms: C_17  and  C_20
REMARK    8  A    between atoms: C_21  and  C_22
REMARK                            x       y       z     vdW  Elec       q    Type
REMARK                         _______ _______ _______ _____ _____    ______ ____
ROOT
ATOM      6  C   UNL     1      16.430   6.859  20.271  0.00  0.00    -0.027 C 
ATOM      7  C   UNL     1      16.667   8.400  20.407  0.00  0.00    +0.028 C 
ATOM      8  C   UNL     1      17.831   8.699  21.420  0.00  0.00    +0.012 C 
ATOM      9  C   UNL     1      15.334   9.153  20.680  0.00  0.00    +0.122 C 
ATOM     10  C   UNL     1      15.360   6.596  19.185  0.00  0.00    +0.007 C 
ATOM     11  C   UNL     1      14.234   8.806  19.651  0.00  0.00    +0.029 C 
ATOM     12  C   UNL     1      17.744   6.187  19.808  0.00  0.00    +0.009 C 
ATOM     13  C   UNL     1      19.126   7.957  20.986  0.00  0.00    +0.076 C 
ATOM     14  C   UNL     1      14.040   7.301  19.470  0.00  0.00    +0.007 C 
ATOM     15  C   UNL     1      18.917   6.463  20.738  0.00  0.00    +0.023 C 
ATOM     16  C   UNL     1      15.964   6.210  21.598  0.00  0.00    +0.011 C 
ATOM     18  C   UNL     1      18.137  10.198  21.581  0.00  0.00    +0.010 C 
ENDROOT
BRANCH  13   4
ATOM      3  O   UNL     1      21.927   8.521  20.466  0.00  0.00    -0.276 OA
ATOM      4  N   UNL     1      20.186   8.116  21.959  0.00  0.00    -0.312 N 
ATOM     21  C   UNL     1      21.497   8.385  21.609  0.00  0.00    +0.216 C 
ATOM     32  H   UNL     1      19.953   7.972  22.937  0.00  0.00    +0.149 HD
BRANCH  21  22
ATOM     22  C   UNL     1      22.386   8.526  22.810  0.00  0.00    +0.075 C 
ATOM     25  C   UNL     1      21.891   7.654  23.966  0.00  0.00    +0.013 C 
ATOM     26  C   UNL     1      23.839   8.233  22.428  0.00  0.00    +0.013 C 
ATOM     29  C   UNL     1      22.209   6.171  23.787  0.00  0.00    +0.001 C 
ATOM     30  C   UNL     1      24.123   6.743  22.254  0.00  0.00    +0.001 C 
ATOM     31  C   UNL     1      23.681   5.939  23.471  0.00  0.00    +0.000 C 
ENDBRANCH  21  22
ENDBRANCH  13   4
BRANCH   9   1
ATOM      1  O   UNL     1      15.553  10.562  20.584  0.00  0.00    -0.391 OA
ATOM     33  H   UNL     1      14.915  10.924  19.947  0.00  0.00    +0.210 HD
ENDBRANCH   9   1
BRANCH  11  17
ATOM     17  C   UNL     1      12.891   9.456  20.012  0.00  0.00    +0.078 C 
ATOM     19  C   UNL     1      12.595   9.311  21.494  0.00  0.00    +0.017 C 
BRANCH  17  20
ATOM      2  O   UNL     1      10.952   8.098  19.750  0.00  0.00    -0.275 OA
ATOM      5  N   UNL     1      11.850   9.035  17.839  0.00  0.00    -0.301 N 
ATOM     20  C   UNL     1      11.804   8.798  19.200  0.00  0.00    +0.219 C 
ATOM     23  C   UNL     1      10.877   8.467  16.918  0.00  0.00    +0.108 C 
ATOM     24  C   UNL     1      12.828   9.854  17.128  0.00  0.00    +0.108 C 
ATOM     27  C   UNL     1      11.095   9.227  15.619  0.00  0.00    +0.020 C 
ATOM     28  C   UNL     1      12.584   9.545  15.658  0.00  0.00    +0.020 C 
ENDBRANCH  17  20
ENDBRANCH  11  17
TORSDOF 5
ENDMDL
MODEL 10
REMARK VINA RESULT:      -6.3     28.719     31.873
REMARK  Name = 28962742
REMARK  8 active torsions:
REMARK  status: ('A' for Active; 'I' for Inactive)
REMARK    1  A    between atoms: O_1  and  C_9
REMARK    2  A    between atoms: N_4  and  C_13
REMARK    3  A    between atoms: C_6  and  C_16
REMARK    4  A    between atoms: C_8  and  C_18
REMARK    5  A    between atoms: C_11  and  C_17
REMARK    6  A    between atoms: C_17  and  C_19
REMARK    7  A    between atoms: C_17  and  C_20
REMARK    8  A    between atoms: C_21  and  C_22
REMARK                            x       y       z     vdW  Elec       q    Type
REMARK                         _______ _______ _______ _____ _____    ______ ____
ROOT
ATOM      6  C   UNL     1      16.062   6.995  19.925  0.00  0.00    -0.027 C 
ATOM      7  C   UNL     1      16.794   8.286  20.422  0.00  0.00    +0.028 C 
ATOM      8  C   UNL     1      18.050   7.917  21.291  0.00  0.00    +0.012 C 
ATOM      9  C   UNL     1      15.796   9.282  21.079  0.00  0.00    +0.122 C 
ATOM     10  C   UNL     1      14.901   7.391  18.982  0.00  0.00    +0.007 C 
ATOM     11  C   UNL     1      14.583   9.593  20.173  0.00  0.00    +0.029 C 
ATOM     12  C   UNL     1      17.056   6.134  19.111  0.00  0.00    +0.009 C 
ATOM     13  C   UNL     1      19.006   6.989  20.489  0.00  0.00    +0.076 C 
ATOM     14  C   UNL     1      13.900   8.336  19.636  0.00  0.00    +0.007 C 
ATOM     15  C   UNL     1      18.308   5.767  19.894  0.00  0.00    +0.023 C 
ATOM     16  C   UNL     1      15.491   6.150  21.091  0.00  0.00    +0.011 C 
ATOM     18  C   UNL     1      18.835   9.143  21.790  0.00  0.00    +0.010 C 
ENDROOT
BRANCH  13   4
ATOM      3  O   UNL     1      21.838   7.303  19.931  0.00  0.00    -0.276 OA
ATOM      4  N   UNL     1      20.117   6.536  21.298  0.00  0.00    -0.312 N 
ATOM     21  C   UNL     1      21.439   6.734  20.944  0.00  0.00    +0.216 C 
ATOM     32  H   UNL     1      19.902   6.005  22.137  0.00  0.00    +0.149 HD
BRANCH  21  22
ATOM     22  C   UNL     1      22.388   6.188  21.971  0.00  0.00    +0.075 C 
ATOM     25  C   UNL     1      21.788   4.973  22.683  0.00  0.00    +0.013 C 
ATOM     26  C   UNL     1      23.744   5.886  21.328  0.00  0.00    +0.013 C 
ATOM     29  C   UNL     1      21.816   3.699  21.840  0.00  0.00    +0.001 C 
ATOM     30  C   UNL     1      23.738   4.610  20.490  0.00  0.00    +0.001 C 
ATOM     31  C   UNL     1      23.206   3.420  21.279  0.00  0.00    +0.000 C 
ENDBRANCH  21  22
ENDBRANCH  13   4
BRANCH   9   1
ATOM      1  O   UNL     1      16.455  10.526  21.322  0.00  0.00    -0.391 OA
ATOM     33  H   UNL     1      15.782  11.177  21.585  0.00  0.00    +0.210 HD
ENDBRANCH   9   1
BRANCH  11  17
ATOM     17  C   UNL     1      13.548  10.472  20.888  0.00  0.00    +0.078 C 
ATOM     19  C   UNL     1      12.323   9.666  21.280  0.00  0.00    +0.017 C 
BRANCH  17  20
ATOM      2  O   UNL     1      13.276  11.479  18.747  0.00  0.00    -0.275 OA
ATOM      5  N   UNL     1      12.671  12.735  20.589  0.00  0.00    -0.301 N 
ATOM     20  C   UNL     1      13.154  11.599  19.967  0.00  0.00    +0.219 C 
ATOM     23  C   UNL     1      12.254  13.912  19.841  0.00  0.00    +0.108 C 
ATOM     24  C   UNL     1      12.500  12.939  22.025  0.00  0.00    +0.108 C 
ATOM     27  C   UNL     1      11.506  14.763  20.856  0.00  0.00    +0.020 C 
ATOM     28  C   UNL     1      12.211  14.427  22.164  0.00  0.00    +0.020 C 
ENDBRANCH  17  20
ENDBRANCH  11  17
TORSDOF 5
ENDMDL
