REMARK  Name = 45361481
REMARK  9 active torsions:
REMARK  status: ('A' for Active; 'I' for Inactive)
REMARK    1  A    between atoms: O_1  and  C_9
REMARK    2  A    between atoms: N_4  and  C_13
REMARK    3  A    between atoms: C_6  and  C_16
REMARK    4  A    between atoms: C_8  and  C_18
REMARK    5  A    between atoms: C_11  and  C_17
REMARK    6  A    between atoms: C_17  and  C_19
REMARK    7  A    between atoms: C_17  and  C_20
REMARK    8  A    between atoms: C_21  and  C_22
REMARK    9  A    between atoms: C_29  and  C_30
REMARK                            x       y       z     vdW  Elec       q    Type
REMARK                         _______ _______ _______ _____ _____    ______ ____
ROOT
ATOM      6  C   UNL     1      -0.873   1.366  -1.261  0.00  0.00    -0.027 C 
ATOM      7  C   UNL     1      -0.918   0.398  -0.032  0.00  0.00    +0.028 C 
ATOM      8  C   UNL     1      -2.364   0.335   0.578  0.00  0.00    +0.012 C 
ATOM      9  C   UNL     1       0.221   0.718   0.979  0.00  0.00    +0.122 C 
ATOM     10  C   UNL     1       0.532   1.318  -1.905  0.00  0.00    +0.007 C 
ATOM     11  C   UNL     1       1.614   0.771   0.309  0.00  0.00    +0.029 C 
ATOM     12  C   UNL     1      -1.892   0.885  -2.319  0.00  0.00    +0.009 C 
ATOM     13  C   UNL     1      -3.391  -0.077  -0.514  0.00  0.00    +0.076 C 
ATOM     14  C   UNL     1       1.647   1.669  -0.928  0.00  0.00    +0.007 C 
ATOM     15  C   UNL     1      -3.311   0.778  -1.778  0.00  0.00    +0.023 C 
ATOM     16  C   UNL     1      -1.194   2.832  -0.874  0.00  0.00    +0.011 C 
ATOM     18  C   UNL     1      -2.486  -0.623   1.775  0.00  0.00    +0.010 C 
ENDROOT
BRANCH  13   4
ATOM      3  O   UNL     1      -5.622  -1.770  -1.296  0.00  0.00    -0.276 OA
ATOM      4  N   UNL     1      -4.750  -0.033  -0.015  0.00  0.00    -0.312 N 
ATOM     22  C   UNL     1      -5.741  -0.887  -0.455  0.00  0.00    +0.216 C 
ATOM     31  H   UNL     1      -4.990   0.700   0.646  0.00  0.00    +0.149 HD
BRANCH  22  21
ATOM     21  C   UNL     1      -7.066  -0.664   0.196  0.00  0.00    +0.075 C 
ATOM     23  C   UNL     1      -7.746  -1.813   0.880  0.00  0.00    +0.013 C 
ATOM     24  C   UNL     1      -7.158  -0.698   1.694  0.00  0.00    +0.013 C 
ENDBRANCH  22  21
ENDBRANCH  13   4
BRANCH   9   1
ATOM      1  O   UNL     1       0.283  -0.311   1.968  0.00  0.00    -0.391 OA
ATOM     32  H   UNL     1       0.465  -1.153   1.518  0.00  0.00    +0.210 HD
ENDBRANCH   9   1
BRANCH  11  17
ATOM     17  C   UNL     1       2.702   1.215   1.294  0.00  0.00    +0.078 C 
ATOM     19  C   UNL     1       2.426   2.610   1.823  0.00  0.00    +0.017 C 
BRANCH  17  20
ATOM      2  O   UNL     1       4.444   2.206   0.030  0.00  0.00    -0.275 OA
ATOM      5  N   UNL     1       4.725  -0.027   0.608  0.00  0.00    -0.301 N 
ATOM     20  C   UNL     1       4.034   1.184   0.586  0.00  0.00    +0.219 C 
ATOM     25  C   UNL     1       6.042  -0.126  -0.022  0.00  0.00    +0.108 C 
ATOM     26  C   UNL     1       4.263  -1.257   1.261  0.00  0.00    +0.108 C 
ATOM     27  C   UNL     1       6.078  -1.269  -1.034  0.00  0.00    +0.022 C 
ATOM     28  C   UNL     1       4.263  -2.426   0.276  0.00  0.00    +0.022 C 
ATOM     29  C   UNL     1       5.636  -2.593  -0.393  0.00  0.00    -0.011 C 
ATOM     30  C   UNL     1       5.602  -3.714  -1.429  0.00  0.00    +0.007 C 
ENDBRANCH  17  20
ENDBRANCH  11  17
TORSDOF 5
