MODEL 1
REMARK VINA RESULT:      -6.7      0.000      0.000
REMARK  Name = 26742486
REMARK  11 active torsions:
REMARK  status: ('A' for Active; 'I' for Inactive)
REMARK    1  A    between atoms: O_2  and  C_33
REMARK    2  A    between atoms: O_2  and  C_36
REMARK    3  A    between atoms: N_4  and  C_15
REMARK    4  A    between atoms: N_7  and  C_30
REMARK    5  A    between atoms: N_7  and  C_34
REMARK    6  A    between atoms: N_7  and  C_35
REMARK    7  A    between atoms: C_9  and  C_16
REMARK    8  A    between atoms: C_10  and  C_15
REMARK    9  A    between atoms: C_18  and  C_21
REMARK   10  A    between atoms: C_19  and  C_22
REMARK   11  A    between atoms: C_20  and  C_23
REMARK                            x       y       z     vdW  Elec       q    Type
REMARK                         _______ _______ _______ _____ _____    ______ ____
ROOT
ATOM      3  N   UNL     1      13.260   9.943  16.473  0.00  0.00    -0.297 NA
ATOM      8  C   UNL     1      14.137   8.061  18.045  0.00  0.00    +0.002 C 
ATOM      9  C   UNL     1      12.600   8.230  18.203  0.00  0.00    +0.055 C 
ATOM     10  C   UNL     1      14.427  10.435  17.252  0.00  0.00    +0.074 C 
ATOM     11  C   UNL     1      14.830   9.409  18.334  0.00  0.00    +0.024 C 
ATOM     12  C   UNL     1      14.396   7.725  16.560  0.00  0.00    +0.019 C 
ATOM     13  C   UNL     1      12.187   9.493  17.394  0.00  0.00    +0.094 C 
ATOM     14  C   UNL     1      13.705   8.776  15.675  0.00  0.00    +0.085 C 
ENDROOT
BRANCH   9  16
ATOM      5  N   UNL     1      11.668   7.030  20.120  0.00  0.00    -0.237 NA
ATOM      6  N   UNL     1      10.966   8.164  22.128  0.00  0.00    -0.232 NA
ATOM     16  C   UNL     1      12.018   8.229  19.610  0.00  0.00    +0.050 A 
ATOM     17  C   UNL     1      11.874   9.423  20.288  0.00  0.00    +0.052 A 
ATOM     18  C   UNL     1      11.337   9.328  21.555  0.00  0.00    +0.075 A 
ATOM     19  C   UNL     1      11.157   7.070  21.365  0.00  0.00    +0.127 A 
ATOM     22  C   UNL     1      10.757   5.764  21.963  0.00  0.00    +0.088 C 
BRANCH  18  21
ATOM     21  C   UNL     1      11.134  10.504  22.368  0.00  0.00    +0.001 A 
ATOM     24  C   UNL     1      10.960  10.378  23.746  0.00  0.00    +0.012 A 
ATOM     25  C   UNL     1      11.113  11.766  21.774  0.00  0.00    +0.012 A 
ATOM     28  C   UNL     1      10.764  11.515  24.531  0.00  0.00    +0.024 A 
ATOM     29  C   UNL     1      10.918  12.903  22.559  0.00  0.00    +0.024 A 
ATOM     30  C   UNL     1      10.743  12.777  23.937  0.00  0.00    +0.029 A 
BRANCH  30   7
ATOM      7  N   UNL     1      10.545  13.926  24.730  0.00  0.00    -0.336 N 
ATOM     34  C   UNL     1      11.094  13.997  26.070  0.00  0.00    +0.129 C 
ATOM     35  C   UNL     1       9.798  15.055  24.213  0.00  0.00    +0.129 C 
ENDBRANCH  30   7
ENDBRANCH  18  21
ENDBRANCH   9  16
BRANCH  10  15
ATOM     15  C   UNL     1      14.188  11.825  17.845  0.00  0.00    +0.123 C 
BRANCH  15   4
ATOM      1  O   UNL     1      15.738  13.366  19.708  0.00  0.00    -0.270 OA
ATOM      4  N   UNL     1      14.115  11.765  19.272  0.00  0.00    -0.310 N 
ATOM     20  C   UNL     1      14.908  12.552  20.105  0.00  0.00    +0.244 C 
ATOM     37  H   UNL     1      13.493  11.069  19.667  0.00  0.00    +0.149 HD
BRANCH  20  23
ATOM     23  C   UNL     1      14.731  12.353  21.566  0.00  0.00    +0.037 A 
ATOM     26  C   UNL     1      14.510  13.450  22.399  0.00  0.00    +0.016 A 
ATOM     27  C   UNL     1      14.786  11.068  22.107  0.00  0.00    +0.016 A 
ATOM     31  C   UNL     1      14.346  13.263  23.771  0.00  0.00    +0.046 A 
ATOM     32  C   UNL     1      14.621  10.881  23.479  0.00  0.00    +0.046 A 
ATOM     33  C   UNL     1      14.401  11.979  24.312  0.00  0.00    +0.120 A 
BRANCH  33   2
ATOM      2  O   UNL     1      14.240  11.796  25.651  0.00  0.00    -0.495 OA
ATOM     36  C   UNL     1      15.418  11.821  26.455  0.00  0.00    +0.277 C 
ENDBRANCH  33   2
ENDBRANCH  20  23
ENDBRANCH  15   4
ENDBRANCH  10  15
TORSDOF 7
ENDMDL
MODEL 2
REMARK VINA RESULT:      -6.4     26.615     30.500
REMARK  Name = 26742486
REMARK  11 active torsions:
REMARK  status: ('A' for Active; 'I' for Inactive)
REMARK    1  A    between atoms: O_2  and  C_33
REMARK    2  A    between atoms: O_2  and  C_36
REMARK    3  A    between atoms: N_4  and  C_15
REMARK    4  A    between atoms: N_7  and  C_30
REMARK    5  A    between atoms: N_7  and  C_34
REMARK    6  A    between atoms: N_7  and  C_35
REMARK    7  A    between atoms: C_9  and  C_16
REMARK    8  A    between atoms: C_10  and  C_15
REMARK    9  A    between atoms: C_18  and  C_21
REMARK   10  A    between atoms: C_19  and  C_22
REMARK   11  A    between atoms: C_20  and  C_23
REMARK                            x       y       z     vdW  Elec       q    Type
REMARK                         _______ _______ _______ _____ _____    ______ ____
ROOT
ATOM      3  N   UNL     1      -7.590 -11.454  17.847  0.00  0.00    -0.297 NA
ATOM      8  C   UNL     1      -5.094 -11.292  18.574  0.00  0.00    +0.002 C 
ATOM      9  C   UNL     1      -5.347 -10.436  17.301  0.00  0.00    +0.055 C 
ATOM     10  C   UNL     1      -7.035 -12.816  18.068  0.00  0.00    +0.074 C 
ATOM     11  C   UNL     1      -5.509 -12.752  18.296  0.00  0.00    +0.024 C 
ATOM     12  C   UNL     1      -6.039 -10.751  19.668  0.00  0.00    +0.019 C 
ATOM     13  C   UNL     1      -6.794 -10.743  16.817  0.00  0.00    +0.094 C 
ATOM     14  C   UNL     1      -7.475 -10.705  19.121  0.00  0.00    +0.085 C 
ENDROOT
BRANCH   9  16
ATOM      5  N   UNL     1      -3.029 -10.494  16.523  0.00  0.00    -0.237 NA
ATOM      6  N   UNL     1      -2.463 -10.642  14.185  0.00  0.00    -0.232 NA
ATOM     16  C   UNL     1      -4.331 -10.511  16.170  0.00  0.00    +0.050 A 
ATOM     17  C   UNL     1      -4.772 -10.591  14.865  0.00  0.00    +0.052 A 
ATOM     18  C   UNL     1      -3.782 -10.654  13.904  0.00  0.00    +0.075 A 
ATOM     19  C   UNL     1      -2.162 -10.562  15.496  0.00  0.00    +0.127 A 
ATOM     22  C   UNL     1      -0.712 -10.544  15.846  0.00  0.00    +0.088 C 
BRANCH  18  21
ATOM     21  C   UNL     1      -4.111 -10.739  12.502  0.00  0.00    +0.001 A 
ATOM     24  C   UNL     1      -5.149  -9.968  11.980  0.00  0.00    +0.012 A 
ATOM     25  C   UNL     1      -3.388 -11.592  11.667  0.00  0.00    +0.012 A 
ATOM     28  C   UNL     1      -5.465 -10.051  10.623  0.00  0.00    +0.024 A 
ATOM     29  C   UNL     1      -3.703 -11.674  10.311  0.00  0.00    +0.024 A 
ATOM     30  C   UNL     1      -4.742 -10.904   9.789  0.00  0.00    +0.029 A 
BRANCH  30   7
ATOM      7  N   UNL     1      -5.062 -10.987   8.418  0.00  0.00    -0.336 N 
ATOM     34  C   UNL     1      -4.972 -12.254   7.718  0.00  0.00    +0.129 C 
ATOM     35  C   UNL     1      -5.494  -9.810   7.693  0.00  0.00    +0.129 C 
ENDBRANCH  30   7
ENDBRANCH  18  21
ENDBRANCH   9  16
BRANCH  10  15
ATOM     15  C   UNL     1      -7.403 -13.785  16.943  0.00  0.00    +0.123 C 
BRANCH  15   4
ATOM      1  O   UNL     1      -7.033 -13.281  14.141  0.00  0.00    -0.270 OA
ATOM      4  N   UNL     1      -6.254 -14.118  16.160  0.00  0.00    -0.310 N 
ATOM     20  C   UNL     1      -6.157 -13.836  14.799  0.00  0.00    +0.244 C 
ATOM     37  H   UNL     1      -5.517 -14.633  16.629  0.00  0.00    +0.149 HD
BRANCH  20  23
ATOM     23  C   UNL     1      -4.907 -14.269  14.123  0.00  0.00    +0.037 A 
ATOM     26  C   UNL     1      -3.678 -14.116  14.763  0.00  0.00    +0.016 A 
ATOM     27  C   UNL     1      -4.962 -14.828  12.846  0.00  0.00    +0.016 A 
ATOM     31  C   UNL     1      -2.504 -14.520  14.128  0.00  0.00    +0.046 A 
ATOM     32  C   UNL     1      -3.789 -15.232  12.211  0.00  0.00    +0.046 A 
ATOM     33  C   UNL     1      -2.559 -15.079  12.851  0.00  0.00    +0.120 A 
BRANCH  33   2
ATOM      2  O   UNL     1      -1.414 -15.474  12.231  0.00  0.00    -0.495 OA
ATOM     36  C   UNL     1      -0.307 -15.811  13.065  0.00  0.00    +0.277 C 
ENDBRANCH  33   2
ENDBRANCH  20  23
ENDBRANCH  15   4
ENDBRANCH  10  15
TORSDOF 7
ENDMDL
MODEL 3
REMARK VINA RESULT:      -5.9      3.914      7.606
REMARK  Name = 26742486
REMARK  11 active torsions:
REMARK  status: ('A' for Active; 'I' for Inactive)
REMARK    1  A    between atoms: O_2  and  C_33
REMARK    2  A    between atoms: O_2  and  C_36
REMARK    3  A    between atoms: N_4  and  C_15
REMARK    4  A    between atoms: N_7  and  C_30
REMARK    5  A    between atoms: N_7  and  C_34
REMARK    6  A    between atoms: N_7  and  C_35
REMARK    7  A    between atoms: C_9  and  C_16
REMARK    8  A    between atoms: C_10  and  C_15
REMARK    9  A    between atoms: C_18  and  C_21
REMARK   10  A    between atoms: C_19  and  C_22
REMARK   11  A    between atoms: C_20  and  C_23
REMARK                            x       y       z     vdW  Elec       q    Type
REMARK                         _______ _______ _______ _____ _____    ______ ____
ROOT
ATOM      3  N   UNL     1      11.497   7.469  20.418  0.00  0.00    -0.297 NA
ATOM      8  C   UNL     1      12.217   9.302  22.122  0.00  0.00    +0.002 C 
ATOM      9  C   UNL     1      11.822   9.947  20.764  0.00  0.00    +0.055 C 
ATOM     10  C   UNL     1      12.800   7.106  21.035  0.00  0.00    +0.074 C 
ATOM     11  C   UNL     1      13.342   8.273  21.889  0.00  0.00    +0.024 C 
ATOM     12  C   UNL     1      10.982   8.521  22.619  0.00  0.00    +0.019 C 
ATOM     13  C   UNL     1      11.603   8.789  19.748  0.00  0.00    +0.094 C 
ATOM     14  C   UNL     1      10.495   7.580  21.504  0.00  0.00    +0.085 C 
ENDROOT
BRANCH   9  16
ATOM      5  N   UNL     1      13.109  12.005  21.068  0.00  0.00    -0.237 NA
ATOM      6  N   UNL     1      14.311  13.046  19.257  0.00  0.00    -0.232 NA
ATOM     16  C   UNL     1      12.713  11.047  20.204  0.00  0.00    +0.050 A 
ATOM     17  C   UNL     1      13.070  11.020  18.872  0.00  0.00    +0.052 A 
ATOM     18  C   UNL     1      13.878  12.056  18.450  0.00  0.00    +0.075 A 
ATOM     19  C   UNL     1      13.895  12.960  20.535  0.00  0.00    +0.127 A 
ATOM     22  C   UNL     1      14.351  14.038  21.459  0.00  0.00    +0.088 C 
BRANCH  18  21
ATOM     21  C   UNL     1      14.321  12.144  17.079  0.00  0.00    +0.001 A 
ATOM     24  C   UNL     1      14.502  13.392  16.483  0.00  0.00    +0.012 A 
ATOM     25  C   UNL     1      14.567  10.980  16.350  0.00  0.00    +0.012 A 
ATOM     28  C   UNL     1      14.930  13.477  15.158  0.00  0.00    +0.024 A 
ATOM     29  C   UNL     1      14.997  11.065  15.025  0.00  0.00    +0.024 A 
ATOM     30  C   UNL     1      15.178  12.313  14.429  0.00  0.00    +0.029 A 
BRANCH  30   7
ATOM      7  N   UNL     1      15.611  12.398  13.090  0.00  0.00    -0.336 N 
ATOM     34  C   UNL     1      17.025  12.446  12.776  0.00  0.00    +0.129 C 
ATOM     35  C   UNL     1      14.647  12.431  12.008  0.00  0.00    +0.129 C 
ENDBRANCH  30   7
ENDBRANCH  18  21
ENDBRANCH   9  16
BRANCH  10  15
ATOM     15  C   UNL     1      13.823   6.633  20.000  0.00  0.00    +0.123 C 
BRANCH  15   4
ATOM      1  O   UNL     1      16.251   5.941  18.631  0.00  0.00    -0.270 OA
ATOM      4  N   UNL     1      15.157   6.818  20.481  0.00  0.00    -0.310 N 
ATOM     20  C   UNL     1      16.285   6.452  19.747  0.00  0.00    +0.244 C 
ATOM     37  H   UNL     1      15.256   7.180  21.423  0.00  0.00    +0.149 HD
BRANCH  20  23
ATOM     23  C   UNL     1      17.599   6.687  20.397  0.00  0.00    +0.037 A 
ATOM     26  C   UNL     1      18.683   5.862  20.098  0.00  0.00    +0.016 A 
ATOM     27  C   UNL     1      17.751   7.731  21.309  0.00  0.00    +0.016 A 
ATOM     31  C   UNL     1      19.917   6.081  20.710  0.00  0.00    +0.046 A 
ATOM     32  C   UNL     1      18.984   7.950  21.921  0.00  0.00    +0.046 A 
ATOM     33  C   UNL     1      20.068   7.125  21.622  0.00  0.00    +0.120 A 
BRANCH  33   2
ATOM      2  O   UNL     1      21.272   7.339  22.219  0.00  0.00    -0.495 OA
ATOM     36  C   UNL     1      21.532   6.626  23.427  0.00  0.00    +0.277 C 
ENDBRANCH  33   2
ENDBRANCH  20  23
ENDBRANCH  15   4
ENDBRANCH  10  15
TORSDOF 7
ENDMDL
MODEL 4
REMARK VINA RESULT:      -5.9     14.507     19.752
REMARK  Name = 26742486
REMARK  11 active torsions:
REMARK  status: ('A' for Active; 'I' for Inactive)
REMARK    1  A    between atoms: O_2  and  C_33
REMARK    2  A    between atoms: O_2  and  C_36
REMARK    3  A    between atoms: N_4  and  C_15
REMARK    4  A    between atoms: N_7  and  C_30
REMARK    5  A    between atoms: N_7  and  C_34
REMARK    6  A    between atoms: N_7  and  C_35
REMARK    7  A    between atoms: C_9  and  C_16
REMARK    8  A    between atoms: C_10  and  C_15
REMARK    9  A    between atoms: C_18  and  C_21
REMARK   10  A    between atoms: C_19  and  C_22
REMARK   11  A    between atoms: C_20  and  C_23
REMARK                            x       y       z     vdW  Elec       q    Type
REMARK                         _______ _______ _______ _____ _____    ______ ____
ROOT
ATOM      3  N   UNL     1      10.492   5.282   7.939  0.00  0.00    -0.297 NA
ATOM      8  C   UNL     1       9.153   7.412   7.264  0.00  0.00    +0.002 C 
ATOM      9  C   UNL     1       8.951   6.286   6.211  0.00  0.00    +0.055 C 
ATOM     10  C   UNL     1      11.374   6.478   7.999  0.00  0.00    +0.074 C 
ATOM     11  C   UNL     1      10.659   7.712   7.406  0.00  0.00    +0.024 C 
ATOM     12  C   UNL     1       8.672   6.846   8.617  0.00  0.00    +0.019 C 
ATOM     13  C   UNL     1       9.932   5.133   6.572  0.00  0.00    +0.094 C 
ATOM     14  C   UNL     1       9.368   5.499   8.879  0.00  0.00    +0.085 C 
ENDROOT
BRANCH   9  16
ATOM      5  N   UNL     1       8.293   7.730   4.350  0.00  0.00    -0.237 NA
ATOM      6  N   UNL     1       9.094   7.378   2.105  0.00  0.00    -0.232 NA
ATOM     16  C   UNL     1       9.017   6.660   4.737  0.00  0.00    +0.050 A 
ATOM     17  C   UNL     1       9.794   5.908   3.879  0.00  0.00    +0.052 A 
ATOM     18  C   UNL     1       9.793   6.318   2.561  0.00  0.00    +0.075 A 
ATOM     19  C   UNL     1       8.376   8.029   3.040  0.00  0.00    +0.127 A 
ATOM     22  C   UNL     1       7.587   9.205   2.574  0.00  0.00    +0.088 C 
BRANCH  18  21
ATOM     21  C   UNL     1      10.564   5.616   1.563  0.00  0.00    +0.001 A 
ATOM     24  C   UNL     1      11.489   4.646   1.949  0.00  0.00    +0.012 A 
ATOM     25  C   UNL     1      10.383   5.908   0.210  0.00  0.00    +0.012 A 
ATOM     28  C   UNL     1      12.233   3.967   0.984  0.00  0.00    +0.024 A 
ATOM     29  C   UNL     1      11.127   5.229  -0.755  0.00  0.00    +0.024 A 
ATOM     30  C   UNL     1      12.052   4.259  -0.369  0.00  0.00    +0.029 A 
BRANCH  30   7
ATOM      7  N   UNL     1      12.804   3.574  -1.345  0.00  0.00    -0.336 N 
ATOM     34  C   UNL     1      12.213   2.486  -2.099  0.00  0.00    +0.129 C 
ATOM     35  C   UNL     1      14.177   3.953  -1.612  0.00  0.00    +0.129 C 
ENDBRANCH  30   7
ENDBRANCH  18  21
ENDBRANCH   9  16
BRANCH  10  15
ATOM     15  C   UNL     1      12.733   6.234   7.339  0.00  0.00    +0.123 C 
BRANCH  15   4
ATOM      1  O   UNL     1      14.689   7.765   5.898  0.00  0.00    -0.270 OA
ATOM      4  N   UNL     1      12.695   6.579   5.951  0.00  0.00    -0.310 N 
ATOM     20  C   UNL     1      13.691   7.329   5.329  0.00  0.00    +0.244 C 
ATOM     37  H   UNL     1      11.867   6.302   5.436  0.00  0.00    +0.149 HD
BRANCH  20  23
ATOM     23  C   UNL     1      13.491   7.624   3.887  0.00  0.00    +0.037 A 
ATOM     26  C   UNL     1      14.248   6.954   2.926  0.00  0.00    +0.016 A 
ATOM     27  C   UNL     1      12.548   8.573   3.493  0.00  0.00    +0.016 A 
ATOM     31  C   UNL     1      14.062   7.232   1.573  0.00  0.00    +0.046 A 
ATOM     32  C   UNL     1      12.363   8.852   2.140  0.00  0.00    +0.046 A 
ATOM     33  C   UNL     1      13.119   8.182   1.179  0.00  0.00    +0.120 A 
BRANCH  33   2
ATOM      2  O   UNL     1      12.938   8.454  -0.142  0.00  0.00    -0.495 OA
ATOM     36  C   UNL     1      11.918   9.394  -0.477  0.00  0.00    +0.277 C 
ENDBRANCH  33   2
ENDBRANCH  20  23
ENDBRANCH  15   4
ENDBRANCH  10  15
TORSDOF 7
ENDMDL
MODEL 5
REMARK VINA RESULT:      -5.9      4.389      7.352
REMARK  Name = 26742486
REMARK  11 active torsions:
REMARK  status: ('A' for Active; 'I' for Inactive)
REMARK    1  A    between atoms: O_2  and  C_33
REMARK    2  A    between atoms: O_2  and  C_36
REMARK    3  A    between atoms: N_4  and  C_15
REMARK    4  A    between atoms: N_7  and  C_30
REMARK    5  A    between atoms: N_7  and  C_34
REMARK    6  A    between atoms: N_7  and  C_35
REMARK    7  A    between atoms: C_9  and  C_16
REMARK    8  A    between atoms: C_10  and  C_15
REMARK    9  A    between atoms: C_18  and  C_21
REMARK   10  A    between atoms: C_19  and  C_22
REMARK   11  A    between atoms: C_20  and  C_23
REMARK                            x       y       z     vdW  Elec       q    Type
REMARK                         _______ _______ _______ _____ _____    ______ ____
ROOT
ATOM      3  N   UNL     1      12.188   8.451  19.350  0.00  0.00    -0.297 NA
ATOM      8  C   UNL     1      12.593   8.450  21.923  0.00  0.00    +0.002 C 
ATOM      9  C   UNL     1      12.888   9.855  21.326  0.00  0.00    +0.055 C 
ATOM     10  C   UNL     1      13.051   7.301  19.728  0.00  0.00    +0.074 C 
ATOM     11  C   UNL     1      13.471   7.400  21.211  0.00  0.00    +0.024 C 
ATOM     12  C   UNL     1      11.124   8.122  21.581  0.00  0.00    +0.019 C 
ATOM     13  C   UNL     1      12.822   9.723  19.777  0.00  0.00    +0.094 C 
ATOM     14  C   UNL     1      10.901   8.310  20.071  0.00  0.00    +0.085 C 
ENDROOT
BRANCH   9  16
ATOM      5  N   UNL     1      14.179  10.958  23.087  0.00  0.00    -0.237 NA
ATOM      6  N   UNL     1      16.360  11.899  22.683  0.00  0.00    -0.232 NA
ATOM     16  C   UNL     1      14.140  10.585  21.791  0.00  0.00    +0.050 A 
ATOM     17  C   UNL     1      15.159  10.829  20.892  0.00  0.00    +0.052 A 
ATOM     18  C   UNL     1      16.254  11.497  21.399  0.00  0.00    +0.075 A 
ATOM     19  C   UNL     1      15.301  11.601  23.460  0.00  0.00    +0.127 A 
ATOM     22  C   UNL     1      15.379  12.031  24.885  0.00  0.00    +0.088 C 
BRANCH  18  21
ATOM     21  C   UNL     1      17.386  11.815  20.561  0.00  0.00    +0.001 A 
ATOM     24  C   UNL     1      18.659  11.362  20.907  0.00  0.00    +0.012 A 
ATOM     25  C   UNL     1      17.206  12.576  19.405  0.00  0.00    +0.012 A 
ATOM     28  C   UNL     1      19.753  11.670  20.097  0.00  0.00    +0.024 A 
ATOM     29  C   UNL     1      18.299  12.883  18.595  0.00  0.00    +0.024 A 
ATOM     30  C   UNL     1      19.572  12.430  18.940  0.00  0.00    +0.029 A 
BRANCH  30   7
ATOM      7  N   UNL     1      20.677  12.741  18.122  0.00  0.00    -0.336 N 
ATOM     34  C   UNL     1      20.716  13.988  17.383  0.00  0.00    +0.129 C 
ATOM     35  C   UNL     1      21.793  11.822  18.015  0.00  0.00    +0.129 C 
ENDBRANCH  30   7
ENDBRANCH  18  21
ENDBRANCH   9  16
BRANCH  10  15
ATOM     15  C   UNL     1      14.259   7.149  18.802  0.00  0.00    +0.123 C 
BRANCH  15   4
ATOM      1  O   UNL     1      16.565   5.454  18.566  0.00  0.00    -0.270 OA
ATOM      4  N   UNL     1      15.482   7.263  19.536  0.00  0.00    -0.310 N 
ATOM     20  C   UNL     1      16.556   6.393  19.358  0.00  0.00    +0.244 C 
ATOM     37  H   UNL     1      15.518   7.981  20.250  0.00  0.00    +0.149 HD
BRANCH  20  23
ATOM     23  C   UNL     1      17.746   6.631  20.215  0.00  0.00    +0.037 A 
ATOM     26  C   UNL     1      18.873   5.819  20.085  0.00  0.00    +0.016 A 
ATOM     27  C   UNL     1      17.736   7.664  21.152  0.00  0.00    +0.016 A 
ATOM     31  C   UNL     1      19.988   6.040  20.892  0.00  0.00    +0.046 A 
ATOM     32  C   UNL     1      18.852   7.885  21.958  0.00  0.00    +0.046 A 
ATOM     33  C   UNL     1      19.979   7.073  21.829  0.00  0.00    +0.120 A 
BRANCH  33   2
ATOM      2  O   UNL     1      21.067   7.289  22.616  0.00  0.00    -0.495 OA
ATOM     36  C   UNL     1      21.699   8.564  22.514  0.00  0.00    +0.277 C 
ENDBRANCH  33   2
ENDBRANCH  20  23
ENDBRANCH  15   4
ENDBRANCH  10  15
TORSDOF 7
ENDMDL
MODEL 6
REMARK VINA RESULT:      -5.7     14.783     18.347
REMARK  Name = 26742486
REMARK  11 active torsions:
REMARK  status: ('A' for Active; 'I' for Inactive)
REMARK    1  A    between atoms: O_2  and  C_33
REMARK    2  A    between atoms: O_2  and  C_36
REMARK    3  A    between atoms: N_4  and  C_15
REMARK    4  A    between atoms: N_7  and  C_30
REMARK    5  A    between atoms: N_7  and  C_34
REMARK    6  A    between atoms: N_7  and  C_35
REMARK    7  A    between atoms: C_9  and  C_16
REMARK    8  A    between atoms: C_10  and  C_15
REMARK    9  A    between atoms: C_18  and  C_21
REMARK   10  A    between atoms: C_19  and  C_22
REMARK   11  A    between atoms: C_20  and  C_23
REMARK                            x       y       z     vdW  Elec       q    Type
REMARK                         _______ _______ _______ _____ _____    ______ ____
ROOT
ATOM      3  N   UNL     1      18.854  -2.487  32.122  0.00  0.00    -0.297 NA
ATOM      8  C   UNL     1      16.363  -2.247  31.398  0.00  0.00    +0.002 C 
ATOM      9  C   UNL     1      16.740  -3.746  31.565  0.00  0.00    +0.055 C 
ATOM     10  C   UNL     1      18.752  -1.585  30.944  0.00  0.00    +0.074 C 
ATOM     11  C   UNL     1      17.316  -1.595  30.374  0.00  0.00    +0.024 C 
ATOM     12  C   UNL     1      16.624  -1.568  32.759  0.00  0.00    +0.019 C 
ATOM     13  C   UNL     1      18.277  -3.815  31.797  0.00  0.00    +0.094 C 
ATOM     14  C   UNL     1      18.056  -1.891  33.220  0.00  0.00    +0.085 C 
ENDROOT
BRANCH   9  16
ATOM      5  N   UNL     1      15.115  -5.379  30.744  0.00  0.00    -0.237 NA
ATOM      6  N   UNL     1      15.381  -6.504  28.629  0.00  0.00    -0.232 NA
ATOM     16  C   UNL     1      16.271  -4.728  30.501  0.00  0.00    +0.050 A 
ATOM     17  C   UNL     1      17.029  -4.909  29.362  0.00  0.00    +0.052 A 
ATOM     18  C   UNL     1      16.530  -5.819  28.452  0.00  0.00    +0.075 A 
ATOM     19  C   UNL     1      14.734  -6.239  29.780  0.00  0.00    +0.127 A 
ATOM     22  C   UNL     1      13.460  -6.979  30.014  0.00  0.00    +0.088 C 
BRANCH  18  21
ATOM     21  C   UNL     1      17.229  -6.100  27.221  0.00  0.00    +0.001 A 
ATOM     24  C   UNL     1      18.606  -6.320  27.234  0.00  0.00    +0.012 A 
ATOM     25  C   UNL     1      16.525  -6.153  26.017  0.00  0.00    +0.012 A 
ATOM     28  C   UNL     1      19.280  -6.592  26.043  0.00  0.00    +0.024 A 
ATOM     29  C   UNL     1      17.198  -6.425  24.826  0.00  0.00    +0.024 A 
ATOM     30  C   UNL     1      18.576  -6.645  24.839  0.00  0.00    +0.029 A 
BRANCH  30   7
ATOM      7  N   UNL     1      19.257  -6.919  23.636  0.00  0.00    -0.336 N 
ATOM     34  C   UNL     1      18.684  -6.532  22.361  0.00  0.00    +0.129 C 
ATOM     35  C   UNL     1      20.544  -7.585  23.657  0.00  0.00    +0.129 C 
ENDBRANCH  30   7
ENDBRANCH  18  21
ENDBRANCH   9  16
BRANCH  10  15
ATOM     15  C   UNL     1      19.793  -1.908  29.871  0.00  0.00    +0.123 C 
BRANCH  15   4
ATOM      1  O   UNL     1      20.883  -3.270  27.590  0.00  0.00    -0.270 OA
ATOM      4  N   UNL     1      19.176  -2.055  28.589  0.00  0.00    -0.310 N 
ATOM     20  C   UNL     1      19.779  -2.736  27.532  0.00  0.00    +0.244 C 
ATOM     37  H   UNL     1      18.289  -1.585  28.455  0.00  0.00    +0.149 HD
BRANCH  20  23
ATOM     23  C   UNL     1      19.019  -2.778  26.257  0.00  0.00    +0.037 A 
ATOM     26  C   UNL     1      19.677  -3.069  25.062  0.00  0.00    +0.016 A 
ATOM     27  C   UNL     1      17.647  -2.524  26.253  0.00  0.00    +0.016 A 
ATOM     31  C   UNL     1      18.964  -3.106  23.864  0.00  0.00    +0.046 A 
ATOM     32  C   UNL     1      16.934  -2.561  25.055  0.00  0.00    +0.046 A 
ATOM     33  C   UNL     1      17.592  -2.852  23.860  0.00  0.00    +0.120 A 
BRANCH  33   2
ATOM      2  O   UNL     1      16.896  -2.889  22.691  0.00  0.00    -0.495 OA
ATOM     36  C   UNL     1      15.476  -2.791  22.778  0.00  0.00    +0.277 C 
ENDBRANCH  33   2
ENDBRANCH  20  23
ENDBRANCH  15   4
ENDBRANCH  10  15
TORSDOF 7
ENDMDL
MODEL 7
REMARK VINA RESULT:      -5.7     32.471     35.576
REMARK  Name = 26742486
REMARK  11 active torsions:
REMARK  status: ('A' for Active; 'I' for Inactive)
REMARK    1  A    between atoms: O_2  and  C_33
REMARK    2  A    between atoms: O_2  and  C_36
REMARK    3  A    between atoms: N_4  and  C_15
REMARK    4  A    between atoms: N_7  and  C_30
REMARK    5  A    between atoms: N_7  and  C_34
REMARK    6  A    between atoms: N_7  and  C_35
REMARK    7  A    between atoms: C_9  and  C_16
REMARK    8  A    between atoms: C_10  and  C_15
REMARK    9  A    between atoms: C_18  and  C_21
REMARK   10  A    between atoms: C_19  and  C_22
REMARK   11  A    between atoms: C_20  and  C_23
REMARK                            x       y       z     vdW  Elec       q    Type
REMARK                         _______ _______ _______ _____ _____    ______ ____
ROOT
ATOM      3  N   UNL     1      -8.189  -7.507  41.208  0.00  0.00    -0.297 NA
ATOM      8  C   UNL     1     -10.199  -7.868  39.591  0.00  0.00    +0.002 C 
ATOM      9  C   UNL     1      -9.873  -9.181  40.356  0.00  0.00    +0.055 C 
ATOM     10  C   UNL     1      -7.847  -7.003  39.851  0.00  0.00    +0.074 C 
ATOM     11  C   UNL     1      -8.941  -7.394  38.834  0.00  0.00    +0.024 C 
ATOM     12  C   UNL     1     -10.517  -6.799  40.659  0.00  0.00    +0.019 C 
ATOM     13  C   UNL     1      -8.551  -8.945  41.140  0.00  0.00    +0.094 C 
ATOM     14  C   UNL     1      -9.373  -6.754  41.687  0.00  0.00    +0.085 C 
ENDROOT
BRANCH   9  16
ATOM      5  N   UNL     1      -9.023 -11.449  40.017  0.00  0.00    -0.237 NA
ATOM      6  N   UNL     1      -9.776 -12.845  38.202  0.00  0.00    -0.232 NA
ATOM     16  C   UNL     1      -9.854 -10.485  39.571  0.00  0.00    +0.050 A 
ATOM     17  C   UNL     1     -10.666 -10.624  38.463  0.00  0.00    +0.052 A 
ATOM     18  C   UNL     1     -10.583 -11.837  37.811  0.00  0.00    +0.075 A 
ATOM     19  C   UNL     1      -9.034 -12.586  39.296  0.00  0.00    +0.127 A 
ATOM     22  C   UNL     1      -8.126 -13.675  39.758  0.00  0.00    +0.088 C 
BRANCH  18  21
ATOM     21  C   UNL     1     -11.380 -12.108  36.639  0.00  0.00    +0.001 A 
ATOM     24  C   UNL     1     -11.159 -13.270  35.899  0.00  0.00    +0.012 A 
ATOM     25  C   UNL     1     -12.370 -11.208  36.245  0.00  0.00    +0.012 A 
ATOM     28  C   UNL     1     -11.930 -13.531  34.765  0.00  0.00    +0.024 A 
ATOM     29  C   UNL     1     -13.141 -11.470  35.113  0.00  0.00    +0.024 A 
ATOM     30  C   UNL     1     -12.921 -12.631  34.373  0.00  0.00    +0.029 A 
BRANCH  30   7
ATOM      7  N   UNL     1     -13.699 -12.896  33.227  0.00  0.00    -0.336 N 
ATOM     34  C   UNL     1     -13.364 -14.000  32.350  0.00  0.00    +0.129 C 
ATOM     35  C   UNL     1     -14.850 -12.072  32.916  0.00  0.00    +0.129 C 
ENDBRANCH  30   7
ENDBRANCH  18  21
ENDBRANCH   9  16
BRANCH  10  15
ATOM     15  C   UNL     1      -6.458  -7.454  39.396  0.00  0.00    +0.123 C 
BRANCH  15   4
ATOM      1  O   UNL     1      -5.406 -10.088  39.842  0.00  0.00    -0.270 OA
ATOM      4  N   UNL     1      -6.549  -8.571  38.508  0.00  0.00    -0.310 N 
ATOM     20  C   UNL     1      -6.008  -9.821  38.805  0.00  0.00    +0.244 C 
ATOM     37  H   UNL     1      -6.981  -8.402  37.607  0.00  0.00    +0.149 HD
BRANCH  20  23
ATOM     23  C   UNL     1      -6.165 -10.871  37.766  0.00  0.00    +0.037 A 
ATOM     26  C   UNL     1      -7.139 -10.734  36.777  0.00  0.00    +0.016 A 
ATOM     27  C   UNL     1      -5.341 -11.996  37.780  0.00  0.00    +0.016 A 
ATOM     31  C   UNL     1      -7.288 -11.721  35.803  0.00  0.00    +0.046 A 
ATOM     32  C   UNL     1      -5.490 -12.983  36.807  0.00  0.00    +0.046 A 
ATOM     33  C   UNL     1      -6.464 -12.846  35.817  0.00  0.00    +0.120 A 
BRANCH  33   2
ATOM      2  O   UNL     1      -6.609 -13.809  34.868  0.00  0.00    -0.495 OA
ATOM     36  C   UNL     1      -7.899 -13.945  34.274  0.00  0.00    +0.277 C 
ENDBRANCH  33   2
ENDBRANCH  20  23
ENDBRANCH  15   4
ENDBRANCH  10  15
TORSDOF 7
ENDMDL
MODEL 8
REMARK VINA RESULT:      -5.7     16.466     20.027
REMARK  Name = 26742486
REMARK  11 active torsions:
REMARK  status: ('A' for Active; 'I' for Inactive)
REMARK    1  A    between atoms: O_2  and  C_33
REMARK    2  A    between atoms: O_2  and  C_36
REMARK    3  A    between atoms: N_4  and  C_15
REMARK    4  A    between atoms: N_7  and  C_30
REMARK    5  A    between atoms: N_7  and  C_34
REMARK    6  A    between atoms: N_7  and  C_35
REMARK    7  A    between atoms: C_9  and  C_16
REMARK    8  A    between atoms: C_10  and  C_15
REMARK    9  A    between atoms: C_18  and  C_21
REMARK   10  A    between atoms: C_19  and  C_22
REMARK   11  A    between atoms: C_20  and  C_23
REMARK                            x       y       z     vdW  Elec       q    Type
REMARK                         _______ _______ _______ _____ _____    ______ ____
ROOT
ATOM      3  N   UNL     1       8.229  10.706   5.065  0.00  0.00    -0.297 NA
ATOM      8  C   UNL     1       7.611   8.982   3.213  0.00  0.00    +0.002 C 
ATOM      9  C   UNL     1       7.917   8.255   4.553  0.00  0.00    +0.055 C 
ATOM     10  C   UNL     1       9.028  10.968   3.839  0.00  0.00    +0.074 C 
ATOM     11  C   UNL     1       8.829   9.836   2.807  0.00  0.00    +0.024 C 
ATOM     12  C   UNL     1       6.445   9.955   3.492  0.00  0.00    +0.019 C 
ATOM     13  C   UNL     1       8.469   9.322   5.543  0.00  0.00    +0.094 C 
ATOM     14  C   UNL     1       6.796  10.830   4.707  0.00  0.00    +0.085 C 
ENDROOT
BRANCH   9  16
ATOM      5  N   UNL     1       8.943   6.339   5.673  0.00  0.00    -0.237 NA
ATOM      6  N   UNL     1      10.325   4.752   4.498  0.00  0.00    -0.232 NA
ATOM     16  C   UNL     1       8.782   7.004   4.511  0.00  0.00    +0.050 A 
ATOM     17  C   UNL     1       9.352   6.610   3.317  0.00  0.00    +0.052 A 
ATOM     18  C   UNL     1      10.121   5.466   3.371  0.00  0.00    +0.075 A 
ATOM     19  C   UNL     1       9.715   5.238   5.596  0.00  0.00    +0.127 A 
ATOM     22  C   UNL     1       9.918   4.477   6.862  0.00  0.00    +0.088 C 
BRANCH  18  21
ATOM     21  C   UNL     1      10.773   4.950   2.192  0.00  0.00    +0.001 A 
ATOM     24  C   UNL     1      10.353   5.360   0.926  0.00  0.00    +0.012 A 
ATOM     25  C   UNL     1      11.824   4.041   2.318  0.00  0.00    +0.012 A 
ATOM     28  C   UNL     1      10.984   4.860  -0.214  0.00  0.00    +0.024 A 
ATOM     29  C   UNL     1      12.456   3.542   1.178  0.00  0.00    +0.024 A 
ATOM     30  C   UNL     1      12.036   3.952  -0.087  0.00  0.00    +0.029 A 
BRANCH  30   7
ATOM      7  N   UNL     1      12.673   3.447  -1.240  0.00  0.00    -0.336 N 
ATOM     34  C   UNL     1      13.970   3.953  -1.643  0.00  0.00    +0.129 C 
ATOM     35  C   UNL     1      12.043   2.409  -2.031  0.00  0.00    +0.129 C 
ENDBRANCH  30   7
ENDBRANCH  18  21
ENDBRANCH   9  16
BRANCH  10  15
ATOM     15  C   UNL     1      10.508  11.204   4.148  0.00  0.00    +0.123 C 
BRANCH  15   4
ATOM      1  O   UNL     1      11.794   8.896   5.272  0.00  0.00    -0.270 OA
ATOM      4  N   UNL     1      11.331  10.262   3.454  0.00  0.00    -0.310 N 
ATOM     20  C   UNL     1      11.919   9.164   4.080  0.00  0.00    +0.244 C 
ATOM     37  H   UNL     1      11.525  10.459   2.479  0.00  0.00    +0.149 HD
BRANCH  20  23
ATOM     23  C   UNL     1      12.766   8.294   3.225  0.00  0.00    +0.037 A 
ATOM     26  C   UNL     1      12.596   8.296   1.841  0.00  0.00    +0.016 A 
ATOM     27  C   UNL     1      13.732   7.472   3.807  0.00  0.00    +0.016 A 
ATOM     31  C   UNL     1      13.391   7.478   1.039  0.00  0.00    +0.046 A 
ATOM     32  C   UNL     1      14.526   6.654   3.004  0.00  0.00    +0.046 A 
ATOM     33  C   UNL     1      14.356   6.656   1.620  0.00  0.00    +0.120 A 
BRANCH  33   2
ATOM      2  O   UNL     1      15.131   5.857   0.838  0.00  0.00    -0.495 OA
ATOM     36  C   UNL     1      16.263   6.461   0.214  0.00  0.00    +0.277 C 
ENDBRANCH  33   2
ENDBRANCH  20  23
ENDBRANCH  15   4
ENDBRANCH  10  15
TORSDOF 7
ENDMDL
MODEL 9
REMARK VINA RESULT:      -5.6      4.292      7.132
REMARK  Name = 26742486
REMARK  11 active torsions:
REMARK  status: ('A' for Active; 'I' for Inactive)
REMARK    1  A    between atoms: O_2  and  C_33
REMARK    2  A    between atoms: O_2  and  C_36
REMARK    3  A    between atoms: N_4  and  C_15
REMARK    4  A    between atoms: N_7  and  C_30
REMARK    5  A    between atoms: N_7  and  C_34
REMARK    6  A    between atoms: N_7  and  C_35
REMARK    7  A    between atoms: C_9  and  C_16
REMARK    8  A    between atoms: C_10  and  C_15
REMARK    9  A    between atoms: C_18  and  C_21
REMARK   10  A    between atoms: C_19  and  C_22
REMARK   11  A    between atoms: C_20  and  C_23
REMARK                            x       y       z     vdW  Elec       q    Type
REMARK                         _______ _______ _______ _____ _____    ______ ____
ROOT
ATOM      3  N   UNL     1      11.601   7.629  20.190  0.00  0.00    -0.297 NA
ATOM      8  C   UNL     1      12.364   9.133  22.175  0.00  0.00    +0.002 C 
ATOM      9  C   UNL     1      12.165   9.986  20.891  0.00  0.00    +0.055 C 
ATOM     10  C   UNL     1      12.796   7.037  20.847  0.00  0.00    +0.074 C 
ATOM     11  C   UNL     1      13.385   8.013  21.888  0.00  0.00    +0.024 C 
ATOM     12  C   UNL     1      11.011   8.451  22.470  0.00  0.00    +0.019 C 
ATOM     13  C   UNL     1      11.910   9.000  19.714  0.00  0.00    +0.094 C 
ATOM     14  C   UNL     1      10.525   7.723  21.205  0.00  0.00    +0.085 C 
ENDROOT
BRANCH   9  16
ATOM      5  N   UNL     1      12.799  12.111  19.860  0.00  0.00    -0.237 NA
ATOM      6  N   UNL     1      15.061  12.940  19.912  0.00  0.00    -0.232 NA
ATOM     16  C   UNL     1      13.218  11.032  20.551  0.00  0.00    +0.050 A 
ATOM     17  C   UNL     1      14.523  10.838  20.954  0.00  0.00    +0.052 A 
ATOM     18  C   UNL     1      15.410  11.834  20.602  0.00  0.00    +0.075 A 
ATOM     19  C   UNL     1      13.758  13.013  19.578  0.00  0.00    +0.127 A 
ATOM     22  C   UNL     1      13.334  14.220  18.812  0.00  0.00    +0.088 C 
BRANCH  18  21
ATOM     21  C   UNL     1      16.806  11.751  20.962  0.00  0.00    +0.001 A 
ATOM     24  C   UNL     1      17.173  11.554  22.293  0.00  0.00    +0.012 A 
ATOM     25  C   UNL     1      17.787  11.867  19.977  0.00  0.00    +0.012 A 
ATOM     28  C   UNL     1      18.522  11.474  22.640  0.00  0.00    +0.024 A 
ATOM     29  C   UNL     1      19.136  11.785  20.323  0.00  0.00    +0.024 A 
ATOM     30  C   UNL     1      19.503  11.589  21.654  0.00  0.00    +0.029 A 
BRANCH  30   7
ATOM      7  N   UNL     1      20.867  11.508  22.005  0.00  0.00    -0.336 N 
ATOM     34  C   UNL     1      21.262  11.378  23.394  0.00  0.00    +0.129 C 
ATOM     35  C   UNL     1      21.891  11.544  20.981  0.00  0.00    +0.129 C 
ENDBRANCH  30   7
ENDBRANCH  18  21
ENDBRANCH   9  16
BRANCH  10  15
ATOM     15  C   UNL     1      13.849   6.577  19.837  0.00  0.00    +0.123 C 
BRANCH  15   4
ATOM      1  O   UNL     1      16.313   5.829  18.567  0.00  0.00    -0.270 OA
ATOM      4  N   UNL     1      15.169   6.786  20.345  0.00  0.00    -0.310 N 
ATOM     20  C   UNL     1      16.317   6.389  19.660  0.00  0.00    +0.244 C 
ATOM     37  H   UNL     1      15.241   7.189  21.272  0.00  0.00    +0.149 HD
BRANCH  20  23
ATOM     23  C   UNL     1      17.613   6.655  20.335  0.00  0.00    +0.037 A 
ATOM     26  C   UNL     1      18.708   5.826  20.093  0.00  0.00    +0.016 A 
ATOM     27  C   UNL     1      17.735   7.732  21.212  0.00  0.00    +0.016 A 
ATOM     31  C   UNL     1      19.925   6.074  20.728  0.00  0.00    +0.046 A 
ATOM     32  C   UNL     1      18.951   7.980  21.848  0.00  0.00    +0.046 A 
ATOM     33  C   UNL     1      20.047   7.151  21.606  0.00  0.00    +0.120 A 
BRANCH  33   2
ATOM      2  O   UNL     1      21.233   7.393  22.226  0.00  0.00    -0.495 OA
ATOM     36  C   UNL     1      21.495   6.674  23.430  0.00  0.00    +0.277 C 
ENDBRANCH  33   2
ENDBRANCH  20  23
ENDBRANCH  15   4
ENDBRANCH  10  15
TORSDOF 7
ENDMDL
MODEL 10
REMARK VINA RESULT:      -5.6     14.628     20.308
REMARK  Name = 26742486
REMARK  11 active torsions:
REMARK  status: ('A' for Active; 'I' for Inactive)
REMARK    1  A    between atoms: O_2  and  C_33
REMARK    2  A    between atoms: O_2  and  C_36
REMARK    3  A    between atoms: N_4  and  C_15
REMARK    4  A    between atoms: N_7  and  C_30
REMARK    5  A    between atoms: N_7  and  C_34
REMARK    6  A    between atoms: N_7  and  C_35
REMARK    7  A    between atoms: C_9  and  C_16
REMARK    8  A    between atoms: C_10  and  C_15
REMARK    9  A    between atoms: C_18  and  C_21
REMARK   10  A    between atoms: C_19  and  C_22
REMARK   11  A    between atoms: C_20  and  C_23
REMARK                            x       y       z     vdW  Elec       q    Type
REMARK                         _______ _______ _______ _____ _____    ______ ____
ROOT
ATOM      3  N   UNL     1       9.294   7.818   7.594  0.00  0.00    -0.297 NA
ATOM      8  C   UNL     1       9.870   5.553   6.444  0.00  0.00    +0.002 C 
ATOM      9  C   UNL     1      11.121   6.475   6.489  0.00  0.00    +0.055 C 
ATOM     10  C   UNL     1       8.288   7.511   6.543  0.00  0.00    +0.074 C 
ATOM     11  C   UNL     1       8.724   6.284   5.713  0.00  0.00    +0.024 C 
ATOM     12  C   UNL     1       9.418   5.347   7.906  0.00  0.00    +0.019 C 
ATOM     13  C   UNL     1      10.652   7.868   6.999  0.00  0.00    +0.094 C 
ATOM     14  C   UNL     1       9.263   6.718   8.587  0.00  0.00    +0.085 C 
ENDROOT
BRANCH   9  16
ATOM      5  N   UNL     1      13.133   7.274   5.350  0.00  0.00    -0.237 NA
ATOM      6  N   UNL     1      13.570   6.797   3.029  0.00  0.00    -0.232 NA
ATOM     16  C   UNL     1      11.983   6.577   5.238  0.00  0.00    +0.050 A 
ATOM     17  C   UNL     1      11.564   5.970   4.072  0.00  0.00    +0.052 A 
ATOM     18  C   UNL     1      12.406   6.116   2.988  0.00  0.00    +0.075 A 
ATOM     19  C   UNL     1      13.867   7.343   4.224  0.00  0.00    +0.127 A 
ATOM     22  C   UNL     1      15.145   8.106   4.308  0.00  0.00    +0.088 C 
BRANCH  18  21
ATOM     21  C   UNL     1      12.083   5.530   1.710  0.00  0.00    +0.001 A 
ATOM     24  C   UNL     1      10.855   4.895   1.523  0.00  0.00    +0.012 A 
ATOM     25  C   UNL     1      13.000   5.598   0.660  0.00  0.00    +0.012 A 
ATOM     28  C   UNL     1      10.543   4.329   0.286  0.00  0.00    +0.024 A 
ATOM     29  C   UNL     1      12.687   5.033  -0.577  0.00  0.00    +0.024 A 
ATOM     30  C   UNL     1      11.459   4.399  -0.764  0.00  0.00    +0.029 A 
BRANCH  30   7
ATOM      7  N   UNL     1      11.144   3.827  -2.013  0.00  0.00    -0.336 N 
ATOM     34  C   UNL     1      10.050   4.351  -2.807  0.00  0.00    +0.129 C 
ATOM     35  C   UNL     1      11.915   2.711  -2.525  0.00  0.00    +0.129 C 
ENDBRANCH  30   7
ENDBRANCH  18  21
ENDBRANCH   9  16
BRANCH  10  15
ATOM     15  C   UNL     1       7.985   8.721   5.656  0.00  0.00    +0.123 C 
BRANCH  15   4
ATOM      1  O   UNL     1      10.207  10.064   4.431  0.00  0.00    -0.270 OA
ATOM      4  N   UNL     1       8.480   8.517   4.330  0.00  0.00    -0.310 N 
ATOM     20  C   UNL     1       9.570   9.216   3.812  0.00  0.00    +0.244 C 
ATOM     37  H   UNL     1       7.960   7.874   3.743  0.00  0.00    +0.149 HD
BRANCH  20  23
ATOM     23  C   UNL     1       9.944   8.908   2.409  0.00  0.00    +0.037 A 
ATOM     26  C   UNL     1      11.175   9.331   1.906  0.00  0.00    +0.016 A 
ATOM     27  C   UNL     1       9.065   8.198   1.591  0.00  0.00    +0.016 A 
ATOM     31  C   UNL     1      11.525   9.044   0.587  0.00  0.00    +0.046 A 
ATOM     32  C   UNL     1       9.416   7.911   0.273  0.00  0.00    +0.046 A 
ATOM     33  C   UNL     1      10.646   8.333  -0.230  0.00  0.00    +0.120 A 
BRANCH  33   2
ATOM      2  O   UNL     1      10.988   8.053  -1.517  0.00  0.00    -0.495 OA
ATOM     36  C   UNL     1      12.247   8.544  -1.976  0.00  0.00    +0.277 C 
ENDBRANCH  33   2
ENDBRANCH  20  23
ENDBRANCH  15   4
ENDBRANCH  10  15
TORSDOF 7
ENDMDL
