MODEL 1
REMARK VINA RESULT:      -7.1      0.000      0.000
REMARK  Name = 45783416
REMARK  9 active torsions:
REMARK  status: ('A' for Active; 'I' for Inactive)
REMARK    1  A    between atoms: O_2  and  C_25
REMARK    2  A    between atoms: O_2  and  C_29
REMARK    3  A    between atoms: O_3  and  C_30
REMARK    4  A    between atoms: O_3  and  C_31
REMARK    5  A    between atoms: N_4  and  C_13
REMARK    6  A    between atoms: C_9  and  C_14
REMARK    7  A    between atoms: C_13  and  C_15
REMARK    8  A    between atoms: C_19  and  C_23
REMARK    9  A    between atoms: C_29  and  C_30
REMARK                            x       y       z     vdW  Elec       q    Type
REMARK                         _______ _______ _______ _____ _____    ______ ____
ROOT
ATOM      4  N   UNL     1      12.947   8.098  20.832  0.00  0.00    -0.287 NA
ATOM      9  C   UNL     1      11.737   8.890  20.535  0.00  0.00    +0.146 C 
ATOM     10  C   UNL     1      10.568   8.026  21.043  0.00  0.00    +0.030 C 
ATOM     11  C   UNL     1      12.537   6.694  20.815  0.00  0.00    +0.085 C 
ATOM     12  C   UNL     1      11.214   6.744  21.552  0.00  0.00    +0.017 C 
ENDROOT
BRANCH   9  14
ATOM      1  O   UNL     1      12.406  11.241  20.477  0.00  0.00    -0.336 OA
ATOM      5  N   UNL     1      11.267  10.660  22.315  0.00  0.00    -0.190 NA
ATOM      7  N   UNL     1      12.306  12.400  21.255  0.00  0.00    -0.056 NA
ATOM     14  C   UNL     1      11.768  10.263  21.173  0.00  0.00    +0.245 A 
ATOM     19  C   UNL     1      11.621  11.977  22.322  0.00  0.00    +0.207 A 
BRANCH  19  23
ATOM      8  N   UNL     1      11.606  13.561  25.695  0.00  0.00    -0.221 NA
ATOM     23  C   UNL     1      11.274  12.845  23.410  0.00  0.00    +0.084 A 
ATOM     25  C   UNL     1      11.901  12.765  24.643  0.00  0.00    +0.226 A 
ATOM     26  C   UNL     1      10.282  13.806  23.245  0.00  0.00    +0.018 A 
ATOM     27  C   UNL     1       9.951  14.643  24.304  0.00  0.00    +0.021 A 
ATOM     28  C   UNL     1      10.637  14.483  25.498  0.00  0.00    +0.114 A 
BRANCH  25   2
ATOM      2  O   UNL     1      12.885  11.833  24.855  0.00  0.00    -0.474 OA
BRANCH   2  29
ATOM     29  C   UNL     1      14.229  12.287  24.746  0.00  0.00    +0.258 C 
BRANCH  29  30
ATOM     30  C   UNL     1      15.026  11.757  25.922  0.00  0.00    +0.200 C 
BRANCH  30   3
ATOM      3  O   UNL     1      14.238  11.862  27.102  0.00  0.00    -0.380 OA
ATOM     31  C   UNL     1      14.634  12.971  27.896  0.00  0.00    +0.194 C 
ENDBRANCH  30   3
ENDBRANCH  29  30
ENDBRANCH   2  29
ENDBRANCH  25   2
ENDBRANCH  19  23
ENDBRANCH   9  14
BRANCH   4  13
ATOM     13  C   UNL     1      14.045   8.361  19.912  0.00  0.00    +0.122 C 
BRANCH  13  15
ATOM      6  N   UNL     1      17.072   8.661  21.983  0.00  0.00    -0.360 N 
ATOM     15  C   UNL     1      15.384   8.270  20.595  0.00  0.00    -0.008 A 
ATOM     16  C   UNL     1      16.440   7.373  20.275  0.00  0.00    +0.004 A 
ATOM     17  C   UNL     1      15.802   9.049  21.650  0.00  0.00    +0.088 A 
ATOM     18  C   UNL     1      17.487   7.638  21.160  0.00  0.00    +0.047 A 
ATOM     20  C   UNL     1      16.607   6.356  19.313  0.00  0.00    +0.010 A 
ATOM     21  C   UNL     1      18.697   6.935  21.131  0.00  0.00    +0.026 A 
ATOM     22  C   UNL     1      17.812   5.645  19.273  0.00  0.00    +0.001 A 
ATOM     24  C   UNL     1      18.840   5.932  20.169  0.00  0.00    +0.002 A 
ATOM     32  H   UNL     1      17.624   9.065  22.726  0.00  0.00    +0.165 HD
ENDBRANCH  13  15
ENDBRANCH   4  13
TORSDOF 8
ENDMDL
MODEL 2
REMARK VINA RESULT:      -6.7      3.051      6.003
REMARK  Name = 45783416
REMARK  9 active torsions:
REMARK  status: ('A' for Active; 'I' for Inactive)
REMARK    1  A    between atoms: O_2  and  C_25
REMARK    2  A    between atoms: O_2  and  C_29
REMARK    3  A    between atoms: O_3  and  C_30
REMARK    4  A    between atoms: O_3  and  C_31
REMARK    5  A    between atoms: N_4  and  C_13
REMARK    6  A    between atoms: C_9  and  C_14
REMARK    7  A    between atoms: C_13  and  C_15
REMARK    8  A    between atoms: C_19  and  C_23
REMARK    9  A    between atoms: C_29  and  C_30
REMARK                            x       y       z     vdW  Elec       q    Type
REMARK                         _______ _______ _______ _____ _____    ______ ____
ROOT
ATOM      4  N   UNL     1      17.770   9.294  20.971  0.00  0.00    -0.287 NA
ATOM      9  C   UNL     1      16.865  10.352  21.463  0.00  0.00    +0.146 C 
ATOM     10  C   UNL     1      17.637  11.665  21.236  0.00  0.00    +0.030 C 
ATOM     11  C   UNL     1      19.131   9.804  21.136  0.00  0.00    +0.085 C 
ATOM     12  C   UNL     1      18.986  11.240  20.671  0.00  0.00    +0.017 C 
ENDROOT
BRANCH   9  14
ATOM      1  O   UNL     1      14.591  11.218  21.226  0.00  0.00    -0.336 OA
ATOM      5  N   UNL     1      15.107   9.593  19.773  0.00  0.00    -0.190 NA
ATOM      7  N   UNL     1      13.449  11.022  20.441  0.00  0.00    -0.056 NA
ATOM     14  C   UNL     1      15.520  10.339  20.767  0.00  0.00    +0.245 A 
ATOM     19  C   UNL     1      13.831  10.049  19.608  0.00  0.00    +0.207 A 
BRANCH  19  23
ATOM      8  N   UNL     1      11.225   7.961  17.954  0.00  0.00    -0.221 NA
ATOM     23  C   UNL     1      12.964   9.511  18.600  0.00  0.00    +0.084 A 
ATOM     25  C   UNL     1      12.060   8.497  18.873  0.00  0.00    +0.226 A 
ATOM     26  C   UNL     1      13.013  10.008  17.302  0.00  0.00    +0.018 A 
ATOM     27  C   UNL     1      12.170   9.482  16.330  0.00  0.00    +0.021 A 
ATOM     28  C   UNL     1      11.301   8.469  16.704  0.00  0.00    +0.114 A 
BRANCH  25   2
ATOM      2  O   UNL     1      11.975   7.973  20.137  0.00  0.00    -0.474 OA
BRANCH   2  29
ATOM     29  C   UNL     1      10.749   8.173  20.830  0.00  0.00    +0.258 C 
BRANCH  29  30
ATOM     30  C   UNL     1      11.048   8.488  22.283  0.00  0.00    +0.200 C 
BRANCH  30   3
ATOM      3  O   UNL     1      10.368   9.682  22.650  0.00  0.00    -0.380 OA
ATOM     31  C   UNL     1      11.241  10.602  23.291  0.00  0.00    +0.194 C 
ENDBRANCH  30   3
ENDBRANCH  29  30
ENDBRANCH   2  29
ENDBRANCH  25   2
ENDBRANCH  19  23
ENDBRANCH   9  14
BRANCH   4  13
ATOM     13  C   UNL     1      17.578   8.016  21.644  0.00  0.00    +0.122 C 
BRANCH  13  15
ATOM      6  N   UNL     1      18.803   5.337  19.440  0.00  0.00    -0.360 N 
ATOM     15  C   UNL     1      18.291   6.896  20.935  0.00  0.00    -0.008 A 
ATOM     16  C   UNL     1      19.486   6.251  21.357  0.00  0.00    +0.004 A 
ATOM     17  C   UNL     1      17.895   6.313  19.753  0.00  0.00    +0.088 A 
ATOM     18  C   UNL     1      19.787   5.277  20.402  0.00  0.00    +0.047 A 
ATOM     20  C   UNL     1      20.346   6.402  22.464  0.00  0.00    +0.010 A 
ATOM     21  C   UNL     1      20.907   4.443  20.499  0.00  0.00    +0.026 A 
ATOM     22  C   UNL     1      21.470   5.575  22.574  0.00  0.00    +0.001 A 
ATOM     24  C   UNL     1      21.744   4.611  21.605  0.00  0.00    +0.002 A 
ATOM     32  H   UNL     1      18.760   4.747  18.621  0.00  0.00    +0.165 HD
ENDBRANCH  13  15
ENDBRANCH   4  13
TORSDOF 8
ENDMDL
MODEL 3
REMARK VINA RESULT:      -6.5     26.769     29.672
REMARK  Name = 45783416
REMARK  9 active torsions:
REMARK  status: ('A' for Active; 'I' for Inactive)
REMARK    1  A    between atoms: O_2  and  C_25
REMARK    2  A    between atoms: O_2  and  C_29
REMARK    3  A    between atoms: O_3  and  C_30
REMARK    4  A    between atoms: O_3  and  C_31
REMARK    5  A    between atoms: N_4  and  C_13
REMARK    6  A    between atoms: C_9  and  C_14
REMARK    7  A    between atoms: C_13  and  C_15
REMARK    8  A    between atoms: C_19  and  C_23
REMARK    9  A    between atoms: C_29  and  C_30
REMARK                            x       y       z     vdW  Elec       q    Type
REMARK                         _______ _______ _______ _____ _____    ______ ____
ROOT
ATOM      4  N   UNL     1      -3.357 -10.638  14.623  0.00  0.00    -0.287 NA
ATOM      9  C   UNL     1      -3.185 -11.450  15.844  0.00  0.00    +0.146 C 
ATOM     10  C   UNL     1      -1.830 -11.004  16.424  0.00  0.00    +0.030 C 
ATOM     11  C   UNL     1      -2.011 -10.325  14.142  0.00  0.00    +0.085 C 
ATOM     12  C   UNL     1      -1.289  -9.985  15.430  0.00  0.00    +0.017 C 
ENDROOT
BRANCH   9  14
ATOM      1  O   UNL     1      -4.104 -10.433  17.868  0.00  0.00    -0.336 OA
ATOM      5  N   UNL     1      -5.514 -11.826  16.824  0.00  0.00    -0.190 NA
ATOM      7  N   UNL     1      -5.281 -10.435  18.626  0.00  0.00    -0.056 NA
ATOM     14  C   UNL     1      -4.325 -11.276  16.825  0.00  0.00    +0.245 A 
ATOM     19  C   UNL     1      -6.063 -11.280  17.947  0.00  0.00    +0.207 A 
BRANCH  19  23
ATOM      8  N   UNL     1      -9.733 -10.990  18.531  0.00  0.00    -0.221 NA
ATOM     23  C   UNL     1      -7.399 -11.598  18.362  0.00  0.00    +0.084 A 
ATOM     25  C   UNL     1      -8.459 -10.731  18.155  0.00  0.00    +0.226 A 
ATOM     26  C   UNL     1      -7.662 -12.810  18.993  0.00  0.00    +0.018 A 
ATOM     27  C   UNL     1      -8.959 -13.111  19.393  0.00  0.00    +0.021 A 
ATOM     28  C   UNL     1      -9.950 -12.176  19.141  0.00  0.00    +0.114 A 
BRANCH  25   2
ATOM      2  O   UNL     1      -8.251  -9.524  17.538  0.00  0.00    -0.474 OA
BRANCH   2  29
ATOM     29  C   UNL     1      -9.200  -9.139  16.551  0.00  0.00    +0.258 C 
BRANCH  29  30
ATOM     30  C   UNL     1      -9.866  -7.847  16.982  0.00  0.00    +0.200 C 
BRANCH  30   3
ATOM      3  O   UNL     1      -9.927  -6.962  15.870  0.00  0.00    -0.380 OA
ATOM     31  C   UNL     1     -11.065  -6.114  15.942  0.00  0.00    +0.194 C 
ENDBRANCH  30   3
ENDBRANCH  29  30
ENDBRANCH   2  29
ENDBRANCH  25   2
ENDBRANCH  19  23
ENDBRANCH   9  14
BRANCH   4  13
ATOM     13  C   UNL     1      -4.164 -11.297  13.605  0.00  0.00    +0.122 C 
BRANCH  13  15
ATOM      6  N   UNL     1      -6.660  -8.918  12.323  0.00  0.00    -0.360 N 
ATOM     15  C   UNL     1      -5.019 -10.317  12.846  0.00  0.00    -0.008 A 
ATOM     16  C   UNL     1      -4.773  -9.813  11.539  0.00  0.00    +0.004 A 
ATOM     17  C   UNL     1      -6.186  -9.748  13.302  0.00  0.00    +0.088 A 
ATOM     18  C   UNL     1      -5.818  -8.937  11.234  0.00  0.00    +0.047 A 
ATOM     20  C   UNL     1      -3.759 -10.018  10.582  0.00  0.00    +0.010 A 
ATOM     21  C   UNL     1      -5.899  -8.253  10.016  0.00  0.00    +0.026 A 
ATOM     22  C   UNL     1      -3.828  -9.341   9.359  0.00  0.00    +0.001 A 
ATOM     24  C   UNL     1      -4.882  -8.472   9.082  0.00  0.00    +0.002 A 
ATOM     32  H   UNL     1      -7.506  -8.369  12.389  0.00  0.00    +0.165 HD
ENDBRANCH  13  15
ENDBRANCH   4  13
TORSDOF 8
ENDMDL
MODEL 4
REMARK VINA RESULT:      -6.4      2.770      6.703
REMARK  Name = 45783416
REMARK  9 active torsions:
REMARK  status: ('A' for Active; 'I' for Inactive)
REMARK    1  A    between atoms: O_2  and  C_25
REMARK    2  A    between atoms: O_2  and  C_29
REMARK    3  A    between atoms: O_3  and  C_30
REMARK    4  A    between atoms: O_3  and  C_31
REMARK    5  A    between atoms: N_4  and  C_13
REMARK    6  A    between atoms: C_9  and  C_14
REMARK    7  A    between atoms: C_13  and  C_15
REMARK    8  A    between atoms: C_19  and  C_23
REMARK    9  A    between atoms: C_29  and  C_30
REMARK                            x       y       z     vdW  Elec       q    Type
REMARK                         _______ _______ _______ _____ _____    ______ ____
ROOT
ATOM      4  N   UNL     1      12.503  11.009  22.712  0.00  0.00    -0.287 NA
ATOM      9  C   UNL     1      13.728  11.817  22.551  0.00  0.00    +0.146 C 
ATOM     10  C   UNL     1      14.101  12.251  23.981  0.00  0.00    +0.030 C 
ATOM     11  C   UNL     1      11.833  11.508  23.913  0.00  0.00    +0.085 C 
ATOM     12  C   UNL     1      12.996  11.693  24.867  0.00  0.00    +0.017 C 
ENDROOT
BRANCH   9  14
ATOM      1  O   UNL     1      15.737  11.796  21.159  0.00  0.00    -0.336 OA
ATOM      5  N   UNL     1      15.077   9.767  21.842  0.00  0.00    -0.190 NA
ATOM      7  N   UNL     1      16.656  10.886  20.621  0.00  0.00    -0.056 NA
ATOM     14  C   UNL     1      14.842  11.055  21.864  0.00  0.00    +0.245 A 
ATOM     19  C   UNL     1      16.200   9.712  21.069  0.00  0.00    +0.207 A 
BRANCH  19  23
ATOM      8  N   UNL     1      18.704   6.952  21.053  0.00  0.00    -0.221 NA
ATOM     23  C   UNL     1      16.843   8.467  20.762  0.00  0.00    +0.084 A 
ATOM     25  C   UNL     1      18.063   8.114  21.314  0.00  0.00    +0.226 A 
ATOM     26  C   UNL     1      16.240   7.570  19.886  0.00  0.00    +0.018 A 
ATOM     27  C   UNL     1      16.869   6.365  19.593  0.00  0.00    +0.021 A 
ATOM     28  C   UNL     1      18.088   6.105  20.198  0.00  0.00    +0.114 A 
BRANCH  25   2
ATOM      2  O   UNL     1      18.697   8.965  22.182  0.00  0.00    -0.474 OA
BRANCH   2  29
ATOM     29  C   UNL     1      20.108   8.827  22.296  0.00  0.00    +0.258 C 
BRANCH  29  30
ATOM     30  C   UNL     1      20.495   8.900  23.761  0.00  0.00    +0.200 C 
BRANCH  30   3
ATOM      3  O   UNL     1      21.030  10.190  24.036  0.00  0.00    -0.380 OA
ATOM     31  C   UNL     1      20.134  10.968  24.818  0.00  0.00    +0.194 C 
ENDBRANCH  30   3
ENDBRANCH  29  30
ENDBRANCH   2  29
ENDBRANCH  25   2
ENDBRANCH  19  23
ENDBRANCH   9  14
BRANCH   4  13
ATOM     13  C   UNL     1      11.634  11.046  21.543  0.00  0.00    +0.122 C 
BRANCH  13  15
ATOM      6  N   UNL     1      11.122   7.628  20.282  0.00  0.00    -0.360 N 
ATOM     15  C   UNL     1      11.609   9.725  20.821  0.00  0.00    -0.008 A 
ATOM     16  C   UNL     1      12.333   9.390  19.643  0.00  0.00    +0.004 A 
ATOM     17  C   UNL     1      10.873   8.622  21.189  0.00  0.00    +0.088 A 
ATOM     18  C   UNL     1      12.010   8.068  19.325  0.00  0.00    +0.047 A 
ATOM     20  C   UNL     1      13.235  10.085  18.813  0.00  0.00    +0.010 A 
ATOM     21  C   UNL     1      12.547   7.406  18.216  0.00  0.00    +0.026 A 
ATOM     22  C   UNL     1      13.780   9.434  17.700  0.00  0.00    +0.001 A 
ATOM     24  C   UNL     1      13.440   8.115  17.408  0.00  0.00    +0.002 A 
ATOM     32  H   UNL     1      10.713   6.705  20.308  0.00  0.00    +0.165 HD
ENDBRANCH  13  15
ENDBRANCH   4  13
TORSDOF 8
ENDMDL
MODEL 5
REMARK VINA RESULT:      -6.4     27.159     29.866
REMARK  Name = 45783416
REMARK  9 active torsions:
REMARK  status: ('A' for Active; 'I' for Inactive)
REMARK    1  A    between atoms: O_2  and  C_25
REMARK    2  A    between atoms: O_2  and  C_29
REMARK    3  A    between atoms: O_3  and  C_30
REMARK    4  A    between atoms: O_3  and  C_31
REMARK    5  A    between atoms: N_4  and  C_13
REMARK    6  A    between atoms: C_9  and  C_14
REMARK    7  A    between atoms: C_13  and  C_15
REMARK    8  A    between atoms: C_19  and  C_23
REMARK    9  A    between atoms: C_29  and  C_30
REMARK                            x       y       z     vdW  Elec       q    Type
REMARK                         _______ _______ _______ _____ _____    ______ ____
ROOT
ATOM      4  N   UNL     1      -3.771 -10.718  14.950  0.00  0.00    -0.287 NA
ATOM      9  C   UNL     1      -3.906 -11.380  16.263  0.00  0.00    +0.146 C 
ATOM     10  C   UNL     1      -2.573 -11.100  16.982  0.00  0.00    +0.030 C 
ATOM     11  C   UNL     1      -2.342 -10.706  14.638  0.00  0.00    +0.085 C 
ATOM     12  C   UNL     1      -1.732 -10.329  15.974  0.00  0.00    +0.017 C 
ENDROOT
BRANCH   9  14
ATOM      1  O   UNL     1      -4.942 -10.760  18.388  0.00  0.00    -0.336 OA
ATOM      5  N   UNL     1      -6.298 -10.559  16.617  0.00  0.00    -0.190 NA
ATOM      7  N   UNL     1      -6.166 -10.297  18.886  0.00  0.00    -0.056 NA
ATOM     14  C   UNL     1      -5.105 -10.886  17.045  0.00  0.00    +0.245 A 
ATOM     19  C   UNL     1      -6.913 -10.203  17.781  0.00  0.00    +0.207 A 
BRANCH  19  23
ATOM      8  N   UNL     1     -10.571 -10.097  18.488  0.00  0.00    -0.221 NA
ATOM     23  C   UNL     1      -8.277  -9.757  17.807  0.00  0.00    +0.084 A 
ATOM     25  C   UNL     1      -9.275 -10.480  18.439  0.00  0.00    +0.226 A 
ATOM     26  C   UNL     1      -8.630  -8.564  17.186  0.00  0.00    +0.018 A 
ATOM     27  C   UNL     1      -9.953  -8.138  17.215  0.00  0.00    +0.021 A 
ATOM     28  C   UNL     1     -10.877  -8.933  17.874  0.00  0.00    +0.114 A 
BRANCH  25   2
ATOM      2  O   UNL     1      -8.976 -11.663  19.066  0.00  0.00    -0.474 OA
BRANCH   2  29
ATOM     29  C   UNL     1      -9.729 -12.803  18.671  0.00  0.00    +0.258 C 
BRANCH  29  30
ATOM     30  C   UNL     1      -8.810 -14.008  18.618  0.00  0.00    +0.200 C 
BRANCH  30   3
ATOM      3  O   UNL     1      -7.528 -13.594  18.162  0.00  0.00    -0.380 OA
ATOM     31  C   UNL     1      -7.303 -13.985  16.814  0.00  0.00    +0.194 C 
ENDBRANCH  30   3
ENDBRANCH  29  30
ENDBRANCH   2  29
ENDBRANCH  25   2
ENDBRANCH  19  23
ENDBRANCH   9  14
BRANCH   4  13
ATOM     13  C   UNL     1      -4.556 -11.357  13.902  0.00  0.00    +0.122 C 
BRANCH  13  15
ATOM      6  N   UNL     1      -6.672  -8.865  12.213  0.00  0.00    -0.360 N 
ATOM     15  C   UNL     1      -5.221 -10.346  13.006  0.00  0.00    -0.008 A 
ATOM     16  C   UNL     1      -4.747  -9.890  11.745  0.00  0.00    +0.004 A 
ATOM     17  C   UNL     1      -6.407  -9.698  13.267  0.00  0.00    +0.088 A 
ATOM     18  C   UNL     1      -5.675  -8.961  11.268  0.00  0.00    +0.047 A 
ATOM     20  C   UNL     1      -3.612 -10.178  10.960  0.00  0.00    +0.010 A 
ATOM     21  C   UNL     1      -5.525  -8.304  10.042  0.00  0.00    +0.026 A 
ATOM     22  C   UNL     1      -3.449  -9.528   9.731  0.00  0.00    +0.001 A 
ATOM     24  C   UNL     1      -4.392  -8.606   9.281  0.00  0.00    +0.002 A 
ATOM     32  H   UNL     1      -7.481  -8.265  12.139  0.00  0.00    +0.165 HD
ENDBRANCH  13  15
ENDBRANCH   4  13
TORSDOF 8
ENDMDL
MODEL 6
REMARK VINA RESULT:      -6.4     19.019     22.426
REMARK  Name = 45783416
REMARK  9 active torsions:
REMARK  status: ('A' for Active; 'I' for Inactive)
REMARK    1  A    between atoms: O_2  and  C_25
REMARK    2  A    between atoms: O_2  and  C_29
REMARK    3  A    between atoms: O_3  and  C_30
REMARK    4  A    between atoms: O_3  and  C_31
REMARK    5  A    between atoms: N_4  and  C_13
REMARK    6  A    between atoms: C_9  and  C_14
REMARK    7  A    between atoms: C_13  and  C_15
REMARK    8  A    between atoms: C_19  and  C_23
REMARK    9  A    between atoms: C_29  and  C_30
REMARK                            x       y       z     vdW  Elec       q    Type
REMARK                         _______ _______ _______ _____ _____    ______ ____
ROOT
ATOM      4  N   UNL     1      11.205   6.398   3.669  0.00  0.00    -0.287 NA
ATOM      9  C   UNL     1      11.114   7.057   2.350  0.00  0.00    +0.146 C 
ATOM     10  C   UNL     1      12.525   7.617   2.094  0.00  0.00    +0.030 C 
ATOM     11  C   UNL     1      12.254   7.099   4.409  0.00  0.00    +0.085 C 
ATOM     12  C   UNL     1      13.321   7.279   3.348  0.00  0.00    +0.017 C 
ENDROOT
BRANCH   9  14
ATOM      1  O   UNL     1      10.217   4.891   1.659  0.00  0.00    -0.336 OA
ATOM      5  N   UNL     1      10.616   6.298  -0.037  0.00  0.00    -0.190 NA
ATOM      7  N   UNL     1       9.853   4.207   0.493  0.00  0.00    -0.056 NA
ATOM     14  C   UNL     1      10.654   6.113   1.259  0.00  0.00    +0.245 A 
ATOM     19  C   UNL     1      10.117   5.102  -0.464  0.00  0.00    +0.207 A 
BRANCH  19  23
ATOM      8  N   UNL     1      10.438   3.589  -3.855  0.00  0.00    -0.221 NA
ATOM     23  C   UNL     1       9.893   4.834  -1.856  0.00  0.00    +0.084 A 
ATOM     25  C   UNL     1      10.616   3.875  -2.545  0.00  0.00    +0.226 A 
ATOM     26  C   UNL     1       8.922   5.544  -2.554  0.00  0.00    +0.018 A 
ATOM     27  C   UNL     1       8.710   5.279  -3.902  0.00  0.00    +0.021 A 
ATOM     28  C   UNL     1       9.487   4.300  -4.501  0.00  0.00    +0.114 A 
BRANCH  25   2
ATOM      2  O   UNL     1      11.584   3.148  -1.900  0.00  0.00    -0.474 OA
BRANCH   2  29
ATOM     29  C   UNL     1      12.935   3.495  -2.178  0.00  0.00    +0.258 C 
BRANCH  29  30
ATOM     30  C   UNL     1      13.622   3.881  -0.883  0.00  0.00    +0.200 C 
BRANCH  30   3
ATOM      3  O   UNL     1      13.108   3.078   0.173  0.00  0.00    -0.380 OA
ATOM     31  C   UNL     1      13.451   3.610   1.445  0.00  0.00    +0.194 C 
ENDBRANCH  30   3
ENDBRANCH  29  30
ENDBRANCH   2  29
ENDBRANCH  25   2
ENDBRANCH  19  23
ENDBRANCH   9  14
BRANCH   4  13
ATOM     13  C   UNL     1       9.940   6.383   4.391  0.00  0.00    +0.122 C 
BRANCH  13  15
ATOM      6  N   UNL     1      10.029   3.339   6.456  0.00  0.00    -0.360 N 
ATOM     15  C   UNL     1       9.913   5.316   5.452  0.00  0.00    -0.008 A 
ATOM     16  C   UNL     1       9.643   5.503   6.837  0.00  0.00    +0.004 A 
ATOM     17  C   UNL     1      10.147   3.975   5.249  0.00  0.00    +0.088 A 
ATOM     18  C   UNL     1       9.723   4.248   7.444  0.00  0.00    +0.047 A 
ATOM     20  C   UNL     1       9.338   6.624   7.634  0.00  0.00    +0.010 A 
ATOM     21  C   UNL     1       9.511   4.057   8.814  0.00  0.00    +0.026 A 
ATOM     22  C   UNL     1       9.124   6.448   9.007  0.00  0.00    +0.001 A 
ATOM     24  C   UNL     1       9.210   5.183   9.585  0.00  0.00    +0.002 A 
ATOM     32  H   UNL     1      10.152   2.347   6.602  0.00  0.00    +0.165 HD
ENDBRANCH  13  15
ENDBRANCH   4  13
TORSDOF 8
ENDMDL
MODEL 7
REMARK VINA RESULT:      -6.3     28.007     30.243
REMARK  Name = 45783416
REMARK  9 active torsions:
REMARK  status: ('A' for Active; 'I' for Inactive)
REMARK    1  A    between atoms: O_2  and  C_25
REMARK    2  A    between atoms: O_2  and  C_29
REMARK    3  A    between atoms: O_3  and  C_30
REMARK    4  A    between atoms: O_3  and  C_31
REMARK    5  A    between atoms: N_4  and  C_13
REMARK    6  A    between atoms: C_9  and  C_14
REMARK    7  A    between atoms: C_13  and  C_15
REMARK    8  A    between atoms: C_19  and  C_23
REMARK    9  A    between atoms: C_29  and  C_30
REMARK                            x       y       z     vdW  Elec       q    Type
REMARK                         _______ _______ _______ _____ _____    ______ ____
ROOT
ATOM      4  N   UNL     1      -4.685 -11.003  15.418  0.00  0.00    -0.287 NA
ATOM      9  C   UNL     1      -5.263 -11.609  16.634  0.00  0.00    +0.146 C 
ATOM     10  C   UNL     1      -4.144 -11.514  17.688  0.00  0.00    +0.030 C 
ATOM     11  C   UNL     1      -3.239 -11.209  15.500  0.00  0.00    +0.085 C 
ATOM     12  C   UNL     1      -2.960 -10.898  16.957  0.00  0.00    +0.017 C 
ENDROOT
BRANCH   9  14
ATOM      1  O   UNL     1      -6.554  -9.569  17.012  0.00  0.00    -0.336 OA
ATOM      5  N   UNL     1      -7.653 -11.453  17.520  0.00  0.00    -0.190 NA
ATOM      7  N   UNL     1      -7.818  -9.172  17.465  0.00  0.00    -0.056 NA
ATOM     14  C   UNL     1      -6.540 -10.926  17.075  0.00  0.00    +0.245 A 
ATOM     19  C   UNL     1      -8.407 -10.339  17.745  0.00  0.00    +0.207 A 
BRANCH  19  23
ATOM      8  N   UNL     1     -12.131 -10.440  17.848  0.00  0.00    -0.221 NA
ATOM     23  C   UNL     1      -9.748 -10.425  18.249  0.00  0.00    +0.084 A 
ATOM     25  C   UNL     1     -10.852 -10.363  17.416  0.00  0.00    +0.226 A 
ATOM     26  C   UNL     1      -9.969 -10.579  19.614  0.00  0.00    +0.018 A 
ATOM     27  C   UNL     1     -11.270 -10.662  20.095  0.00  0.00    +0.021 A 
ATOM     28  C   UNL     1     -12.308 -10.589  19.180  0.00  0.00    +0.114 A 
BRANCH  25   2
ATOM      2  O   UNL     1     -10.685 -10.211  16.063  0.00  0.00    -0.474 OA
BRANCH   2  29
ATOM     29  C   UNL     1     -11.369  -9.124  15.452  0.00  0.00    +0.258 C 
BRANCH  29  30
ATOM     30  C   UNL     1     -10.363  -8.046  15.094  0.00  0.00    +0.200 C 
BRANCH  30   3
ATOM      3  O   UNL     1     -10.201  -7.174  16.207  0.00  0.00    -0.380 OA
ATOM     31  C   UNL     1     -11.207  -6.172  16.233  0.00  0.00    +0.194 C 
ENDBRANCH  30   3
ENDBRANCH  29  30
ENDBRANCH   2  29
ENDBRANCH  25   2
ENDBRANCH  19  23
ENDBRANCH   9  14
BRANCH   4  13
ATOM     13  C   UNL     1      -5.247 -11.540  14.186  0.00  0.00    +0.122 C 
BRANCH  13  15
ATOM      6  N   UNL     1      -6.708  -8.797  12.216  0.00  0.00    -0.360 N 
ATOM     15  C   UNL     1      -5.613 -10.450  13.214  0.00  0.00    -0.008 A 
ATOM     16  C   UNL     1      -4.865 -10.045  12.074  0.00  0.00    +0.004 A 
ATOM     17  C   UNL     1      -6.740  -9.664  13.276  0.00  0.00    +0.088 A 
ATOM     18  C   UNL     1      -5.573  -9.007  11.465  0.00  0.00    +0.047 A 
ATOM     20  C   UNL     1      -3.648 -10.464  11.498  0.00  0.00    +0.010 A 
ATOM     21  C   UNL     1      -5.125  -8.364  10.306  0.00  0.00    +0.026 A 
ATOM     22  C   UNL     1      -3.188  -9.830  10.338  0.00  0.00    +0.001 A 
ATOM     24  C   UNL     1      -3.916  -8.797   9.753  0.00  0.00    +0.002 A 
ATOM     32  H   UNL     1      -7.413  -8.102  12.015  0.00  0.00    +0.165 HD
ENDBRANCH  13  15
ENDBRANCH   4  13
TORSDOF 8
ENDMDL
MODEL 8
REMARK VINA RESULT:      -6.3     28.503     30.469
REMARK  Name = 45783416
REMARK  9 active torsions:
REMARK  status: ('A' for Active; 'I' for Inactive)
REMARK    1  A    between atoms: O_2  and  C_25
REMARK    2  A    between atoms: O_2  and  C_29
REMARK    3  A    between atoms: O_3  and  C_30
REMARK    4  A    between atoms: O_3  and  C_31
REMARK    5  A    between atoms: N_4  and  C_13
REMARK    6  A    between atoms: C_9  and  C_14
REMARK    7  A    between atoms: C_13  and  C_15
REMARK    8  A    between atoms: C_19  and  C_23
REMARK    9  A    between atoms: C_29  and  C_30
REMARK                            x       y       z     vdW  Elec       q    Type
REMARK                         _______ _______ _______ _____ _____    ______ ____
ROOT
ATOM      4  N   UNL     1      -3.711 -11.980  13.760  0.00  0.00    -0.287 NA
ATOM      9  C   UNL     1      -2.767 -12.076  12.629  0.00  0.00    +0.146 C 
ATOM     10  C   UNL     1      -2.683 -13.582  12.315  0.00  0.00    +0.030 C 
ATOM     11  C   UNL     1      -3.615 -13.245  14.488  0.00  0.00    +0.085 C 
ATOM     12  C   UNL     1      -3.565 -14.254  13.359  0.00  0.00    +0.017 C 
ENDROOT
BRANCH   9  14
ATOM      1  O   UNL     1      -2.617 -10.037  11.289  0.00  0.00    -0.336 OA
ATOM      5  N   UNL     1      -4.077 -11.542  10.502  0.00  0.00    -0.190 NA
ATOM      7  N   UNL     1      -3.172  -9.473  10.134  0.00  0.00    -0.056 NA
ATOM     14  C   UNL     1      -3.203 -11.255  11.434  0.00  0.00    +0.245 A 
ATOM     19  C   UNL     1      -4.023 -10.421   9.728  0.00  0.00    +0.207 A 
BRANCH  19  23
ATOM      8  N   UNL     1      -6.665  -9.203   7.399  0.00  0.00    -0.221 NA
ATOM     23  C   UNL     1      -4.833 -10.277   8.552  0.00  0.00    +0.084 A 
ATOM     25  C   UNL     1      -5.877  -9.370   8.485  0.00  0.00    +0.226 A 
ATOM     26  C   UNL     1      -4.579 -11.062   7.432  0.00  0.00    +0.018 A 
ATOM     27  C   UNL     1      -5.368 -10.918   6.297  0.00  0.00    +0.021 A 
ATOM     28  C   UNL     1      -6.389  -9.982   6.330  0.00  0.00    +0.114 A 
BRANCH  25   2
ATOM      2  O   UNL     1      -6.167  -8.574   9.563  0.00  0.00    -0.474 OA
BRANCH   2  29
ATOM     29  C   UNL     1      -7.381  -8.848  10.252  0.00  0.00    +0.258 C 
BRANCH  29  30
ATOM     30  C   UNL     1      -7.059  -9.269  11.673  0.00  0.00    +0.200 C 
BRANCH  30   3
ATOM      3  O   UNL     1      -7.027 -10.690  11.740  0.00  0.00    -0.380 OA
ATOM     31  C   UNL     1      -8.022 -11.273  10.910  0.00  0.00    +0.194 C 
ENDBRANCH  30   3
ENDBRANCH  29  30
ENDBRANCH   2  29
ENDBRANCH  25   2
ENDBRANCH  19  23
ENDBRANCH   9  14
BRANCH   4  13
ATOM     13  C   UNL     1      -3.460 -10.831  14.620  0.00  0.00    +0.122 C 
BRANCH  13  15
ATOM      6  N   UNL     1      -6.611  -9.786  16.207  0.00  0.00    -0.360 N 
ATOM     15  C   UNL     1      -4.640 -10.525  15.505  0.00  0.00    -0.008 A 
ATOM     16  C   UNL     1      -4.777 -10.862  16.880  0.00  0.00    +0.004 A 
ATOM     17  C   UNL     1      -5.784  -9.865  15.120  0.00  0.00    +0.088 A 
ATOM     18  C   UNL     1      -6.023 -10.388  17.297  0.00  0.00    +0.047 A 
ATOM     20  C   UNL     1      -3.958 -11.529  17.814  0.00  0.00    +0.010 A 
ATOM     21  C   UNL     1      -6.492 -10.546  18.606  0.00  0.00    +0.026 A 
ATOM     22  C   UNL     1      -4.415 -11.694  19.127  0.00  0.00    +0.001 A 
ATOM     24  C   UNL     1      -5.663 -11.209  19.514  0.00  0.00    +0.002 A 
ATOM     32  H   UNL     1      -7.523  -9.351  16.211  0.00  0.00    +0.165 HD
ENDBRANCH  13  15
ENDBRANCH   4  13
TORSDOF 8
ENDMDL
MODEL 9
REMARK VINA RESULT:      -6.3     16.196     19.493
REMARK  Name = 45783416
REMARK  9 active torsions:
REMARK  status: ('A' for Active; 'I' for Inactive)
REMARK    1  A    between atoms: O_2  and  C_25
REMARK    2  A    between atoms: O_2  and  C_29
REMARK    3  A    between atoms: O_3  and  C_30
REMARK    4  A    between atoms: O_3  and  C_31
REMARK    5  A    between atoms: N_4  and  C_13
REMARK    6  A    between atoms: C_9  and  C_14
REMARK    7  A    between atoms: C_13  and  C_15
REMARK    8  A    between atoms: C_19  and  C_23
REMARK    9  A    between atoms: C_29  and  C_30
REMARK                            x       y       z     vdW  Elec       q    Type
REMARK                         _______ _______ _______ _____ _____    ______ ____
ROOT
ATOM      4  N   UNL     1      14.377   9.343   5.837  0.00  0.00    -0.287 NA
ATOM      9  C   UNL     1      14.390   9.823   4.441  0.00  0.00    +0.146 C 
ATOM     10  C   UNL     1      15.818  10.359   4.225  0.00  0.00    +0.030 C 
ATOM     11  C   UNL     1      15.365  10.144   6.559  0.00  0.00    +0.085 C 
ATOM     12  C   UNL     1      16.512  10.194   5.570  0.00  0.00    +0.017 C 
ENDROOT
BRANCH   9  14
ATOM      1  O   UNL     1      13.662   9.156   2.205  0.00  0.00    -0.336 OA
ATOM      5  N   UNL     1      13.981   7.442   3.611  0.00  0.00    -0.190 NA
ATOM      7  N   UNL     1      13.364   7.997   1.479  0.00  0.00    -0.056 NA
ATOM     14  C   UNL     1      14.017   8.741   3.449  0.00  0.00    +0.245 A 
ATOM     19  C   UNL     1      13.576   7.029   2.376  0.00  0.00    +0.207 A 
BRANCH  19  23
ATOM      8  N   UNL     1      11.992   3.669   2.073  0.00  0.00    -0.221 NA
ATOM     23  C   UNL     1      13.392   5.639   2.070  0.00  0.00    +0.084 A 
ATOM     25  C   UNL     1      12.208   4.976   2.345  0.00  0.00    +0.226 A 
ATOM     26  C   UNL     1      14.421   4.916   1.476  0.00  0.00    +0.018 A 
ATOM     27  C   UNL     1      14.237   3.569   1.183  0.00  0.00    +0.021 A 
ATOM     28  C   UNL     1      13.014   2.998   1.497  0.00  0.00    +0.114 A 
BRANCH  25   2
ATOM      2  O   UNL     1      11.164   5.646   2.929  0.00  0.00    -0.474 OA
BRANCH   2  29
ATOM     29  C   UNL     1      10.567   5.033   4.066  0.00  0.00    +0.258 C 
BRANCH  29  30
ATOM     30  C   UNL     1       9.442   5.915   4.570  0.00  0.00    +0.200 C 
BRANCH  30   3
ATOM      3  O   UNL     1       9.671   7.252   4.138  0.00  0.00    -0.380 OA
ATOM     31  C   UNL     1       8.528   7.792   3.489  0.00  0.00    +0.194 C 
ENDBRANCH  30   3
ENDBRANCH  29  30
ENDBRANCH   2  29
ENDBRANCH  25   2
ENDBRANCH  19  23
ENDBRANCH   9  14
BRANCH   4  13
ATOM     13  C   UNL     1      13.059   9.411   6.454  0.00  0.00    +0.122 C 
BRANCH  13  15
ATOM      6  N   UNL     1      12.609   5.931   7.563  0.00  0.00    -0.360 N 
ATOM     15  C   UNL     1      12.601   8.064   6.947  0.00  0.00    -0.008 A 
ATOM     16  C   UNL     1      11.282   7.711   7.346  0.00  0.00    +0.004 A 
ATOM     17  C   UNL     1      13.394   6.949   7.092  0.00  0.00    +0.088 A 
ATOM     18  C   UNL     1      11.314   6.368   7.728  0.00  0.00    +0.047 A 
ATOM     20  C   UNL     1      10.059   8.407   7.420  0.00  0.00    +0.010 A 
ATOM     21  C   UNL     1      10.180   5.684   8.181  0.00  0.00    +0.026 A 
ATOM     22  C   UNL     1       8.917   7.735   7.871  0.00  0.00    +0.001 A 
ATOM     24  C   UNL     1       8.979   6.395   8.245  0.00  0.00    +0.002 A 
ATOM     32  H   UNL     1      12.933   4.995   7.762  0.00  0.00    +0.165 HD
ENDBRANCH  13  15
ENDBRANCH   4  13
TORSDOF 8
ENDMDL
MODEL 10
REMARK VINA RESULT:      -6.3     28.483     30.729
REMARK  Name = 45783416
REMARK  9 active torsions:
REMARK  status: ('A' for Active; 'I' for Inactive)
REMARK    1  A    between atoms: O_2  and  C_25
REMARK    2  A    between atoms: O_2  and  C_29
REMARK    3  A    between atoms: O_3  and  C_30
REMARK    4  A    between atoms: O_3  and  C_31
REMARK    5  A    between atoms: N_4  and  C_13
REMARK    6  A    between atoms: C_9  and  C_14
REMARK    7  A    between atoms: C_13  and  C_15
REMARK    8  A    between atoms: C_19  and  C_23
REMARK    9  A    between atoms: C_29  and  C_30
REMARK                            x       y       z     vdW  Elec       q    Type
REMARK                         _______ _______ _______ _____ _____    ______ ____
ROOT
ATOM      4  N   UNL     1      -3.626 -12.061  13.861  0.00  0.00    -0.287 NA
ATOM      9  C   UNL     1      -2.738 -12.031  12.682  0.00  0.00    +0.146 C 
ATOM     10  C   UNL     1      -2.685 -13.490  12.193  0.00  0.00    +0.030 C 
ATOM     11  C   UNL     1      -3.508 -13.403  14.433  0.00  0.00    +0.085 C 
ATOM     12  C   UNL     1      -3.523 -14.275  13.194  0.00  0.00    +0.017 C 
ENDROOT
BRANCH   9  14
ATOM      1  O   UNL     1      -2.332 -10.141  11.186  0.00  0.00    -0.336 OA
ATOM      5  N   UNL     1      -4.391 -11.007  11.026  0.00  0.00    -0.190 NA
ATOM      7  N   UNL     1      -2.997  -9.384  10.214  0.00  0.00    -0.056 NA
ATOM     14  C   UNL     1      -3.222 -11.075  11.612  0.00  0.00    +0.245 A 
ATOM     19  C   UNL     1      -4.205  -9.956  10.176  0.00  0.00    +0.207 A 
BRANCH  19  23
ATOM      8  N   UNL     1      -6.380  -9.621   7.169  0.00  0.00    -0.221 NA
ATOM     23  C   UNL     1      -5.246  -9.502   9.300  0.00  0.00    +0.084 A 
ATOM     25  C   UNL     1      -5.413 -10.019   8.027  0.00  0.00    +0.226 A 
ATOM     26  C   UNL     1      -6.129  -8.514   9.723  0.00  0.00    +0.018 A 
ATOM     27  C   UNL     1      -7.136  -8.078   8.869  0.00  0.00    +0.021 A 
ATOM     28  C   UNL     1      -7.219  -8.659   7.614  0.00  0.00    +0.114 A 
BRANCH  25   2
ATOM      2  O   UNL     1      -4.568 -10.995   7.564  0.00  0.00    -0.474 OA
BRANCH   2  29
ATOM     29  C   UNL     1      -5.063 -11.828   6.523  0.00  0.00    +0.258 C 
BRANCH  29  30
ATOM     30  C   UNL     1      -3.961 -12.055   5.506  0.00  0.00    +0.200 C 
BRANCH  30   3
ATOM      3  O   UNL     1      -4.531 -12.082   4.202  0.00  0.00    -0.380 OA
ATOM     31  C   UNL     1      -5.889 -11.668   4.220  0.00  0.00    +0.194 C 
ENDBRANCH  30   3
ENDBRANCH  29  30
ENDBRANCH   2  29
ENDBRANCH  25   2
ENDBRANCH  19  23
ENDBRANCH   9  14
BRANCH   4  13
ATOM     13  C   UNL     1      -3.323 -11.021  14.834  0.00  0.00    +0.122 C 
BRANCH  13  15
ATOM      6  N   UNL     1      -6.513  -9.636  16.038  0.00  0.00    -0.360 N 
ATOM     15  C   UNL     1      -4.554 -10.573  15.578  0.00  0.00    -0.008 A 
ATOM     16  C   UNL     1      -4.858 -10.826  16.944  0.00  0.00    +0.004 A 
ATOM     17  C   UNL     1      -5.590  -9.840  15.047  0.00  0.00    +0.088 A 
ATOM     18  C   UNL     1      -6.092 -10.228  17.208  0.00  0.00    +0.047 A 
ATOM     20  C   UNL     1      -4.200 -11.510  17.986  0.00  0.00    +0.010 A 
ATOM     21  C   UNL     1      -6.703 -10.279  18.465  0.00  0.00    +0.026 A 
ATOM     22  C   UNL     1      -4.799 -11.568  19.250  0.00  0.00    +0.001 A 
ATOM     24  C   UNL     1      -6.032 -10.962  19.483  0.00  0.00    +0.002 A 
ATOM     32  H   UNL     1      -7.379  -9.127  15.927  0.00  0.00    +0.165 HD
ENDBRANCH  13  15
ENDBRANCH   4  13
TORSDOF 8
ENDMDL
