REMARK  Name = 75368692
REMARK  4 active torsions:
REMARK  status: ('A' for Active; 'I' for Inactive)
REMARK    1  A    between atoms: N_3  and  C_11
REMARK    2  A    between atoms: N_4  and  C_12
REMARK    3  A    between atoms: C_11  and  C_13
REMARK    4  A    between atoms: C_18  and  C_19
REMARK                            x       y       z     vdW  Elec       q    Type
REMARK                         _______ _______ _______ _____ _____    ______ ____
ROOT
ATOM      1  O   UNL     1      -0.624   2.292   1.274  0.00  0.00    -0.252 OA
ATOM      2  N   UNL     1      -2.141   0.837   0.225  0.00  0.00    -0.278 N 
ATOM      3  N   UNL     1      -0.162   1.209  -0.770  0.00  0.00    -0.279 N 
ATOM      4  N   UNL     1      -4.031  -1.226  -0.057  0.00  0.00    -0.302 NA
ATOM      5  C   UNL     1      -2.232   0.137  -1.039  0.00  0.00    +0.109 C 
ATOM      6  C   UNL     1      -0.811   0.205  -1.595  0.00  0.00    +0.133 C 
ATOM      7  C   UNL     1      -2.771  -1.278  -0.825  0.00  0.00    +0.108 C 
ATOM      8  C   UNL     1      -3.274   0.824   1.127  0.00  0.00    +0.125 C 
ATOM      9  C   UNL     1      -3.817  -0.600   1.264  0.00  0.00    +0.103 C 
ATOM     10  C   UNL     1      -0.938   1.544   0.358  0.00  0.00    +0.305 C 
ATOM     12  C   UNL     1      -4.587  -2.570   0.101  0.00  0.00    +0.105 C 
ENDROOT
BRANCH   3  11
ATOM     11  C   UNL     1       1.185   1.665  -1.034  0.00  0.00    +0.144 C 
BRANCH  11  13
ATOM     13  C   UNL     1       2.215   0.711  -0.502  0.00  0.00    -0.030 A 
ATOM     14  C   UNL     1       2.478   0.662   0.867  0.00  0.00    +0.005 A 
ATOM     15  C   UNL     1       2.911  -0.124  -1.376  0.00  0.00    +0.005 A 
ATOM     16  C   UNL     1       3.437  -0.222   1.362  0.00  0.00    +0.003 A 
ATOM     17  C   UNL     1       3.870  -1.008  -0.882  0.00  0.00    +0.003 A 
ATOM     18  C   UNL     1       4.133  -1.057   0.487  0.00  0.00    -0.050 A 
ATOM     19  C   UNL     1       5.159  -2.001   1.017  0.00  0.00    +0.044 C 
ENDBRANCH  11  13
ENDBRANCH   3  11
TORSDOF 2
