REMARK  Name = 45784300
REMARK  5 active torsions:
REMARK  status: ('A' for Active; 'I' for Inactive)
REMARK    1  A    between atoms: O_2  and  C_19
REMARK    2  A    between atoms: O_2  and  C_22
REMARK    3  A    between atoms: N_3  and  C_11
REMARK    4  A    between atoms: C_6  and  C_10
REMARK    5  A    between atoms: C_11  and  C_12
REMARK                            x       y       z     vdW  Elec       q    Type
REMARK                         _______ _______ _______ _____ _____    ______ ____
ROOT
ATOM      4  N   UNL     1       1.630   0.193   1.215  0.00  0.00    -0.341 N 
ATOM      5  N   UNL     1       1.147   0.882  -0.843  0.00  0.00    -0.232 NA
ATOM     10  C   UNL     1       0.693   0.741   0.383  0.00  0.00    +0.113 A 
ATOM     13  C   UNL     1       2.763  -0.035   0.477  0.00  0.00    +0.070 A 
ATOM     14  C   UNL     1       2.437   0.404  -0.803  0.00  0.00    +0.089 A 
ATOM     15  C   UNL     1       4.008  -0.571   0.810  0.00  0.00    +0.073 A 
ATOM     18  C   UNL     1       3.397   0.309  -1.825  0.00  0.00    +0.033 A 
ATOM     19  C   UNL     1       4.951  -0.657  -0.219  0.00  0.00    +0.122 A 
ATOM     20  C   UNL     1       4.653  -0.225  -1.514  0.00  0.00    +0.048 A 
ATOM     23  H   UNL     1       1.512  -0.009   2.199  0.00  0.00    +0.167 HD
ENDROOT
BRANCH  10   6
ATOM      3  N   UNL     1      -2.922   1.318   0.223  0.00  0.00    -0.297 NA
ATOM      6  C   UNL     1      -0.681   1.116   0.886  0.00  0.00    +0.070 C 
ATOM      7  C   UNL     1      -1.041   2.605   0.734  0.00  0.00    +0.028 C 
ATOM      8  C   UNL     1      -1.808   0.368   0.162  0.00  0.00    +0.096 C 
ATOM      9  C   UNL     1      -2.326   2.618  -0.085  0.00  0.00    +0.085 C 
BRANCH   3  11
ATOM     11  C   UNL     1      -3.998   0.971  -0.693  0.00  0.00    +0.120 C 
BRANCH  11  12
ATOM      1  S   UNL     1      -5.401  -2.804  -0.552  0.00  0.00    -0.105 S 
ATOM     12  C   UNL     1      -4.603  -0.369  -0.366  0.00  0.00    -0.026 A 
ATOM     16  C   UNL     1      -5.197  -0.687   0.890  0.00  0.00    +0.012 A 
ATOM     17  C   UNL     1      -4.647  -1.430  -1.242  0.00  0.00    +0.050 A 
ATOM     21  C   UNL     1      -5.671  -1.980   0.925  0.00  0.00    +0.045 A 
ENDBRANCH  11  12
ENDBRANCH   3  11
ENDBRANCH  10   6
BRANCH  19   2
ATOM      2  O   UNL     1       6.185  -1.172   0.049  0.00  0.00    -0.495 OA
ATOM     22  C   UNL     1       6.432  -1.596   1.387  0.00  0.00    +0.277 C 
ENDBRANCH  19   2
TORSDOF 4
