MODEL 1
REMARK VINA RESULT:      -6.0      0.000      0.000
REMARK  Name = 75536551
REMARK  7 active torsions:
REMARK  status: ('A' for Active; 'I' for Inactive)
REMARK    1  A    between atoms: O_3  and  C_11
REMARK    2  A    between atoms: N_5  and  C_14
REMARK    3  A    between atoms: N_6  and  C_12
REMARK    4  A    between atoms: N_6  and  C_16
REMARK    5  A    between atoms: C_7  and  C_15
REMARK    6  A    between atoms: C_10  and  C_14
REMARK    7  A    between atoms: C_16  and  C_17
REMARK                            x       y       z     vdW  Elec       q    Type
REMARK                         _______ _______ _______ _____ _____    ______ ____
ROOT
ATOM      2  O   UNL     1       0.041   2.578  23.434  0.00  0.00    -0.371 OA
ATOM     10  C   UNL     1       0.218   1.625  24.495  0.00  0.00    +0.165 C 
ATOM     11  C   UNL     1      -0.765   2.025  25.587  0.00  0.00    +0.164 C 
ATOM     12  C   UNL     1      -0.744   3.536  25.460  0.00  0.00    +0.111 C 
ATOM     13  C   UNL     1      -0.678   3.711  23.952  0.00  0.00    +0.181 C 
ENDROOT
BRANCH  11   3
ATOM      3  O   UNL     1      -0.346   1.578  26.862  0.00  0.00    -0.388 OA
ATOM     23  H   UNL     1      -0.513   2.288  27.505  0.00  0.00    +0.210 HD
ENDBRANCH  11   3
BRANCH  12   6
ATOM      6  N   UNL     1      -1.898   4.188  26.056  0.00  0.00    -0.304 NA
ATOM     22  H   UNL     1      -1.605   5.079  26.457  0.00  0.00    +0.123 HD
BRANCH   6  16
ATOM     16  C   UNL     1      -2.937   4.432  25.061  0.00  0.00    +0.124 C 
BRANCH  16  17
ATOM      1  S   UNL     1      -4.110   2.124  24.049  0.00  0.00    -0.100 S 
ATOM     17  C   UNL     1      -4.052   3.427  25.159  0.00  0.00    +0.004 A 
ATOM     18  C   UNL     1      -5.099   3.390  26.054  0.00  0.00    +0.012 A 
ATOM     19  C   UNL     1      -5.959   2.277  25.827  0.00  0.00    +0.008 A 
ATOM     20  C   UNL     1      -5.538   1.506  24.767  0.00  0.00    +0.045 A 
ENDBRANCH  16  17
ENDBRANCH   6  16
ENDBRANCH  12   6
BRANCH  10  14
ATOM     14  C   UNL     1      -0.012   0.221  23.965  0.00  0.00    +0.138 C 
BRANCH  14   5
ATOM      4  O   UNL     1      -0.777  -2.286  25.228  0.00  0.00    -0.276 OA
ATOM      5  N   UNL     1      -1.338  -0.239  24.264  0.00  0.00    -0.313 N 
ATOM     15  C   UNL     1      -1.608  -1.457  24.871  0.00  0.00    +0.216 C 
ATOM     21  H   UNL     1      -2.114   0.367  24.014  0.00  0.00    +0.149 HD
BRANCH  15   7
ATOM      7  C   UNL     1      -3.059  -1.730  25.090  0.00  0.00    +0.075 C 
ATOM      8  C   UNL     1      -3.983  -1.642  23.921  0.00  0.00    +0.013 C 
ATOM      9  C   UNL     1      -3.642  -2.977  24.513  0.00  0.00    +0.013 C 
ENDBRANCH  15   7
ENDBRANCH  14   5
ENDBRANCH  10  14
TORSDOF 7
ENDMDL
MODEL 2
REMARK VINA RESULT:      -5.9     15.907     18.833
REMARK  Name = 75536551
REMARK  7 active torsions:
REMARK  status: ('A' for Active; 'I' for Inactive)
REMARK    1  A    between atoms: O_3  and  C_11
REMARK    2  A    between atoms: N_5  and  C_14
REMARK    3  A    between atoms: N_6  and  C_12
REMARK    4  A    between atoms: N_6  and  C_16
REMARK    5  A    between atoms: C_7  and  C_15
REMARK    6  A    between atoms: C_10  and  C_14
REMARK    7  A    between atoms: C_16  and  C_17
REMARK                            x       y       z     vdW  Elec       q    Type
REMARK                         _______ _______ _______ _____ _____    ______ ____
ROOT
ATOM      2  O   UNL     1      11.032   8.729  20.029  0.00  0.00    -0.371 OA
ATOM     10  C   UNL     1      10.857   7.760  21.077  0.00  0.00    +0.165 C 
ATOM     11  C   UNL     1      12.134   6.930  21.100  0.00  0.00    +0.164 C 
ATOM     12  C   UNL     1      12.485   6.894  19.624  0.00  0.00    +0.111 C 
ATOM     13  C   UNL     1      12.124   8.307  19.194  0.00  0.00    +0.181 C 
ENDROOT
BRANCH  11   3
ATOM      3  O   UNL     1      11.915   5.642  21.640  0.00  0.00    -0.388 OA
ATOM     23  H   UNL     1      12.025   4.988  20.929  0.00  0.00    +0.210 HD
ENDBRANCH  11   3
BRANCH  12   6
ATOM      6  N   UNL     1      13.875   6.560  19.363  0.00  0.00    -0.304 NA
ATOM     22  H   UNL     1      13.990   6.372  18.367  0.00  0.00    +0.123 HD
BRANCH   6  16
ATOM     16  C   UNL     1      14.761   7.655  19.746  0.00  0.00    +0.124 C 
BRANCH  16  17
ATOM      1  S   UNL     1      17.157   7.967  21.122  0.00  0.00    -0.100 S 
ATOM     17  C   UNL     1      16.174   7.183  19.958  0.00  0.00    +0.004 A 
ATOM     18  C   UNL     1      16.842   6.160  19.322  0.00  0.00    +0.012 A 
ATOM     19  C   UNL     1      18.177   6.015  19.797  0.00  0.00    +0.008 A 
ATOM     20  C   UNL     1      18.481   6.934  20.777  0.00  0.00    +0.045 A 
ENDBRANCH  16  17
ENDBRANCH   6  16
ENDBRANCH  12   6
BRANCH  10  14
ATOM     14  C   UNL     1      10.580   8.470  22.390  0.00  0.00    +0.138 C 
BRANCH  14   5
ATOM      4  O   UNL     1      11.006  11.341  22.192  0.00  0.00    -0.276 OA
ATOM      5  N   UNL     1      11.723   9.217  22.831  0.00  0.00    -0.313 N 
ATOM     15  C   UNL     1      11.838  10.593  22.694  0.00  0.00    +0.216 C 
ATOM     21  H   UNL     1      12.482   8.702  23.267  0.00  0.00    +0.149 HD
BRANCH  15   7
ATOM      7  C   UNL     1      13.111  11.161  23.226  0.00  0.00    +0.075 C 
ATOM      8  C   UNL     1      13.266  12.646  23.266  0.00  0.00    +0.013 C 
ATOM      9  C   UNL     1      13.079  11.873  24.538  0.00  0.00    +0.013 C 
ENDBRANCH  15   7
ENDBRANCH  14   5
ENDBRANCH  10  14
TORSDOF 7
ENDMDL
MODEL 3
REMARK VINA RESULT:      -5.9     15.673     17.411
REMARK  Name = 75536551
REMARK  7 active torsions:
REMARK  status: ('A' for Active; 'I' for Inactive)
REMARK    1  A    between atoms: O_3  and  C_11
REMARK    2  A    between atoms: N_5  and  C_14
REMARK    3  A    between atoms: N_6  and  C_12
REMARK    4  A    between atoms: N_6  and  C_16
REMARK    5  A    between atoms: C_7  and  C_15
REMARK    6  A    between atoms: C_10  and  C_14
REMARK    7  A    between atoms: C_16  and  C_17
REMARK                            x       y       z     vdW  Elec       q    Type
REMARK                         _______ _______ _______ _____ _____    ______ ____
ROOT
ATOM      2  O   UNL     1      13.418   8.251  21.333  0.00  0.00    -0.371 OA
ATOM     10  C   UNL     1      12.392   7.313  20.970  0.00  0.00    +0.165 C 
ATOM     11  C   UNL     1      11.068   8.039  21.167  0.00  0.00    +0.164 C 
ATOM     12  C   UNL     1      11.385   8.901  22.375  0.00  0.00    +0.111 C 
ATOM     13  C   UNL     1      12.814   9.324  22.077  0.00  0.00    +0.181 C 
ENDROOT
BRANCH  11   3
ATOM      3  O   UNL     1      10.003   7.140  21.403  0.00  0.00    -0.388 OA
ATOM     23  H   UNL     1      10.313   6.239  21.207  0.00  0.00    +0.210 HD
ENDBRANCH  11   3
BRANCH  12   6
ATOM      6  N   UNL     1      10.483  10.029  22.541  0.00  0.00    -0.304 NA
ATOM     22  H   UNL     1      10.104  10.013  23.487  0.00  0.00    +0.123 HD
BRANCH   6  16
ATOM     16  C   UNL     1      11.177  11.294  22.325  0.00  0.00    +0.124 C 
BRANCH  16  17
ATOM      1  S   UNL     1      11.155  11.821  25.055  0.00  0.00    -0.100 S 
ATOM     17  C   UNL     1      10.896  12.281  23.426  0.00  0.00    +0.004 A 
ATOM     18  C   UNL     1      10.432  13.574  23.321  0.00  0.00    +0.012 A 
ATOM     19  C   UNL     1      10.289  14.196  24.595  0.00  0.00    +0.008 A 
ATOM     20  C   UNL     1      10.647  13.355  25.625  0.00  0.00    +0.045 A 
ENDBRANCH  16  17
ENDBRANCH   6  16
ENDBRANCH  12   6
BRANCH  10  14
ATOM     14  C   UNL     1      12.611   6.840  19.544  0.00  0.00    +0.138 C 
BRANCH  14   5
ATOM      4  O   UNL     1      11.144   7.701  17.184  0.00  0.00    -0.276 OA
ATOM      5  N   UNL     1      12.922   7.937  18.673  0.00  0.00    -0.313 N 
ATOM     15  C   UNL     1      12.159   8.275  17.564  0.00  0.00    +0.216 C 
ATOM     21  H   UNL     1      13.745   8.491  18.889  0.00  0.00    +0.149 HD
BRANCH  15   7
ATOM      7  C   UNL     1      12.666   9.454  16.802  0.00  0.00    +0.075 C 
ATOM      8  C   UNL     1      13.490  10.468  17.525  0.00  0.00    +0.013 C 
ATOM      9  C   UNL     1      14.131   9.548  16.529  0.00  0.00    +0.013 C 
ENDBRANCH  15   7
ENDBRANCH  14   5
ENDBRANCH  10  14
TORSDOF 7
ENDMDL
MODEL 4
REMARK VINA RESULT:      -5.9     17.992     20.631
REMARK  Name = 75536551
REMARK  7 active torsions:
REMARK  status: ('A' for Active; 'I' for Inactive)
REMARK    1  A    between atoms: O_3  and  C_11
REMARK    2  A    between atoms: N_5  and  C_14
REMARK    3  A    between atoms: N_6  and  C_12
REMARK    4  A    between atoms: N_6  and  C_16
REMARK    5  A    between atoms: C_7  and  C_15
REMARK    6  A    between atoms: C_10  and  C_14
REMARK    7  A    between atoms: C_16  and  C_17
REMARK                            x       y       z     vdW  Elec       q    Type
REMARK                         _______ _______ _______ _____ _____    ______ ____
ROOT
ATOM      2  O   UNL     1      16.006   6.219  18.924  0.00  0.00    -0.371 OA
ATOM     10  C   UNL     1      15.034   6.603  19.911  0.00  0.00    +0.165 C 
ATOM     11  C   UNL     1      15.825   7.191  21.072  0.00  0.00    +0.164 C 
ATOM     12  C   UNL     1      17.073   6.328  21.043  0.00  0.00    +0.111 C 
ATOM     13  C   UNL     1      17.302   6.180  19.548  0.00  0.00    +0.181 C 
ENDROOT
BRANCH  11   3
ATOM      3  O   UNL     1      15.120   7.089  22.294  0.00  0.00    -0.388 OA
ATOM     23  H   UNL     1      14.785   6.181  22.380  0.00  0.00    +0.210 HD
ENDBRANCH  11   3
BRANCH  12   6
ATOM      6  N   UNL     1      18.207   6.919  21.734  0.00  0.00    -0.304 NA
ATOM     22  H   UNL     1      18.410   6.368  22.568  0.00  0.00    +0.123 HD
BRANCH   6  16
ATOM     16  C   UNL     1      19.389   6.944  20.879  0.00  0.00    +0.124 C 
BRANCH  16  17
ATOM      1  S   UNL     1      21.267   5.950  22.672  0.00  0.00    -0.100 S 
ATOM     17  C   UNL     1      20.355   5.844  21.227  0.00  0.00    +0.004 A 
ATOM     18  C   UNL     1      20.639   4.696  20.520  0.00  0.00    +0.012 A 
ATOM     19  C   UNL     1      21.617   3.892  21.173  0.00  0.00    +0.008 A 
ATOM     20  C   UNL     1      22.045   4.457  22.355  0.00  0.00    +0.045 A 
ENDBRANCH  16  17
ENDBRANCH   6  16
ENDBRANCH  12   6
BRANCH  10  14
ATOM     14  C   UNL     1      14.045   7.580  19.303  0.00  0.00    +0.138 C 
BRANCH  14   5
ATOM      4  O   UNL     1      11.251   8.098  18.680  0.00  0.00    -0.276 OA
ATOM      5  N   UNL     1      12.986   7.890  20.222  0.00  0.00    -0.313 N 
ATOM     15  C   UNL     1      11.676   8.123  19.830  0.00  0.00    +0.216 C 
ATOM     21  H   UNL     1      13.219   7.938  21.209  0.00  0.00    +0.149 HD
BRANCH  15   7
ATOM      7  C   UNL     1      10.741   8.424  20.953  0.00  0.00    +0.075 C 
ATOM      8  C   UNL     1      11.167   8.090  22.344  0.00  0.00    +0.013 C 
ATOM      9  C   UNL     1      11.098   9.521  21.901  0.00  0.00    +0.013 C 
ENDBRANCH  15   7
ENDBRANCH  14   5
ENDBRANCH  10  14
TORSDOF 7
ENDMDL
MODEL 5
REMARK VINA RESULT:      -5.3     17.315     19.933
REMARK  Name = 75536551
REMARK  7 active torsions:
REMARK  status: ('A' for Active; 'I' for Inactive)
REMARK    1  A    between atoms: O_3  and  C_11
REMARK    2  A    between atoms: N_5  and  C_14
REMARK    3  A    between atoms: N_6  and  C_12
REMARK    4  A    between atoms: N_6  and  C_16
REMARK    5  A    between atoms: C_7  and  C_15
REMARK    6  A    between atoms: C_10  and  C_14
REMARK    7  A    between atoms: C_16  and  C_17
REMARK                            x       y       z     vdW  Elec       q    Type
REMARK                         _______ _______ _______ _____ _____    ______ ____
ROOT
ATOM      2  O   UNL     1      14.246   7.341  18.397  0.00  0.00    -0.371 OA
ATOM     10  C   UNL     1      13.107   7.017  19.213  0.00  0.00    +0.165 C 
ATOM     11  C   UNL     1      13.611   6.997  20.650  0.00  0.00    +0.164 C 
ATOM     12  C   UNL     1      15.013   6.447  20.460  0.00  0.00    +0.111 C 
ATOM     13  C   UNL     1      15.439   7.143  19.177  0.00  0.00    +0.181 C 
ENDROOT
BRANCH  11   3
ATOM      3  O   UNL     1      12.811   6.175  21.477  0.00  0.00    -0.388 OA
ATOM     23  H   UNL     1      12.971   6.424  22.403  0.00  0.00    +0.210 HD
ENDBRANCH  11   3
BRANCH  12   6
ATOM      6  N   UNL     1      15.903   6.721  21.575  0.00  0.00    -0.304 NA
ATOM     22  H   UNL     1      16.297   5.841  21.909  0.00  0.00    +0.123 HD
BRANCH   6  16
ATOM     16  C   UNL     1      16.990   7.608  21.176  0.00  0.00    +0.124 C 
BRANCH  16  17
ATOM      1  S   UNL     1      19.454   7.228  22.408  0.00  0.00    -0.100 S 
ATOM     17  C   UNL     1      18.318   6.899  21.169  0.00  0.00    +0.004 A 
ATOM     18  C   UNL     1      18.792   5.973  20.266  0.00  0.00    +0.012 A 
ATOM     19  C   UNL     1      20.104   5.526  20.596  0.00  0.00    +0.008 A 
ATOM     20  C   UNL     1      20.584   6.128  21.738  0.00  0.00    +0.045 A 
ENDBRANCH  16  17
ENDBRANCH   6  16
ENDBRANCH  12   6
BRANCH  10  14
ATOM     14  C   UNL     1      12.004   8.033  18.979  0.00  0.00    +0.138 C 
BRANCH  14   5
ATOM      4  O   UNL     1      12.695  10.769  19.685  0.00  0.00    -0.276 OA
ATOM      5  N   UNL     1      11.675   8.734  20.187  0.00  0.00    -0.313 N 
ATOM     15  C   UNL     1      12.050  10.046  20.437  0.00  0.00    +0.216 C 
ATOM     21  H   UNL     1      11.138   8.235  20.889  0.00  0.00    +0.149 HD
BRANCH  15   7
ATOM      7  C   UNL     1      11.598  10.576  21.756  0.00  0.00    +0.075 C 
ATOM      8  C   UNL     1      12.613  10.764  22.835  0.00  0.00    +0.013 C 
ATOM      9  C   UNL     1      12.013  11.955  22.149  0.00  0.00    +0.013 C 
ENDBRANCH  15   7
ENDBRANCH  14   5
ENDBRANCH  10  14
TORSDOF 7
ENDMDL
MODEL 6
REMARK VINA RESULT:      -5.3     14.383     16.382
REMARK  Name = 75536551
REMARK  7 active torsions:
REMARK  status: ('A' for Active; 'I' for Inactive)
REMARK    1  A    between atoms: O_3  and  C_11
REMARK    2  A    between atoms: N_5  and  C_14
REMARK    3  A    between atoms: N_6  and  C_12
REMARK    4  A    between atoms: N_6  and  C_16
REMARK    5  A    between atoms: C_7  and  C_15
REMARK    6  A    between atoms: C_10  and  C_14
REMARK    7  A    between atoms: C_16  and  C_17
REMARK                            x       y       z     vdW  Elec       q    Type
REMARK                         _______ _______ _______ _____ _____    ______ ____
ROOT
ATOM      2  O   UNL     1     -12.144  -8.025  16.859  0.00  0.00    -0.371 OA
ATOM     10  C   UNL     1     -11.803  -6.836  16.126  0.00  0.00    +0.165 C 
ATOM     11  C   UNL     1     -10.365  -7.028  15.660  0.00  0.00    +0.164 C 
ATOM     12  C   UNL     1      -9.780  -7.798  16.829  0.00  0.00    +0.111 C 
ATOM     13  C   UNL     1     -10.930  -8.725  17.185  0.00  0.00    +0.181 C 
ENDROOT
BRANCH  11   3
ATOM      3  O   UNL     1      -9.714  -5.792  15.440  0.00  0.00    -0.388 OA
ATOM     23  H   UNL     1      -9.128  -5.615  16.196  0.00  0.00    +0.210 HD
ENDBRANCH  11   3
BRANCH  12   6
ATOM      6  N   UNL     1      -8.557  -8.513  16.502  0.00  0.00    -0.304 NA
ATOM     22  H   UNL     1      -7.766  -7.878  16.600  0.00  0.00    +0.123 HD
BRANCH   6  16
ATOM     16  C   UNL     1      -8.363  -9.656  17.388  0.00  0.00    +0.124 C 
BRANCH  16  17
ATOM      1  S   UNL     1      -5.864  -9.719  16.170  0.00  0.00    -0.100 S 
ATOM     17  C   UNL     1      -6.914 -10.052  17.481  0.00  0.00    +0.004 A 
ATOM     18  C   UNL     1      -6.262 -10.681  18.519  0.00  0.00    +0.012 A 
ATOM     19  C   UNL     1      -4.881 -10.891  18.235  0.00  0.00    +0.008 A 
ATOM     20  C   UNL     1      -4.531 -10.416  16.990  0.00  0.00    +0.045 A 
ENDBRANCH  16  17
ENDBRANCH   6  16
ENDBRANCH  12   6
BRANCH  10  14
ATOM     14  C   UNL     1     -12.782  -6.640  14.983  0.00  0.00    +0.138 C 
BRANCH  14   5
ATOM      4  O   UNL     1     -13.084  -6.098  12.141  0.00  0.00    -0.276 OA
ATOM      5  N   UNL     1     -12.544  -5.401  14.299  0.00  0.00    -0.313 N 
ATOM     15  C   UNL     1     -12.716  -5.237  12.932  0.00  0.00    +0.216 C 
ATOM     21  H   UNL     1     -12.235  -4.609  14.854  0.00  0.00    +0.149 HD
BRANCH  15   7
ATOM      7  C   UNL     1     -12.413  -3.863  12.433  0.00  0.00    +0.075 C 
ATOM      8  C   UNL     1     -11.988  -3.699  11.011  0.00  0.00    +0.013 C 
ATOM      9  C   UNL     1     -13.348  -3.241  11.450  0.00  0.00    +0.013 C 
ENDBRANCH  15   7
ENDBRANCH  14   5
ENDBRANCH  10  14
TORSDOF 7
ENDMDL
MODEL 7
REMARK VINA RESULT:      -5.2     23.552     25.629
REMARK  Name = 75536551
REMARK  7 active torsions:
REMARK  status: ('A' for Active; 'I' for Inactive)
REMARK    1  A    between atoms: O_3  and  C_11
REMARK    2  A    between atoms: N_5  and  C_14
REMARK    3  A    between atoms: N_6  and  C_12
REMARK    4  A    between atoms: N_6  and  C_16
REMARK    5  A    between atoms: C_7  and  C_15
REMARK    6  A    between atoms: C_10  and  C_14
REMARK    7  A    between atoms: C_16  and  C_17
REMARK                            x       y       z     vdW  Elec       q    Type
REMARK                         _______ _______ _______ _____ _____    ______ ____
ROOT
ATOM      2  O   UNL     1       9.519   7.054   3.223  0.00  0.00    -0.371 OA
ATOM     10  C   UNL     1       9.392   6.148   4.331  0.00  0.00    +0.165 C 
ATOM     11  C   UNL     1      10.643   5.280   4.311  0.00  0.00    +0.164 C 
ATOM     12  C   UNL     1      10.888   5.156   2.819  0.00  0.00    +0.111 C 
ATOM     13  C   UNL     1      10.538   6.555   2.338  0.00  0.00    +0.181 C 
ENDROOT
BRANCH  11   3
ATOM      3  O   UNL     1      10.426   4.029   4.934  0.00  0.00    -0.388 OA
ATOM     23  H   UNL     1      10.125   4.188   5.845  0.00  0.00    +0.210 HD
ENDBRANCH  11   3
BRANCH  12   6
ATOM      6  N   UNL     1      12.247   4.764   2.482  0.00  0.00    -0.304 NA
ATOM     22  H   UNL     1      12.288   3.749   2.397  0.00  0.00    +0.123 HD
BRANCH   6  16
ATOM     16  C   UNL     1      12.670   5.365   1.221  0.00  0.00    +0.124 C 
BRANCH  16  17
ATOM      1  S   UNL     1      11.097   4.883  -1.020  0.00  0.00    -0.100 S 
ATOM     17  C   UNL     1      12.372   4.472   0.047  0.00  0.00    +0.004 A 
ATOM     18  C   UNL     1      13.000   3.304  -0.323  0.00  0.00    +0.012 A 
ATOM     19  C   UNL     1      12.429   2.739  -1.500  0.00  0.00    +0.008 A 
ATOM     20  C   UNL     1      11.385   3.496  -1.984  0.00  0.00    +0.045 A 
ENDBRANCH  16  17
ENDBRANCH   6  16
ENDBRANCH  12   6
BRANCH  10  14
ATOM     14  C   UNL     1       9.227   6.934   5.619  0.00  0.00    +0.138 C 
BRANCH  14   5
ATOM      4  O   UNL     1       8.536   7.361   8.413  0.00  0.00    -0.276 OA
ATOM      5  N   UNL     1       9.662   6.172   6.755  0.00  0.00    -0.313 N 
ATOM     15  C   UNL     1       9.278   6.452   8.058  0.00  0.00    +0.216 C 
ATOM     21  H   UNL     1      10.284   5.387   6.584  0.00  0.00    +0.149 HD
BRANCH  15   7
ATOM      7  C   UNL     1       9.849   5.528   9.082  0.00  0.00    +0.075 C 
ATOM      8  C   UNL     1       8.911   4.823  10.006  0.00  0.00    +0.013 C 
ATOM      9  C   UNL     1       9.617   4.061   8.924  0.00  0.00    +0.013 C 
ENDBRANCH  15   7
ENDBRANCH  14   5
ENDBRANCH  10  14
TORSDOF 7
ENDMDL
MODEL 8
REMARK VINA RESULT:      -5.2     16.103     18.163
REMARK  Name = 75536551
REMARK  7 active torsions:
REMARK  status: ('A' for Active; 'I' for Inactive)
REMARK    1  A    between atoms: O_3  and  C_11
REMARK    2  A    between atoms: N_5  and  C_14
REMARK    3  A    between atoms: N_6  and  C_12
REMARK    4  A    between atoms: N_6  and  C_16
REMARK    5  A    between atoms: C_7  and  C_15
REMARK    6  A    between atoms: C_10  and  C_14
REMARK    7  A    between atoms: C_16  and  C_17
REMARK                            x       y       z     vdW  Elec       q    Type
REMARK                         _______ _______ _______ _____ _____    ______ ____
ROOT
ATOM      2  O   UNL     1      13.547   8.533  20.198  0.00  0.00    -0.371 OA
ATOM     10  C   UNL     1      12.310   7.904  19.823  0.00  0.00    +0.165 C 
ATOM     11  C   UNL     1      11.262   8.422  20.799  0.00  0.00    +0.164 C 
ATOM     12  C   UNL     1      12.083   8.550  22.068  0.00  0.00    +0.111 C 
ATOM     13  C   UNL     1      13.401   9.075  21.523  0.00  0.00    +0.181 C 
ENDROOT
BRANCH  11   3
ATOM      3  O   UNL     1      10.180   7.521  20.937  0.00  0.00    -0.388 OA
ATOM     23  H   UNL     1      10.063   7.051  20.095  0.00  0.00    +0.210 HD
ENDBRANCH  11   3
BRANCH  12   6
ATOM      6  N   UNL     1      11.489   9.432  23.060  0.00  0.00    -0.304 NA
ATOM     22  H   UNL     1      12.159   9.579  23.815  0.00  0.00    +0.123 HD
BRANCH   6  16
ATOM     16  C   UNL     1      11.138  10.722  22.475  0.00  0.00    +0.124 C 
BRANCH  16  17
ATOM      1  S   UNL     1      10.678  13.403  23.047  0.00  0.00    -0.100 S 
ATOM     17  C   UNL     1      10.965  11.785  23.526  0.00  0.00    +0.004 A 
ATOM     18  C   UNL     1      11.007  11.651  24.897  0.00  0.00    +0.012 A 
ATOM     19  C   UNL     1      10.798  12.893  25.563  0.00  0.00    +0.008 A 
ATOM     20  C   UNL     1      10.607  13.929  24.676  0.00  0.00    +0.045 A 
ENDBRANCH  16  17
ENDBRANCH   6  16
ENDBRANCH  12   6
BRANCH  10  14
ATOM     14  C   UNL     1      11.991   8.224  18.374  0.00  0.00    +0.138 C 
BRANCH  14   5
ATOM      4  O   UNL     1      13.642   8.188  15.979  0.00  0.00    -0.276 OA
ATOM      5  N   UNL     1      12.831   9.275  17.875  0.00  0.00    -0.313 N 
ATOM     15  C   UNL     1      13.586   9.166  16.716  0.00  0.00    +0.216 C 
ATOM     21  H   UNL     1      12.866  10.141  18.404  0.00  0.00    +0.149 HD
BRANCH  15   7
ATOM      7  C   UNL     1      14.384  10.383  16.384  0.00  0.00    +0.075 C 
ATOM      8  C   UNL     1      15.114  10.422  15.082  0.00  0.00    +0.013 C 
ATOM      9  C   UNL     1      13.898  11.275  15.290  0.00  0.00    +0.013 C 
ENDBRANCH  15   7
ENDBRANCH  14   5
ENDBRANCH  10  14
TORSDOF 7
ENDMDL
MODEL 9
REMARK VINA RESULT:      -5.1     16.542     18.169
REMARK  Name = 75536551
REMARK  7 active torsions:
REMARK  status: ('A' for Active; 'I' for Inactive)
REMARK    1  A    between atoms: O_3  and  C_11
REMARK    2  A    between atoms: N_5  and  C_14
REMARK    3  A    between atoms: N_6  and  C_12
REMARK    4  A    between atoms: N_6  and  C_16
REMARK    5  A    between atoms: C_7  and  C_15
REMARK    6  A    between atoms: C_10  and  C_14
REMARK    7  A    between atoms: C_16  and  C_17
REMARK                            x       y       z     vdW  Elec       q    Type
REMARK                         _______ _______ _______ _____ _____    ______ ____
ROOT
ATOM      2  O   UNL     1      11.270   7.895  19.590  0.00  0.00    -0.371 OA
ATOM     10  C   UNL     1      12.082   8.450  18.542  0.00  0.00    +0.165 C 
ATOM     11  C   UNL     1      12.832   9.620  19.165  0.00  0.00    +0.164 C 
ATOM     12  C   UNL     1      11.795  10.145  20.140  0.00  0.00    +0.111 C 
ATOM     13  C   UNL     1      11.189   8.852  20.661  0.00  0.00    +0.181 C 
ENDROOT
BRANCH  11   3
ATOM      3  O   UNL     1      13.207  10.581  18.197  0.00  0.00    -0.388 OA
ATOM     23  H   UNL     1      12.587  11.327  18.250  0.00  0.00    +0.210 HD
ENDBRANCH  11   3
BRANCH  12   6
ATOM      6  N   UNL     1      12.355  10.974  21.196  0.00  0.00    -0.304 NA
ATOM     22  H   UNL     1      13.281  11.291  20.912  0.00  0.00    +0.123 HD
BRANCH   6  16
ATOM     16  C   UNL     1      11.512  12.136  21.454  0.00  0.00    +0.124 C 
BRANCH  16  17
ATOM      1  S   UNL     1      11.072  10.990  23.949  0.00  0.00    -0.100 S 
ATOM     17  C   UNL     1      11.287  12.348  22.927  0.00  0.00    +0.004 A 
ATOM     18  C   UNL     1      11.220  13.535  23.623  0.00  0.00    +0.012 A 
ATOM     19  C   UNL     1      10.991  13.328  25.014  0.00  0.00    +0.008 A 
ATOM     20  C   UNL     1      10.890  11.990  25.329  0.00  0.00    +0.045 A 
ENDBRANCH  16  17
ENDBRANCH   6  16
ENDBRANCH  12   6
BRANCH  10  14
ATOM     14  C   UNL     1      12.999   7.378  17.982  0.00  0.00    +0.138 C 
BRANCH  14   5
ATOM      4  O   UNL     1      14.174   6.398  20.456  0.00  0.00    -0.276 OA
ATOM      5  N   UNL     1      14.348   7.555  18.440  0.00  0.00    -0.313 N 
ATOM     15  C   UNL     1      14.821   7.048  19.641  0.00  0.00    +0.216 C 
ATOM     21  H   UNL     1      14.982   8.079  17.845  0.00  0.00    +0.149 HD
BRANCH  15   7
ATOM      7  C   UNL     1      16.257   7.349  19.915  0.00  0.00    +0.075 C 
ATOM      8  C   UNL     1      16.920   6.668  21.067  0.00  0.00    +0.013 C 
ATOM      9  C   UNL     1      17.268   6.281  19.661  0.00  0.00    +0.013 C 
ENDBRANCH  15   7
ENDBRANCH  14   5
ENDBRANCH  10  14
TORSDOF 7
ENDMDL
MODEL 10
REMARK VINA RESULT:      -5.1     14.214     15.778
REMARK  Name = 75536551
REMARK  7 active torsions:
REMARK  status: ('A' for Active; 'I' for Inactive)
REMARK    1  A    between atoms: O_3  and  C_11
REMARK    2  A    between atoms: N_5  and  C_14
REMARK    3  A    between atoms: N_6  and  C_12
REMARK    4  A    between atoms: N_6  and  C_16
REMARK    5  A    between atoms: C_7  and  C_15
REMARK    6  A    between atoms: C_10  and  C_14
REMARK    7  A    between atoms: C_16  and  C_17
REMARK                            x       y       z     vdW  Elec       q    Type
REMARK                         _______ _______ _______ _____ _____    ______ ____
ROOT
ATOM      2  O   UNL     1      -7.347 -13.069  18.413  0.00  0.00    -0.371 OA
ATOM     10  C   UNL     1      -7.793 -11.933  19.173  0.00  0.00    +0.165 C 
ATOM     11  C   UNL     1      -6.717 -10.868  19.008  0.00  0.00    +0.164 C 
ATOM     12  C   UNL     1      -5.465 -11.723  18.951  0.00  0.00    +0.111 C 
ATOM     13  C   UNL     1      -5.946 -12.907  18.128  0.00  0.00    +0.181 C 
ENDROOT
BRANCH  11   3
ATOM      3  O   UNL     1      -6.707  -9.957  20.089  0.00  0.00    -0.388 OA
ATOM     23  H   UNL     1      -7.469 -10.150  20.661  0.00  0.00    +0.210 HD
ENDBRANCH  11   3
BRANCH  12   6
ATOM      6  N   UNL     1      -4.323 -11.048  18.358  0.00  0.00    -0.304 NA
ATOM     22  H   UNL     1      -3.563 -11.718  18.247  0.00  0.00    +0.123 HD
BRANCH   6  16
ATOM     16  C   UNL     1      -4.661 -10.491  17.052  0.00  0.00    +0.124 C 
BRANCH  16  17
ATOM      1  S   UNL     1      -3.868 -10.759  14.401  0.00  0.00    -0.100 S 
ATOM     17  C   UNL     1      -3.526 -10.628  16.074  0.00  0.00    +0.004 A 
ATOM     18  C   UNL     1      -2.173 -10.671  16.330  0.00  0.00    +0.012 A 
ATOM     19  C   UNL     1      -1.406 -10.811  15.138  0.00  0.00    +0.008 A 
ATOM     20  C   UNL     1      -2.202 -10.872  14.015  0.00  0.00    +0.045 A 
ENDBRANCH  16  17
ENDBRANCH   6  16
ENDBRANCH  12   6
BRANCH  10  14
ATOM     14  C   UNL     1      -9.158 -11.489  18.679  0.00  0.00    +0.138 C 
BRANCH  14   5
ATOM      4  O   UNL     1     -10.041 -10.186  16.233  0.00  0.00    -0.276 OA
ATOM      5  N   UNL     1      -9.178 -10.082  18.396  0.00  0.00    -0.313 N 
ATOM     15  C   UNL     1      -9.619  -9.550  17.193  0.00  0.00    +0.216 C 
ATOM     21  H   UNL     1      -8.851  -9.451  19.121  0.00  0.00    +0.149 HD
BRANCH  15   7
ATOM      7  C   UNL     1      -9.555  -8.061  17.117  0.00  0.00    +0.075 C 
ATOM      8  C   UNL     1      -9.992  -7.393  15.855  0.00  0.00    +0.013 C 
ATOM      9  C   UNL     1     -10.836  -7.294  17.091  0.00  0.00    +0.013 C 
ENDBRANCH  15   7
ENDBRANCH  14   5
ENDBRANCH  10  14
TORSDOF 7
ENDMDL
