REMARK  Name = 56774237
REMARK  9 active torsions:
REMARK  status: ('A' for Active; 'I' for Inactive)
REMARK    1  A    between atoms: N_3  and  C_9
REMARK    2  A    between atoms: N_5  and  C_24
REMARK    3  A    between atoms: N_6  and  C_18
REMARK    4  A    between atoms: C_7  and  C_12
REMARK    5  A    between atoms: C_7  and  C_13
REMARK    6  A    between atoms: C_8  and  C_11
REMARK    7  A    between atoms: C_11  and  C_14
REMARK    8  A    between atoms: C_17  and  C_18
REMARK    9  A    between atoms: C_24  and  C_25
REMARK                            x       y       z     vdW  Elec       q    Type
REMARK                         _______ _______ _______ _____ _____    ______ ____
ROOT
ATOM      7  C   UNL     1      -2.594  -1.018  -0.536  0.00  0.00    -0.013 C 
ATOM      8  C   UNL     1      -1.060  -0.914  -0.397  0.00  0.00    +0.004 C 
ATOM      9  C   UNL     1      -2.623   0.525  -0.522  0.00  0.00    +0.081 C 
ATOM     10  C   UNL     1      -1.290   0.467   0.253  0.00  0.00    +0.027 C 
ATOM     12  C   UNL     1      -3.262  -1.710   0.632  0.00  0.00    +0.013 C 
ATOM     13  C   UNL     1      -3.102  -1.604  -1.840  0.00  0.00    +0.013 C 
ENDROOT
BRANCH   9   3
ATOM      2  O   UNL     1      -5.414   0.611  -1.257  0.00  0.00    -0.253 OA
ATOM      3  N   UNL     1      -3.720   1.134   0.239  0.00  0.00    -0.296 N 
ATOM      5  N   UNL     1      -5.889   1.766   0.701  0.00  0.00    -0.300 N 
ATOM     15  C   UNL     1      -5.046   1.124  -0.201  0.00  0.00    +0.300 C 
ATOM     26  H   UNL     1      -3.532   1.594   1.126  0.00  0.00    +0.151 HD
ATOM     27  H   UNL     1      -5.494   2.151   1.553  0.00  0.00    +0.150 HD
BRANCH   5  24
ATOM     24  C   UNL     1      -7.311   1.895   0.482  0.00  0.00    +0.102 C 
ATOM     25  C   UNL     1      -8.045   0.621   0.846  0.00  0.00    +0.024 C 
ENDBRANCH   5  24
ENDBRANCH   9   3
BRANCH   8  11
ATOM     11  C   UNL     1      -0.365  -1.943   0.504  0.00  0.00    +0.063 C 
BRANCH  11  14
ATOM      1  O   UNL     1       3.086  -2.242  -0.366  0.00  0.00    -0.358 OA
ATOM      4  N   UNL     1       1.745  -2.570  -0.527  0.00  0.00    -0.083 NA
ATOM     14  C   UNL     1       1.099  -1.845   0.391  0.00  0.00    +0.084 A 
ATOM     16  C   UNL     1       1.972  -1.049   1.153  0.00  0.00    +0.072 A 
ATOM     17  C   UNL     1       3.208  -1.335   0.637  0.00  0.00    +0.151 A 
BRANCH  17  18
ATOM     18  C   UNL     1       4.603  -0.864   0.952  0.00  0.00    +0.161 C 
BRANCH  18   6
ATOM      6  N   UNL     1       4.856   0.477   0.426  0.00  0.00    -0.295 NA
ATOM     19  C   UNL     1       5.939   1.127   1.177  0.00  0.00    +0.085 C 
ATOM     20  C   UNL     1       5.167   0.416  -1.009  0.00  0.00    +0.085 C 
ATOM     21  C   UNL     1       6.184   2.550   0.672  0.00  0.00    +0.015 C 
ATOM     22  C   UNL     1       5.387   1.816  -1.586  0.00  0.00    +0.015 C 
ATOM     23  C   UNL     1       6.475   2.565  -0.824  0.00  0.00    +0.002 C 
ENDBRANCH  18   6
ENDBRANCH  17  18
ENDBRANCH  11  14
ENDBRANCH   8  11
TORSDOF 6
