MODEL 1
REMARK VINA RESULT:      -7.0      0.000      0.000
REMARK  Name = 40533593
REMARK  7 active torsions:
REMARK  status: ('A' for Active; 'I' for Inactive)
REMARK    1  A    between atoms: O_3  and  C_30
REMARK    2  A    between atoms: O_3  and  C_31
REMARK    3  A    between atoms: N_4  and  C_11
REMARK    4  A    between atoms: N_4  and  C_15
REMARK    5  A    between atoms: N_5  and  C_12
REMARK    6  A    between atoms: C_15  and  C_17
REMARK    7  A    between atoms: C_19  and  C_23
REMARK                            x       y       z     vdW  Elec       q    Type
REMARK                         _______ _______ _______ _____ _____    ______ ____
ROOT
ATOM      1  O   UNL     1      11.972   3.641   2.245  0.00  0.00    -0.370 OA
ATOM      2  O   UNL     1      12.434   5.184  -0.405  0.00  0.00    -0.370 OA
ATOM      9  C   UNL     1      12.850   5.429   0.950  0.00  0.00    +0.168 C 
ATOM     10  C   UNL     1      11.710   5.001   1.853  0.00  0.00    +0.171 C 
ATOM     11  C   UNL     1      13.988   4.506   1.325  0.00  0.00    +0.111 C 
ATOM     12  C   UNL     1      10.492   5.061   0.962  0.00  0.00    +0.130 C 
ATOM     13  C   UNL     1      13.245   3.238   1.718  0.00  0.00    +0.181 C 
ATOM     14  C   UNL     1      11.067   4.744  -0.407  0.00  0.00    +0.185 C 
ENDROOT
BRANCH  12   5
ATOM      5  N   UNL     1       9.934   6.395   0.975  0.00  0.00    -0.306 N 
ATOM      6  N   UNL     1       9.671   6.367   3.284  0.00  0.00    -0.214 NA
ATOM      7  N   UNL     1       9.025   8.285   1.975  0.00  0.00    -0.223 NA
ATOM     16  C   UNL     1       9.524   7.043   2.128  0.00  0.00    +0.216 A 
ATOM     19  C   UNL     1       9.266   7.029   4.386  0.00  0.00    +0.076 A 
ATOM     20  C   UNL     1       8.640   8.889   3.118  0.00  0.00    +0.116 A 
ATOM     21  C   UNL     1       8.738   8.303   4.364  0.00  0.00    +0.048 A 
ATOM     33  H   UNL     1       9.876   6.920   0.110  0.00  0.00    +0.149 HD
BRANCH  19  23
ATOM     23  C   UNL     1       9.420   6.307   5.626  0.00  0.00    +0.001 A 
ATOM     26  C   UNL     1       9.237   6.963   6.844  0.00  0.00    +0.013 A 
ATOM     27  C   UNL     1       9.755   4.952   5.607  0.00  0.00    +0.013 A 
ATOM     28  C   UNL     1       9.389   6.263   8.042  0.00  0.00    +0.046 A 
ATOM     29  C   UNL     1       9.906   4.253   6.804  0.00  0.00    +0.046 A 
ATOM     30  C   UNL     1       9.723   4.909   8.022  0.00  0.00    +0.120 A 
BRANCH  30   3
ATOM      3  O   UNL     1       9.872   4.228   9.192  0.00  0.00    -0.495 OA
ATOM     31  C   UNL     1       8.986   4.569  10.257  0.00  0.00    +0.277 C 
ENDBRANCH  30   3
ENDBRANCH  19  23
ENDBRANCH  12   5
BRANCH  11   4
ATOM      4  N   UNL     1      14.715   5.029   2.480  0.00  0.00    -0.303 NA
ATOM     32  H   UNL     1      15.687   4.721   2.438  0.00  0.00    +0.123 HD
BRANCH   4  15
ATOM     15  C   UNL     1      14.695   6.484   2.487  0.00  0.00    +0.137 C 
BRANCH  15  17
ATOM      8  N   UNL     1      15.484   7.260   4.652  0.00  0.00    -0.259 NA
ATOM     17  C   UNL     1      14.414   7.034   3.859  0.00  0.00    +0.055 A 
ATOM     18  C   UNL     1      13.102   7.280   4.236  0.00  0.00    +0.024 A 
ATOM     22  C   UNL     1      12.877   7.790   5.510  0.00  0.00    +0.003 A 
ATOM     24  C   UNL     1      15.226   7.757   5.884  0.00  0.00    +0.111 A 
ATOM     25  C   UNL     1      13.953   8.036   6.355  0.00  0.00    +0.020 A 
ENDBRANCH  15  17
ENDBRANCH   4  15
ENDBRANCH  11   4
TORSDOF 6
ENDMDL
MODEL 2
REMARK VINA RESULT:      -6.9     23.464     25.565
REMARK  Name = 40533593
REMARK  7 active torsions:
REMARK  status: ('A' for Active; 'I' for Inactive)
REMARK    1  A    between atoms: O_3  and  C_30
REMARK    2  A    between atoms: O_3  and  C_31
REMARK    3  A    between atoms: N_4  and  C_11
REMARK    4  A    between atoms: N_4  and  C_15
REMARK    5  A    between atoms: N_5  and  C_12
REMARK    6  A    between atoms: C_15  and  C_17
REMARK    7  A    between atoms: C_19  and  C_23
REMARK                            x       y       z     vdW  Elec       q    Type
REMARK                         _______ _______ _______ _____ _____    ______ ____
ROOT
ATOM      1  O   UNL     1      -6.346 -11.098  10.093  0.00  0.00    -0.370 OA
ATOM      2  O   UNL     1      -5.511  -8.391  11.352  0.00  0.00    -0.370 OA
ATOM      9  C   UNL     1      -5.080  -9.089  10.171  0.00  0.00    +0.168 C 
ATOM     10  C   UNL     1      -5.073 -10.568  10.503  0.00  0.00    +0.171 C 
ATOM     11  C   UNL     1      -6.117  -8.960   9.077  0.00  0.00    +0.111 C 
ATOM     12  C   UNL     1      -4.953 -10.607  12.008  0.00  0.00    +0.130 C 
ATOM     13  C   UNL     1      -7.099 -10.062   9.445  0.00  0.00    +0.181 C 
ATOM     14  C   UNL     1      -5.656  -9.330  12.430  0.00  0.00    +0.185 C 
ENDROOT
BRANCH  12   5
ATOM      5  N   UNL     1      -3.560 -10.564  12.396  0.00  0.00    -0.306 N 
ATOM      6  N   UNL     1      -4.087 -10.630  14.658  0.00  0.00    -0.214 NA
ATOM      7  N   UNL     1      -1.798 -10.528  13.909  0.00  0.00    -0.223 NA
ATOM     16  C   UNL     1      -3.130 -10.573  13.712  0.00  0.00    +0.216 A 
ATOM     19  C   UNL     1      -3.633 -10.643  15.928  0.00  0.00    +0.076 A 
ATOM     20  C   UNL     1      -1.414 -10.543  15.202  0.00  0.00    +0.116 A 
ATOM     21  C   UNL     1      -2.295 -10.600  16.263  0.00  0.00    +0.048 A 
ATOM     33  H   UNL     1      -2.843 -10.575  11.679  0.00  0.00    +0.149 HD
BRANCH  19  23
ATOM     23  C   UNL     1      -4.655 -10.702  16.944  0.00  0.00    +0.001 A 
ATOM     26  C   UNL     1      -5.883 -10.072  16.739  0.00  0.00    +0.013 A 
ATOM     27  C   UNL     1      -4.415 -11.391  18.135  0.00  0.00    +0.013 A 
ATOM     28  C   UNL     1      -6.869 -10.129  17.724  0.00  0.00    +0.046 A 
ATOM     29  C   UNL     1      -5.402 -11.448  19.118  0.00  0.00    +0.046 A 
ATOM     30  C   UNL     1      -6.629 -10.816  18.913  0.00  0.00    +0.120 A 
BRANCH  30   3
ATOM      3  O   UNL     1      -7.592 -10.870  19.874  0.00  0.00    -0.495 OA
ATOM     31  C   UNL     1      -8.936 -11.055  19.434  0.00  0.00    +0.277 C 
ENDBRANCH  30   3
ENDBRANCH  19  23
ENDBRANCH  12   5
BRANCH  11   4
ATOM      4  N   UNL     1      -5.525  -9.243   7.772  0.00  0.00    -0.303 NA
ATOM     32  H   UNL     1      -4.864 -10.017   7.859  0.00  0.00    +0.123 HD
BRANCH   4  15
ATOM     15  C   UNL     1      -6.550  -9.622   6.812  0.00  0.00    +0.137 C 
BRANCH  15  17
ATOM      8  N   UNL     1      -6.739 -10.704   4.642  0.00  0.00    -0.259 NA
ATOM     17  C   UNL     1      -6.026 -10.588   5.783  0.00  0.00    +0.055 A 
ATOM     18  C   UNL     1      -4.863 -11.295   6.047  0.00  0.00    +0.024 A 
ATOM     22  C   UNL     1      -4.404 -12.177   5.075  0.00  0.00    +0.003 A 
ATOM     24  C   UNL     1      -6.263 -11.572   3.720  0.00  0.00    +0.111 A 
ATOM     25  C   UNL     1      -5.112 -12.325   3.887  0.00  0.00    +0.020 A 
ENDBRANCH  15  17
ENDBRANCH   4  15
ENDBRANCH  11   4
TORSDOF 6
ENDMDL
MODEL 3
REMARK VINA RESULT:      -6.7     15.040     18.653
REMARK  Name = 40533593
REMARK  7 active torsions:
REMARK  status: ('A' for Active; 'I' for Inactive)
REMARK    1  A    between atoms: O_3  and  C_30
REMARK    2  A    between atoms: O_3  and  C_31
REMARK    3  A    between atoms: N_4  and  C_11
REMARK    4  A    between atoms: N_4  and  C_15
REMARK    5  A    between atoms: N_5  and  C_12
REMARK    6  A    between atoms: C_15  and  C_17
REMARK    7  A    between atoms: C_19  and  C_23
REMARK                            x       y       z     vdW  Elec       q    Type
REMARK                         _______ _______ _______ _____ _____    ______ ____
ROOT
ATOM      1  O   UNL     1      19.913   6.477  20.089  0.00  0.00    -0.370 OA
ATOM      2  O   UNL     1      19.548   8.122  22.691  0.00  0.00    -0.370 OA
ATOM      9  C   UNL     1      19.661   6.711  22.440  0.00  0.00    +0.168 C 
ATOM     10  C   UNL     1      18.933   6.427  21.140  0.00  0.00    +0.171 C 
ATOM     11  C   UNL     1      21.099   6.344  22.146  0.00  0.00    +0.111 C 
ATOM     12  C   UNL     1      17.963   7.577  21.004  0.00  0.00    +0.130 C 
ATOM     13  C   UNL     1      21.212   6.678  20.667  0.00  0.00    +0.181 C 
ATOM     14  C   UNL     1      18.695   8.712  21.696  0.00  0.00    +0.185 C 
ENDROOT
BRANCH  12   5
ATOM      5  N   UNL     1      16.733   7.274  21.702  0.00  0.00    -0.306 N 
ATOM      6  N   UNL     1      15.431   8.128  19.977  0.00  0.00    -0.214 NA
ATOM      7  N   UNL     1      14.427   7.207  21.965  0.00  0.00    -0.223 NA
ATOM     16  C   UNL     1      15.475   7.550  21.193  0.00  0.00    +0.216 A 
ATOM     19  C   UNL     1      14.191   8.377  19.510  0.00  0.00    +0.076 A 
ATOM     20  C   UNL     1      13.216   7.485  21.437  0.00  0.00    +0.116 A 
ATOM     21  C   UNL     1      13.036   8.076  20.202  0.00  0.00    +0.048 A 
ATOM     33  H   UNL     1      16.771   6.791  22.592  0.00  0.00    +0.149 HD
BRANCH  19  23
ATOM     23  C   UNL     1      14.139   8.998  18.208  0.00  0.00    +0.001 A 
ATOM     26  C   UNL     1      13.956   8.216  17.068  0.00  0.00    +0.013 A 
ATOM     27  C   UNL     1      14.273  10.383  18.091  0.00  0.00    +0.013 A 
ATOM     28  C   UNL     1      13.908   8.817  15.810  0.00  0.00    +0.046 A 
ATOM     29  C   UNL     1      14.225  10.983  16.833  0.00  0.00    +0.046 A 
ATOM     30  C   UNL     1      14.043  10.201  15.693  0.00  0.00    +0.120 A 
BRANCH  30   3
ATOM      3  O   UNL     1      13.997  10.786  14.464  0.00  0.00    -0.495 OA
ATOM     31  C   UNL     1      14.577  12.084  14.343  0.00  0.00    +0.277 C 
ENDBRANCH  30   3
ENDBRANCH  19  23
ENDBRANCH  12   5
BRANCH  11   4
ATOM      4  N   UNL     1      21.315   4.912  22.345  0.00  0.00    -0.303 NA
ATOM     32  H   UNL     1      20.420   4.424  22.301  0.00  0.00    +0.123 HD
BRANCH   4  15
ATOM     15  C   UNL     1      22.182   4.373  21.309  0.00  0.00    +0.137 C 
BRANCH  15  17
ATOM      8  N   UNL     1      23.558   2.424  20.836  0.00  0.00    -0.259 NA
ATOM     17  C   UNL     1      22.935   3.159  21.783  0.00  0.00    +0.055 A 
ATOM     18  C   UNL     1      22.956   2.859  23.137  0.00  0.00    +0.024 A 
ATOM     22  C   UNL     1      23.662   1.733  23.542  0.00  0.00    +0.003 A 
ATOM     24  C   UNL     1      24.235   1.335  21.269  0.00  0.00    +0.111 A 
ATOM     25  C   UNL     1      24.316   0.951  22.597  0.00  0.00    +0.020 A 
ENDBRANCH  15  17
ENDBRANCH   4  15
ENDBRANCH  11   4
TORSDOF 6
ENDMDL
MODEL 4
REMARK VINA RESULT:      -6.5     23.312     27.515
REMARK  Name = 40533593
REMARK  7 active torsions:
REMARK  status: ('A' for Active; 'I' for Inactive)
REMARK    1  A    between atoms: O_3  and  C_30
REMARK    2  A    between atoms: O_3  and  C_31
REMARK    3  A    between atoms: N_4  and  C_11
REMARK    4  A    between atoms: N_4  and  C_15
REMARK    5  A    between atoms: N_5  and  C_12
REMARK    6  A    between atoms: C_15  and  C_17
REMARK    7  A    between atoms: C_19  and  C_23
REMARK                            x       y       z     vdW  Elec       q    Type
REMARK                         _______ _______ _______ _____ _____    ______ ____
ROOT
ATOM      1  O   UNL     1      -7.383 -11.654  15.969  0.00  0.00    -0.370 OA
ATOM      2  O   UNL     1      -6.112 -12.542  18.654  0.00  0.00    -0.370 OA
ATOM      9  C   UNL     1      -6.558 -11.266  18.163  0.00  0.00    +0.168 C 
ATOM     10  C   UNL     1      -6.218 -11.210  16.686  0.00  0.00    +0.171 C 
ATOM     11  C   UNL     1      -8.069 -11.188  18.198  0.00  0.00    +0.111 C 
ATOM     12  C   UNL     1      -5.097 -12.211  16.530  0.00  0.00    +0.130 C 
ATOM     13  C   UNL     1      -8.448 -11.888  16.902  0.00  0.00    +0.181 C 
ATOM     14  C   UNL     1      -5.411 -13.232  17.608  0.00  0.00    +0.185 C 
ENDROOT
BRANCH  12   5
ATOM      5  N   UNL     1      -3.825 -11.576  16.796  0.00  0.00    -0.306 N 
ATOM      6  N   UNL     1      -3.455 -11.151  14.542  0.00  0.00    -0.214 NA
ATOM      7  N   UNL     1      -1.854 -10.492  16.218  0.00  0.00    -0.223 NA
ATOM     16  C   UNL     1      -3.009 -11.051  15.808  0.00  0.00    +0.216 A 
ATOM     19  C   UNL     1      -2.638 -10.626  13.606  0.00  0.00    +0.076 A 
ATOM     20  C   UNL     1      -1.085  -9.987  15.231  0.00  0.00    +0.116 A 
ATOM     21  C   UNL     1      -1.429 -10.027  13.894  0.00  0.00    +0.048 A 
ATOM     33  H   UNL     1      -3.519 -11.455  17.755  0.00  0.00    +0.149 HD
BRANCH  19  23
ATOM     23  C   UNL     1      -3.112 -10.733  12.248  0.00  0.00    +0.001 A 
ATOM     26  C   UNL     1      -3.525 -11.968  11.746  0.00  0.00    +0.013 A 
ATOM     27  C   UNL     1      -3.156  -9.600  11.434  0.00  0.00    +0.013 A 
ATOM     28  C   UNL     1      -3.982 -12.069  10.432  0.00  0.00    +0.046 A 
ATOM     29  C   UNL     1      -3.613  -9.701  10.120  0.00  0.00    +0.046 A 
ATOM     30  C   UNL     1      -4.025 -10.937   9.619  0.00  0.00    +0.120 A 
BRANCH  30   3
ATOM      3  O   UNL     1      -4.470 -11.037   8.336  0.00  0.00    -0.495 OA
ATOM     31  C   UNL     1      -5.209  -9.933   7.818  0.00  0.00    +0.277 C 
ENDBRANCH  30   3
ENDBRANCH  19  23
ENDBRANCH  12   5
BRANCH  11   4
ATOM      4  N   UNL     1      -8.513  -9.797  18.154  0.00  0.00    -0.303 NA
ATOM     32  H   UNL     1      -8.301  -9.401  17.237  0.00  0.00    +0.123 HD
BRANCH   4  15
ATOM     15  C   UNL     1      -9.949  -9.707  18.371  0.00  0.00    +0.137 C 
BRANCH  15  17
ATOM      8  N   UNL     1      -9.786  -7.802  16.867  0.00  0.00    -0.259 NA
ATOM     17  C   UNL     1     -10.597  -8.722  17.436  0.00  0.00    +0.055 A 
ATOM     18  C   UNL     1     -11.961  -8.802  17.204  0.00  0.00    +0.024 A 
ATOM     22  C   UNL     1     -12.528  -7.879  16.333  0.00  0.00    +0.003 A 
ATOM     24  C   UNL     1     -10.373  -6.921  16.026  0.00  0.00    +0.111 A 
ATOM     25  C   UNL     1     -11.726  -6.917  15.729  0.00  0.00    +0.020 A 
ENDBRANCH  15  17
ENDBRANCH   4  15
ENDBRANCH  11   4
TORSDOF 6
ENDMDL
MODEL 5
REMARK VINA RESULT:      -6.5     22.887     25.240
REMARK  Name = 40533593
REMARK  7 active torsions:
REMARK  status: ('A' for Active; 'I' for Inactive)
REMARK    1  A    between atoms: O_3  and  C_30
REMARK    2  A    between atoms: O_3  and  C_31
REMARK    3  A    between atoms: N_4  and  C_11
REMARK    4  A    between atoms: N_4  and  C_15
REMARK    5  A    between atoms: N_5  and  C_12
REMARK    6  A    between atoms: C_15  and  C_17
REMARK    7  A    between atoms: C_19  and  C_23
REMARK                            x       y       z     vdW  Elec       q    Type
REMARK                         _______ _______ _______ _____ _____    ______ ____
ROOT
ATOM      1  O   UNL     1      -2.827 -12.832  12.711  0.00  0.00    -0.370 OA
ATOM      2  O   UNL     1      -1.748  -9.926  12.800  0.00  0.00    -0.370 OA
ATOM      9  C   UNL     1      -2.676 -10.645  13.629  0.00  0.00    +0.168 C 
ATOM     10  C   UNL     1      -3.482 -11.551  12.718  0.00  0.00    +0.171 C 
ATOM     11  C   UNL     1      -1.937 -11.600  14.541  0.00  0.00    +0.111 C 
ATOM     12  C   UNL     1      -3.370 -10.900  11.360  0.00  0.00    +0.130 C 
ATOM     13  C   UNL     1      -1.725 -12.800  13.631  0.00  0.00    +0.181 C 
ATOM     14  C   UNL     1      -2.006 -10.238  11.422  0.00  0.00    +0.185 C 
ENDROOT
BRANCH  12   5
ATOM      5  N   UNL     1      -4.405  -9.903  11.201  0.00  0.00    -0.306 N 
ATOM      6  N   UNL     1      -4.768 -10.493   8.983  0.00  0.00    -0.214 NA
ATOM      7  N   UNL     1      -6.034  -8.730  10.032  0.00  0.00    -0.223 NA
ATOM     16  C   UNL     1      -5.098  -9.699  10.020  0.00  0.00    +0.216 A 
ATOM     19  C   UNL     1      -5.465 -10.270   7.850  0.00  0.00    +0.076 A 
ATOM     20  C   UNL     1      -6.692  -8.561   8.866  0.00  0.00    +0.116 A 
ATOM     21  C   UNL     1      -6.448  -9.309   7.732  0.00  0.00    +0.048 A 
ATOM     33  H   UNL     1      -4.687  -9.345  11.999  0.00  0.00    +0.149 HD
BRANCH  19  23
ATOM     23  C   UNL     1      -5.113 -11.117   6.737  0.00  0.00    +0.001 A 
ATOM     26  C   UNL     1      -5.696 -10.907   5.487  0.00  0.00    +0.013 A 
ATOM     27  C   UNL     1      -4.189 -12.149   6.911  0.00  0.00    +0.013 A 
ATOM     28  C   UNL     1      -5.356 -11.729   4.412  0.00  0.00    +0.046 A 
ATOM     29  C   UNL     1      -3.849 -12.970   5.836  0.00  0.00    +0.046 A 
ATOM     30  C   UNL     1      -4.433 -12.760   4.587  0.00  0.00    +0.120 A 
BRANCH  30   3
ATOM      3  O   UNL     1      -4.103 -13.562   3.537  0.00  0.00    -0.495 OA
ATOM     31  C   UNL     1      -3.425 -12.949   2.442  0.00  0.00    +0.277 C 
ENDBRANCH  30   3
ENDBRANCH  19  23
ENDBRANCH  12   5
BRANCH  11   4
ATOM      4  N   UNL     1      -2.776 -11.982  15.674  0.00  0.00    -0.303 NA
ATOM     32  H   UNL     1      -2.365 -12.789  16.145  0.00  0.00    +0.123 HD
BRANCH   4  15
ATOM     15  C   UNL     1      -2.874 -10.894  16.634  0.00  0.00    +0.137 C 
BRANCH  15  17
ATOM      8  N   UNL     1      -5.085  -9.980  16.193  0.00  0.00    -0.259 NA
ATOM     17  C   UNL     1      -4.296 -10.650  17.062  0.00  0.00    +0.055 A 
ATOM     18  C   UNL     1      -4.723 -11.114  18.297  0.00  0.00    +0.024 A 
ATOM     22  C   UNL     1      -6.043 -10.874  18.662  0.00  0.00    +0.003 A 
ATOM     24  C   UNL     1      -6.363  -9.765  16.582  0.00  0.00    +0.111 A 
ATOM     25  C   UNL     1      -6.885 -10.188  17.794  0.00  0.00    +0.020 A 
ENDBRANCH  15  17
ENDBRANCH   4  15
ENDBRANCH  11   4
TORSDOF 6
ENDMDL
MODEL 6
REMARK VINA RESULT:      -6.4     28.585     33.057
REMARK  Name = 40533593
REMARK  7 active torsions:
REMARK  status: ('A' for Active; 'I' for Inactive)
REMARK    1  A    between atoms: O_3  and  C_30
REMARK    2  A    between atoms: O_3  and  C_31
REMARK    3  A    between atoms: N_4  and  C_11
REMARK    4  A    between atoms: N_4  and  C_15
REMARK    5  A    between atoms: N_5  and  C_12
REMARK    6  A    between atoms: C_15  and  C_17
REMARK    7  A    between atoms: C_19  and  C_23
REMARK                            x       y       z     vdW  Elec       q    Type
REMARK                         _______ _______ _______ _____ _____    ______ ____
ROOT
ATOM      1  O   UNL     1     -15.176   7.375  22.870  0.00  0.00    -0.370 OA
ATOM      2  O   UNL     1     -13.316   4.984  22.209  0.00  0.00    -0.370 OA
ATOM      9  C   UNL     1     -14.222   5.763  21.409  0.00  0.00    +0.168 C 
ATOM     10  C   UNL     1     -15.422   6.088  22.278  0.00  0.00    +0.171 C 
ATOM     11  C   UNL     1     -13.617   7.113  21.093  0.00  0.00    +0.111 C 
ATOM     12  C   UNL     1     -15.407   5.014  23.341  0.00  0.00    +0.130 C 
ATOM     13  C   UNL     1     -13.948   7.905  22.349  0.00  0.00    +0.181 C 
ATOM     14  C   UNL     1     -13.928   4.703  23.478  0.00  0.00    +0.185 C 
ENDROOT
BRANCH  12   5
ATOM      5  N   UNL     1     -16.123   3.847  22.875  0.00  0.00    -0.306 N 
ATOM      6  N   UNL     1     -16.278   2.967  25.020  0.00  0.00    -0.214 NA
ATOM      7  N   UNL     1     -17.208   1.808  23.123  0.00  0.00    -0.223 NA
ATOM     16  C   UNL     1     -16.554   2.829  23.710  0.00  0.00    +0.216 A 
ATOM     19  C   UNL     1     -16.716   1.960  25.804  0.00  0.00    +0.076 A 
ATOM     20  C   UNL     1     -17.617   0.836  23.965  0.00  0.00    +0.116 A 
ATOM     21  C   UNL     1     -17.397   0.859  25.327  0.00  0.00    +0.048 A 
ATOM     33  H   UNL     1     -16.375   3.774  21.896  0.00  0.00    +0.149 HD
BRANCH  19  23
ATOM     23  C   UNL     1     -16.420   2.104  27.209  0.00  0.00    +0.001 A 
ATOM     26  C   UNL     1     -16.070   3.351  27.725  0.00  0.00    +0.013 A 
ATOM     27  C   UNL     1     -16.484   0.992  28.051  0.00  0.00    +0.013 A 
ATOM     28  C   UNL     1     -15.783   3.488  29.084  0.00  0.00    +0.046 A 
ATOM     29  C   UNL     1     -16.198   1.129  29.409  0.00  0.00    +0.046 A 
ATOM     30  C   UNL     1     -15.846   2.377  29.925  0.00  0.00    +0.120 A 
BRANCH  30   3
ATOM      3  O   UNL     1     -15.565   2.511  31.251  0.00  0.00    -0.495 OA
ATOM     31  C   UNL     1     -14.688   1.546  31.828  0.00  0.00    +0.277 C 
ENDBRANCH  30   3
ENDBRANCH  19  23
ENDBRANCH  12   5
BRANCH  11   4
ATOM      4  N   UNL     1     -14.281   7.717  19.940  0.00  0.00    -0.303 NA
ATOM     32  H   UNL     1     -15.287   7.760  20.111  0.00  0.00    +0.123 HD
BRANCH   4  15
ATOM     15  C   UNL     1     -13.797   9.070  19.717  0.00  0.00    +0.137 C 
BRANCH  15  17
ATOM      8  N   UNL     1     -12.409   8.433  17.824  0.00  0.00    -0.259 NA
ATOM     17  C   UNL     1     -12.469   9.081  19.008  0.00  0.00    +0.055 A 
ATOM     18  C   UNL     1     -11.395   9.739  19.588  0.00  0.00    +0.024 A 
ATOM     22  C   UNL     1     -10.184   9.732  18.906  0.00  0.00    +0.003 A 
ATOM     24  C   UNL     1     -11.214   8.447  17.190  0.00  0.00    +0.111 A 
ATOM     25  C   UNL     1     -10.083   9.076  17.685  0.00  0.00    +0.020 A 
ENDBRANCH  15  17
ENDBRANCH   4  15
ENDBRANCH  11   4
TORSDOF 6
ENDMDL
MODEL 7
REMARK VINA RESULT:      -6.3      7.173      9.804
REMARK  Name = 40533593
REMARK  7 active torsions:
REMARK  status: ('A' for Active; 'I' for Inactive)
REMARK    1  A    between atoms: O_3  and  C_30
REMARK    2  A    between atoms: O_3  and  C_31
REMARK    3  A    between atoms: N_4  and  C_11
REMARK    4  A    between atoms: N_4  and  C_15
REMARK    5  A    between atoms: N_5  and  C_12
REMARK    6  A    between atoms: C_15  and  C_17
REMARK    7  A    between atoms: C_19  and  C_23
REMARK                            x       y       z     vdW  Elec       q    Type
REMARK                         _______ _______ _______ _____ _____    ______ ____
ROOT
ATOM      1  O   UNL     1       9.269   3.380  -3.166  0.00  0.00    -0.370 OA
ATOM      2  O   UNL     1      10.052   5.124  -5.607  0.00  0.00    -0.370 OA
ATOM      9  C   UNL     1      10.337   5.232  -4.203  0.00  0.00    +0.168 C 
ATOM     10  C   UNL     1       9.097   4.778  -3.458  0.00  0.00    +0.171 C 
ATOM     11  C   UNL     1      11.397   4.230  -3.802  0.00  0.00    +0.111 C 
ATOM     12  C   UNL     1       7.978   4.969  -4.455  0.00  0.00    +0.130 C 
ATOM     13  C   UNL     1      10.574   2.967  -3.600  0.00  0.00    +0.181 C 
ATOM     14  C   UNL     1       8.677   4.746  -5.783  0.00  0.00    +0.185 C 
ENDROOT
BRANCH  12   5
ATOM      5  N   UNL     1       7.470   6.321  -4.376  0.00  0.00    -0.306 N 
ATOM      6  N   UNL     1       5.268   5.608  -4.588  0.00  0.00    -0.214 NA
ATOM      7  N   UNL     1       5.809   7.945  -4.356  0.00  0.00    -0.223 NA
ATOM     16  C   UNL     1       6.123   6.638  -4.444  0.00  0.00    +0.216 A 
ATOM     19  C   UNL     1       3.966   5.953  -4.646  0.00  0.00    +0.076 A 
ATOM     20  C   UNL     1       4.490   8.219  -4.422  0.00  0.00    +0.116 A 
ATOM     21  C   UNL     1       3.513   7.254  -4.568  0.00  0.00    +0.048 A 
ATOM     33  H   UNL     1       8.113   7.087  -4.214  0.00  0.00    +0.149 HD
BRANCH  19  23
ATOM     23  C   UNL     1       3.046   4.852  -4.801  0.00  0.00    +0.001 A 
ATOM     26  C   UNL     1       3.449   3.693  -5.466  0.00  0.00    +0.013 A 
ATOM     27  C   UNL     1       1.752   4.947  -4.286  0.00  0.00    +0.013 A 
ATOM     28  C   UNL     1       2.558   2.630  -5.617  0.00  0.00    +0.046 A 
ATOM     29  C   UNL     1       0.862   3.884  -4.437  0.00  0.00    +0.046 A 
ATOM     30  C   UNL     1       1.264   2.726  -5.103  0.00  0.00    +0.120 A 
BRANCH  30   3
ATOM      3  O   UNL     1       0.395   1.688  -5.252  0.00  0.00    -0.495 OA
ATOM     31  C   UNL     1      -0.095   1.438  -6.567  0.00  0.00    +0.277 C 
ENDBRANCH  30   3
ENDBRANCH  19  23
ENDBRANCH  12   5
BRANCH  11   4
ATOM      4  N   UNL     1      12.021   4.619  -2.539  0.00  0.00    -0.303 NA
ATOM     32  H   UNL     1      11.461   4.268  -1.761  0.00  0.00    +0.123 HD
BRANCH   4  15
ATOM     15  C   UNL     1      13.359   4.057  -2.430  0.00  0.00    +0.137 C 
BRANCH  15  17
ATOM      8  N   UNL     1      15.069   4.083  -0.702  0.00  0.00    -0.259 NA
ATOM     17  C   UNL     1      13.769   3.860  -0.996  0.00  0.00    +0.055 A 
ATOM     18  C   UNL     1      12.819   3.471  -0.065  0.00  0.00    +0.024 A 
ATOM     22  C   UNL     1      13.231   3.301   1.252  0.00  0.00    +0.003 A 
ATOM     24  C   UNL     1      15.433   3.906   0.589  0.00  0.00    +0.111 A 
ATOM     25  C   UNL     1      14.560   3.520   1.593  0.00  0.00    +0.020 A 
ENDBRANCH  15  17
ENDBRANCH   4  15
ENDBRANCH  11   4
TORSDOF 6
ENDMDL
MODEL 8
REMARK VINA RESULT:      -6.2     25.825     29.464
REMARK  Name = 40533593
REMARK  7 active torsions:
REMARK  status: ('A' for Active; 'I' for Inactive)
REMARK    1  A    between atoms: O_3  and  C_30
REMARK    2  A    between atoms: O_3  and  C_31
REMARK    3  A    between atoms: N_4  and  C_11
REMARK    4  A    between atoms: N_4  and  C_15
REMARK    5  A    between atoms: N_5  and  C_12
REMARK    6  A    between atoms: C_15  and  C_17
REMARK    7  A    between atoms: C_19  and  C_23
REMARK                            x       y       z     vdW  Elec       q    Type
REMARK                         _______ _______ _______ _____ _____    ______ ____
ROOT
ATOM      1  O   UNL     1     -11.061  -5.805  15.596  0.00  0.00    -0.370 OA
ATOM      2  O   UNL     1     -11.766  -8.676  14.663  0.00  0.00    -0.370 OA
ATOM      9  C   UNL     1     -12.534  -7.647  15.310  0.00  0.00    +0.168 C 
ATOM     10  C   UNL     1     -11.609  -6.943  16.284  0.00  0.00    +0.171 C 
ATOM     11  C   UNL     1     -12.913  -6.571  14.317  0.00  0.00    +0.111 C 
ATOM     12  C   UNL     1     -10.524  -7.958  16.560  0.00  0.00    +0.130 C 
ATOM     13  C   UNL     1     -11.661  -5.709  14.295  0.00  0.00    +0.181 C 
ATOM     14  C   UNL     1     -10.460  -8.736  15.258  0.00  0.00    +0.185 C 
ENDROOT
BRANCH  12   5
ATOM      5  N   UNL     1     -10.924  -8.828  17.644  0.00  0.00    -0.306 N 
ATOM      6  N   UNL     1      -8.798  -9.750  17.814  0.00  0.00    -0.214 NA
ATOM      7  N   UNL     1     -10.589 -10.461  19.261  0.00  0.00    -0.223 NA
ATOM     16  C   UNL     1     -10.066  -9.720  18.266  0.00  0.00    +0.216 A 
ATOM     19  C   UNL     1      -7.990 -10.627  18.445  0.00  0.00    +0.076 A 
ATOM     20  C   UNL     1      -9.726 -11.317  19.848  0.00  0.00    +0.116 A 
ATOM     21  C   UNL     1      -8.402 -11.444  19.477  0.00  0.00    +0.048 A 
ATOM     33  H   UNL     1     -11.864  -8.762  18.015  0.00  0.00    +0.149 HD
BRANCH  19  23
ATOM     23  C   UNL     1      -6.630 -10.664  17.963  0.00  0.00    +0.001 A 
ATOM     26  C   UNL     1      -6.281  -9.975  16.801  0.00  0.00    +0.013 A 
ATOM     27  C   UNL     1      -5.663 -11.390  18.660  0.00  0.00    +0.013 A 
ATOM     28  C   UNL     1      -4.967 -10.014  16.335  0.00  0.00    +0.046 A 
ATOM     29  C   UNL     1      -4.349 -11.428  18.195  0.00  0.00    +0.046 A 
ATOM     30  C   UNL     1      -4.001 -10.740  17.032  0.00  0.00    +0.120 A 
BRANCH  30   3
ATOM      3  O   UNL     1      -2.719 -10.778  16.576  0.00  0.00    -0.495 OA
ATOM     31  C   UNL     1      -2.535 -10.959  15.173  0.00  0.00    +0.277 C 
ENDBRANCH  30   3
ENDBRANCH  19  23
ENDBRANCH  12   5
BRANCH  11   4
ATOM      4  N   UNL     1     -14.042  -5.787  14.813  0.00  0.00    -0.303 NA
ATOM     32  H   UNL     1     -13.806  -4.794  14.783  0.00  0.00    +0.123 HD
BRANCH   4  15
ATOM     15  C   UNL     1     -15.221  -6.002  13.988  0.00  0.00    +0.137 C 
BRANCH  15  17
ATOM      8  N   UNL     1     -15.869  -5.452  11.710  0.00  0.00    -0.259 NA
ATOM     17  C   UNL     1     -15.300  -5.015  12.855  0.00  0.00    +0.055 A 
ATOM     18  C   UNL     1     -14.799  -3.735  13.033  0.00  0.00    +0.024 A 
ATOM     22  C   UNL     1     -14.889  -2.847  11.967  0.00  0.00    +0.003 A 
ATOM     24  C   UNL     1     -15.939  -4.560  10.695  0.00  0.00    +0.111 A 
ATOM     25  C   UNL     1     -15.468  -3.260  10.772  0.00  0.00    +0.020 A 
ENDBRANCH  15  17
ENDBRANCH   4  15
ENDBRANCH  11   4
TORSDOF 6
ENDMDL
MODEL 9
REMARK VINA RESULT:      -6.0     22.899     25.225
REMARK  Name = 40533593
REMARK  7 active torsions:
REMARK  status: ('A' for Active; 'I' for Inactive)
REMARK    1  A    between atoms: O_3  and  C_30
REMARK    2  A    between atoms: O_3  and  C_31
REMARK    3  A    between atoms: N_4  and  C_11
REMARK    4  A    between atoms: N_4  and  C_15
REMARK    5  A    between atoms: N_5  and  C_12
REMARK    6  A    between atoms: C_15  and  C_17
REMARK    7  A    between atoms: C_19  and  C_23
REMARK                            x       y       z     vdW  Elec       q    Type
REMARK                         _______ _______ _______ _____ _____    ______ ____
ROOT
ATOM      1  O   UNL     1      -3.016 -11.821  10.876  0.00  0.00    -0.370 OA
ATOM      2  O   UNL     1      -3.996  -8.881  10.781  0.00  0.00    -0.370 OA
ATOM      9  C   UNL     1      -4.403 -10.018  11.562  0.00  0.00    +0.168 C 
ATOM     10  C   UNL     1      -4.312 -11.235  10.662  0.00  0.00    +0.171 C 
ATOM     11  C   UNL     1      -3.395 -10.291  12.657  0.00  0.00    +0.111 C 
ATOM     12  C   UNL     1      -4.404 -10.667   9.265  0.00  0.00    +0.130 C 
ATOM     13  C   UNL     1      -2.340 -11.099  11.917  0.00  0.00    +0.181 C 
ATOM     14  C   UNL     1      -3.775  -9.295   9.424  0.00  0.00    +0.185 C 
ENDROOT
BRANCH  12   5
ATOM      5  N   UNL     1      -5.790 -10.541   8.872  0.00  0.00    -0.306 N 
ATOM      6  N   UNL     1      -5.346 -11.289   6.717  0.00  0.00    -0.214 NA
ATOM      7  N   UNL     1      -7.577 -10.677   7.394  0.00  0.00    -0.223 NA
ATOM     16  C   UNL     1      -6.258 -10.848   7.605  0.00  0.00    +0.216 A 
ATOM     19  C   UNL     1      -5.837 -11.583   5.496  0.00  0.00    +0.076 A 
ATOM     20  C   UNL     1      -8.000 -10.989   6.151  0.00  0.00    +0.116 A 
ATOM     21  C   UNL     1      -7.167 -11.451   5.152  0.00  0.00    +0.048 A 
ATOM     33  H   UNL     1      -6.480 -10.260   9.559  0.00  0.00    +0.149 HD
BRANCH  19  23
ATOM     23  C   UNL     1      -4.863 -12.054   4.540  0.00  0.00    +0.001 A 
ATOM     26  C   UNL     1      -3.518 -12.143   4.900  0.00  0.00    +0.013 A 
ATOM     27  C   UNL     1      -5.268 -12.420   3.255  0.00  0.00    +0.013 A 
ATOM     28  C   UNL     1      -2.578 -12.597   3.975  0.00  0.00    +0.046 A 
ATOM     29  C   UNL     1      -4.328 -12.874   2.331  0.00  0.00    +0.046 A 
ATOM     30  C   UNL     1      -2.983 -12.962   2.691  0.00  0.00    +0.120 A 
BRANCH  30   3
ATOM      3  O   UNL     1      -2.064 -13.404   1.788  0.00  0.00    -0.495 OA
ATOM     31  C   UNL     1      -0.921 -14.082   2.306  0.00  0.00    +0.277 C 
ENDBRANCH  30   3
ENDBRANCH  19  23
ENDBRANCH  12   5
BRANCH  11   4
ATOM      4  N   UNL     1      -3.991 -11.107  13.712  0.00  0.00    -0.303 NA
ATOM     32  H   UNL     1      -3.878 -12.095  13.482  0.00  0.00    +0.123 HD
BRANCH   4  15
ATOM     15  C   UNL     1      -3.338 -10.857  14.988  0.00  0.00    +0.137 C 
BRANCH  15  17
ATOM      8  N   UNL     1      -5.477 -10.029  15.797  0.00  0.00    -0.259 NA
ATOM     17  C   UNL     1      -4.335 -10.682  16.103  0.00  0.00    +0.055 A 
ATOM     18  C   UNL     1      -4.043 -11.189  17.360  0.00  0.00    +0.024 A 
ATOM     22  C   UNL     1      -4.985 -11.013  18.366  0.00  0.00    +0.003 A 
ATOM     24  C   UNL     1      -6.370  -9.877  16.802  0.00  0.00    +0.111 A 
ATOM     25  C   UNL     1      -6.173 -10.345  18.091  0.00  0.00    +0.020 A 
ENDBRANCH  15  17
ENDBRANCH   4  15
ENDBRANCH  11   4
TORSDOF 6
ENDMDL
MODEL 10
REMARK VINA RESULT:      -5.9     25.760     28.193
REMARK  Name = 40533593
REMARK  7 active torsions:
REMARK  status: ('A' for Active; 'I' for Inactive)
REMARK    1  A    between atoms: O_3  and  C_30
REMARK    2  A    between atoms: O_3  and  C_31
REMARK    3  A    between atoms: N_4  and  C_11
REMARK    4  A    between atoms: N_4  and  C_15
REMARK    5  A    between atoms: N_5  and  C_12
REMARK    6  A    between atoms: C_15  and  C_17
REMARK    7  A    between atoms: C_19  and  C_23
REMARK                            x       y       z     vdW  Elec       q    Type
REMARK                         _______ _______ _______ _____ _____    ______ ____
ROOT
ATOM      1  O   UNL     1     -15.674   6.332  14.521  0.00  0.00    -0.370 OA
ATOM      2  O   UNL     1     -15.223   8.436  12.288  0.00  0.00    -0.370 OA
ATOM      9  C   UNL     1     -14.639   7.147  12.544  0.00  0.00    +0.168 C 
ATOM     10  C   UNL     1     -14.497   7.010  14.047  0.00  0.00    +0.171 C 
ATOM     11  C   UNL     1     -15.603   6.047  12.161  0.00  0.00    +0.111 C 
ATOM     12  C   UNL     1     -14.479   8.436  14.546  0.00  0.00    +0.130 C 
ATOM     13  C   UNL     1     -16.485   5.960  13.397  0.00  0.00    +0.181 C 
ATOM     14  C   UNL     1     -15.342   9.155  13.525  0.00  0.00    +0.185 C 
ENDROOT
BRANCH  12   5
ATOM      5  N   UNL     1     -13.130   8.955  14.516  0.00  0.00    -0.306 N 
ATOM      6  N   UNL     1     -12.757   8.382  16.737  0.00  0.00    -0.214 NA
ATOM      7  N   UNL     1     -11.048   9.453  15.418  0.00  0.00    -0.223 NA
ATOM     16  C   UNL     1     -12.275   8.930  15.605  0.00  0.00    +0.216 A 
ATOM     19  C   UNL     1     -11.897   8.371  17.775  0.00  0.00    +0.076 A 
ATOM     20  C   UNL     1     -10.239   9.410  16.497  0.00  0.00    +0.116 A 
ATOM     21  C   UNL     1     -10.614   8.875  17.714  0.00  0.00    +0.048 A 
ATOM     33  H   UNL     1     -12.754   9.317  13.647  0.00  0.00    +0.149 HD
BRANCH  19  23
ATOM     23  C   UNL     1     -12.410   7.786  18.991  0.00  0.00    +0.001 A 
ATOM     26  C   UNL     1     -11.539   7.179  19.897  0.00  0.00    +0.013 A 
ATOM     27  C   UNL     1     -13.779   7.826  19.259  0.00  0.00    +0.013 A 
ATOM     28  C   UNL     1     -12.038   6.612  21.070  0.00  0.00    +0.046 A 
ATOM     29  C   UNL     1     -14.277   7.259  20.432  0.00  0.00    +0.046 A 
ATOM     30  C   UNL     1     -13.406   6.652  21.337  0.00  0.00    +0.120 A 
BRANCH  30   3
ATOM      3  O   UNL     1     -13.891   6.097  22.482  0.00  0.00    -0.495 OA
ATOM     31  C   UNL     1     -14.518   4.821  22.369  0.00  0.00    +0.277 C 
ENDBRANCH  30   3
ENDBRANCH  19  23
ENDBRANCH  12   5
BRANCH  11   4
ATOM      4  N   UNL     1     -14.894   4.783  11.972  0.00  0.00    -0.303 NA
ATOM     32  H   UNL     1     -14.589   4.426  12.879  0.00  0.00    +0.123 HD
BRANCH   4  15
ATOM     15  C   UNL     1     -15.762   3.791  11.358  0.00  0.00    +0.137 C 
BRANCH  15  17
ATOM      8  N   UNL     1     -15.697   4.585   9.060  0.00  0.00    -0.259 NA
ATOM     17  C   UNL     1     -15.424   3.570   9.909  0.00  0.00    +0.055 A 
ATOM     18  C   UNL     1     -14.859   2.364   9.520  0.00  0.00    +0.024 A 
ATOM     22  C   UNL     1     -14.556   2.193   8.174  0.00  0.00    +0.003 A 
ATOM     24  C   UNL     1     -15.389   4.381   7.759  0.00  0.00    +0.111 A 
ATOM     25  C   UNL     1     -14.823   3.215   7.270  0.00  0.00    +0.020 A 
ENDBRANCH  15  17
ENDBRANCH   4  15
ENDBRANCH  11   4
TORSDOF 6
ENDMDL
