REMARK  Name = 51137943
REMARK  3 active torsions:
REMARK  status: ('A' for Active; 'I' for Inactive)
REMARK    1  A    between atoms: C_11  and  C_15
REMARK    2  A    between atoms: C_17  and  C_19
REMARK    3  A    between atoms: C_18  and  C_22
REMARK                            x       y       z     vdW  Elec       q    Type
REMARK                         _______ _______ _______ _____ _____    ______ ____
ROOT
ATOM      6  N   UNL     1       1.342  -1.752  -0.443  0.00  0.00    -0.299 N 
ATOM      8  N   UNL     1       2.863  -0.169   0.301  0.00  0.00    -0.210 NA
ATOM      9  N   UNL     1       2.628  -0.676  -2.043  0.00  0.00    -0.223 NA
ATOM     11  C   UNL     1      -0.388  -2.901   0.711  0.00  0.00    +0.095 C 
ATOM     12  C   UNL     1      -0.103  -3.603  -0.620  0.00  0.00    +0.033 C 
ATOM     13  C   UNL     1       0.883  -2.054   0.914  0.00  0.00    +0.121 C 
ATOM     14  C   UNL     1       0.645  -2.555  -1.444  0.00  0.00    +0.109 C 
ATOM     16  C   UNL     1       2.319  -0.826  -0.741  0.00  0.00    +0.218 A 
ATOM     18  C   UNL     1       3.815   0.729  -0.026  0.00  0.00    +0.149 A 
ATOM     20  C   UNL     1       3.588   0.237  -2.299  0.00  0.00    +0.116 A 
ATOM     21  C   UNL     1       4.223   0.976  -1.321  0.00  0.00    +0.052 A 
ENDROOT
BRANCH  11  15
ATOM      5  O   UNL     1      -1.666  -0.850   0.276  0.00  0.00    -0.420 OA
ATOM      7  N   UNL     1      -2.915  -2.567   0.979  0.00  0.00    -0.112 NA
ATOM     10  N   UNL     1      -3.752  -1.486   0.774  0.00  0.00    -0.107 NA
ATOM     15  C   UNL     1      -1.708  -2.150   0.676  0.00  0.00    +0.222 A 
ATOM     17  C   UNL     1      -2.980  -0.506   0.364  0.00  0.00    +0.251 A 
BRANCH  17  19
ATOM      4  F   UNL     1      -5.606   0.469   0.451  0.00  0.00    -0.205 F 
ATOM     19  C   UNL     1      -3.301   0.844   0.002  0.00  0.00    +0.074 A 
ATOM     23  C   UNL     1      -4.622   1.290   0.058  0.00  0.00    +0.136 A 
ATOM     24  C   UNL     1      -2.289   1.711  -0.409  0.00  0.00    +0.016 A 
ATOM     25  C   UNL     1      -4.929   2.603  -0.296  0.00  0.00    +0.039 A 
ATOM     26  C   UNL     1      -2.597   3.024  -0.763  0.00  0.00    +0.001 A 
ATOM     27  C   UNL     1      -3.917   3.471  -0.707  0.00  0.00    +0.003 A 
ENDBRANCH  17  19
ENDBRANCH  11  15
BRANCH  18  22
ATOM      1  F   UNL     1       5.393   2.364   0.673  0.00  0.00    -0.164 F 
ATOM      2  F   UNL     1       3.556   2.219   1.827  0.00  0.00    -0.164 F 
ATOM      3  F   UNL     1       5.072   0.679   2.009  0.00  0.00    -0.164 F 
ATOM     22  C   UNL     1       4.444   1.480   1.098  0.00  0.00    +0.434 C 
ENDBRANCH  18  22
TORSDOF 3
