MODEL 1
REMARK VINA RESULT:      -7.1      0.000      0.000
REMARK  Name = 28962466
REMARK  12 active torsions:
REMARK  status: ('A' for Active; 'I' for Inactive)
REMARK    1  A    between atoms: O_1  and  C_10
REMARK    2  A    between atoms: O_4  and  C_26
REMARK    3  A    between atoms: O_4  and  C_31
REMARK    4  A    between atoms: N_5  and  C_14
REMARK    5  A    between atoms: N_6  and  C_24
REMARK    6  A    between atoms: C_7  and  C_17
REMARK    7  A    between atoms: C_9  and  C_19
REMARK    8  A    between atoms: C_13  and  C_18
REMARK    9  A    between atoms: C_18  and  C_20
REMARK   10  A    between atoms: C_18  and  C_21
REMARK   11  A    between atoms: C_22  and  C_23
REMARK   12  A    between atoms: C_24  and  C_25
REMARK                            x       y       z     vdW  Elec       q    Type
REMARK                         _______ _______ _______ _____ _____    ______ ____
ROOT
ATOM      7  C   UNL     1     -16.441   6.226  22.360  0.00  0.00    -0.027 C 
ATOM      8  C   UNL     1     -14.990   5.832  22.794  0.00  0.00    +0.028 C 
ATOM      9  C   UNL     1     -14.010   5.873  21.566  0.00  0.00    +0.012 C 
ATOM     10  C   UNL     1     -14.984   4.508  23.611  0.00  0.00    +0.122 C 
ATOM     11  C   UNL     1     -17.353   6.287  23.609  0.00  0.00    +0.007 C 
ATOM     12  C   UNL     1     -16.414   7.637  21.728  0.00  0.00    +0.009 C 
ATOM     13  C   UNL     1     -15.975   4.537  24.797  0.00  0.00    +0.029 C 
ATOM     14  C   UNL     1     -14.047   7.274  20.894  0.00  0.00    +0.076 C 
ATOM     15  C   UNL     1     -17.381   4.979  24.389  0.00  0.00    +0.007 C 
ATOM     16  C   UNL     1     -15.459   7.744  20.547  0.00  0.00    +0.023 C 
ATOM     17  C   UNL     1     -17.050   5.223  21.347  0.00  0.00    +0.011 C 
ATOM     19  C   UNL     1     -12.556   5.524  21.928  0.00  0.00    +0.010 C 
ENDROOT
BRANCH  14   5
ATOM      3  O   UNL     1     -11.827   9.050  20.310  0.00  0.00    -0.276 OA
ATOM      5  N   UNL     1     -13.244   7.311  19.690  0.00  0.00    -0.312 N 
ATOM     22  C   UNL     1     -12.200   8.200  19.505  0.00  0.00    +0.210 C 
ATOM     23  C   UNL     1     -11.518   8.008  18.178  0.00  0.00    +0.109 C 
ATOM     32  H   UNL     1     -13.501   6.690  18.927  0.00  0.00    +0.149 HD
ENDBRANCH  14   5
BRANCH  10   1
ATOM      1  O   UNL     1     -13.686   4.298  24.169  0.00  0.00    -0.391 OA
ATOM     33  H   UNL     1     -13.279   5.166  24.326  0.00  0.00    +0.210 HD
ENDBRANCH  10   1
BRANCH  13  18
ATOM     18  C   UNL     1     -16.051   3.180  25.508  0.00  0.00    +0.077 C 
ATOM     20  C   UNL     1     -17.014   2.255  24.774  0.00  0.00    +0.017 C 
BRANCH  18  21
ATOM      2  O   UNL     1     -17.647   3.423  27.315  0.00  0.00    -0.276 OA
ATOM      6  N   UNL     1     -15.383   3.502  27.816  0.00  0.00    -0.311 N 
ATOM     21  C   UNL     1     -16.469   3.379  26.962  0.00  0.00    +0.216 C 
ATOM     34  H   UNL     1     -14.440   3.402  27.454  0.00  0.00    +0.149 HD
BRANCH   6  24
ATOM     24  C   UNL     1     -15.527   3.700  29.240  0.00  0.00    +0.143 C 
BRANCH  24  25
ATOM     25  C   UNL     1     -15.317   2.428  30.008  0.00  0.00    +0.011 A 
ATOM     26  C   UNL     1     -14.755   2.450  31.285  0.00  0.00    +0.125 A 
ATOM     27  C   UNL     1     -15.691   1.214  29.433  0.00  0.00    +0.009 A 
ATOM     28  C   UNL     1     -14.566   1.259  31.985  0.00  0.00    +0.046 A 
ATOM     29  C   UNL     1     -15.503   0.022  30.133  0.00  0.00    +0.001 A 
ATOM     30  C   UNL     1     -14.940   0.045  31.409  0.00  0.00    +0.004 A 
BRANCH  26   4
ATOM      4  O   UNL     1     -14.384   3.627  31.863  0.00  0.00    -0.495 OA
ATOM     31  C   UNL     1     -14.731   3.814  33.233  0.00  0.00    +0.277 C 
ENDBRANCH  26   4
ENDBRANCH  24  25
ENDBRANCH   6  24
ENDBRANCH  18  21
ENDBRANCH  13  18
TORSDOF 7
ENDMDL
MODEL 2
REMARK VINA RESULT:      -7.1     20.253     23.359
REMARK  Name = 28962466
REMARK  12 active torsions:
REMARK  status: ('A' for Active; 'I' for Inactive)
REMARK    1  A    between atoms: O_1  and  C_10
REMARK    2  A    between atoms: O_4  and  C_26
REMARK    3  A    between atoms: O_4  and  C_31
REMARK    4  A    between atoms: N_5  and  C_14
REMARK    5  A    between atoms: N_6  and  C_24
REMARK    6  A    between atoms: C_7  and  C_17
REMARK    7  A    between atoms: C_9  and  C_19
REMARK    8  A    between atoms: C_13  and  C_18
REMARK    9  A    between atoms: C_18  and  C_20
REMARK   10  A    between atoms: C_18  and  C_21
REMARK   11  A    between atoms: C_22  and  C_23
REMARK   12  A    between atoms: C_24  and  C_25
REMARK                            x       y       z     vdW  Elec       q    Type
REMARK                         _______ _______ _______ _____ _____    ______ ____
ROOT
ATOM      7  C   UNL     1      -5.080 -11.258  17.905  0.00  0.00    -0.027 C 
ATOM      8  C   UNL     1      -5.521 -12.361  16.886  0.00  0.00    +0.028 C 
ATOM      9  C   UNL     1      -6.311 -13.510  17.612  0.00  0.00    +0.012 C 
ATOM     10  C   UNL     1      -4.326 -12.825  16.004  0.00  0.00    +0.122 C 
ATOM     11  C   UNL     1      -4.408 -10.092  17.144  0.00  0.00    +0.007 C 
ATOM     12  C   UNL     1      -6.334 -10.697  18.614  0.00  0.00    +0.009 C 
ATOM     13  C   UNL     1      -3.593 -11.643  15.328  0.00  0.00    +0.029 C 
ATOM     14  C   UNL     1      -7.526 -12.923  18.383  0.00  0.00    +0.076 C 
ATOM     15  C   UNL     1      -3.213 -10.536  16.310  0.00  0.00    +0.007 C 
ATOM     16  C   UNL     1      -7.155 -11.771  19.315  0.00  0.00    +0.023 C 
ATOM     17  C   UNL     1      -4.089 -11.796  18.969  0.00  0.00    +0.011 C 
ATOM     19  C   UNL     1      -6.800 -14.615  16.661  0.00  0.00    +0.010 C 
ENDROOT
BRANCH  14   5
ATOM      3  O   UNL     1     -10.381 -13.162  18.850  0.00  0.00    -0.276 OA
ATOM      5  N   UNL     1      -8.209 -13.938  19.158  0.00  0.00    -0.312 N 
ATOM     22  C   UNL     1      -9.582 -13.966  19.322  0.00  0.00    +0.210 C 
ATOM     23  C   UNL     1     -10.031 -15.139  20.152  0.00  0.00    +0.109 C 
ATOM     32  H   UNL     1      -7.641 -14.624  19.647  0.00  0.00    +0.149 HD
ENDBRANCH  14   5
BRANCH  10   1
ATOM      1  O   UNL     1      -4.807 -13.663  14.952  0.00  0.00    -0.391 OA
ATOM     33  H   UNL     1      -5.428 -13.146  14.412  0.00  0.00    +0.210 HD
ENDBRANCH  10   1
BRANCH  13  18
ATOM     18  C   UNL     1      -2.342 -12.108  14.572  0.00  0.00    +0.077 C 
ATOM     20  C   UNL     1      -1.103 -11.422  15.133  0.00  0.00    +0.017 C 
BRANCH  18  21
ATOM      2  O   UNL     1      -1.654 -11.239  12.417  0.00  0.00    -0.276 OA
ATOM      6  N   UNL     1      -3.701 -12.319  12.575  0.00  0.00    -0.311 N 
ATOM     21  C   UNL     1      -2.504 -11.832  13.080  0.00  0.00    +0.216 C 
ATOM     34  H   UNL     1      -4.328 -12.845  13.176  0.00  0.00    +0.149 HD
BRANCH   6  24
ATOM     24  C   UNL     1      -4.080 -12.176  11.188  0.00  0.00    +0.143 C 
BRANCH  24  25
ATOM     25  C   UNL     1      -4.439 -10.758  10.847  0.00  0.00    +0.011 A 
ATOM     26  C   UNL     1      -5.438 -10.086  11.552  0.00  0.00    +0.125 A 
ATOM     27  C   UNL     1      -3.762 -10.114   9.812  0.00  0.00    +0.009 A 
ATOM     28  C   UNL     1      -5.758  -8.769  11.222  0.00  0.00    +0.046 A 
ATOM     29  C   UNL     1      -4.082  -8.797   9.483  0.00  0.00    +0.001 A 
ATOM     30  C   UNL     1      -5.080  -8.125  10.187  0.00  0.00    +0.004 A 
BRANCH  26   4
ATOM      4  O   UNL     1      -6.110 -10.700  12.566  0.00  0.00    -0.495 OA
ATOM     31  C   UNL     1      -6.344  -9.933  13.745  0.00  0.00    +0.277 C 
ENDBRANCH  26   4
ENDBRANCH  24  25
ENDBRANCH   6  24
ENDBRANCH  18  21
ENDBRANCH  13  18
TORSDOF 7
ENDMDL
MODEL 3
REMARK VINA RESULT:      -7.0     19.783     23.155
REMARK  Name = 28962466
REMARK  12 active torsions:
REMARK  status: ('A' for Active; 'I' for Inactive)
REMARK    1  A    between atoms: O_1  and  C_10
REMARK    2  A    between atoms: O_4  and  C_26
REMARK    3  A    between atoms: O_4  and  C_31
REMARK    4  A    between atoms: N_5  and  C_14
REMARK    5  A    between atoms: N_6  and  C_24
REMARK    6  A    between atoms: C_7  and  C_17
REMARK    7  A    between atoms: C_9  and  C_19
REMARK    8  A    between atoms: C_13  and  C_18
REMARK    9  A    between atoms: C_18  and  C_20
REMARK   10  A    between atoms: C_18  and  C_21
REMARK   11  A    between atoms: C_22  and  C_23
REMARK   12  A    between atoms: C_24  and  C_25
REMARK                            x       y       z     vdW  Elec       q    Type
REMARK                         _______ _______ _______ _____ _____    ______ ____
ROOT
ATOM      7  C   UNL     1      -4.760 -11.045  16.897  0.00  0.00    -0.027 C 
ATOM      8  C   UNL     1      -5.528 -10.442  15.674  0.00  0.00    +0.028 C 
ATOM      9  C   UNL     1      -7.082 -10.562  15.876  0.00  0.00    +0.012 C 
ATOM     10  C   UNL     1      -4.983 -11.006  14.330  0.00  0.00    +0.122 C 
ATOM     11  C   UNL     1      -3.241 -10.809  16.719  0.00  0.00    +0.007 C 
ATOM     12  C   UNL     1      -5.204 -10.311  18.183  0.00  0.00    +0.009 C 
ATOM     13  C   UNL     1      -3.448 -10.861  14.204  0.00  0.00    +0.029 C 
ATOM     14  C   UNL     1      -7.506  -9.885  17.209  0.00  0.00    +0.076 C 
ATOM     15  C   UNL     1      -2.697 -11.395  15.423  0.00  0.00    +0.007 C 
ATOM     16  C   UNL     1      -6.706 -10.371  18.418  0.00  0.00    +0.023 C 
ATOM     17  C   UNL     1      -5.012 -12.566  17.064  0.00  0.00    +0.011 C 
ATOM     19  C   UNL     1      -7.900  -9.960  14.721  0.00  0.00    +0.010 C 
ENDROOT
BRANCH  14   5
ATOM      3  O   UNL     1      -9.550  -7.839  17.461  0.00  0.00    -0.276 OA
ATOM      5  N   UNL     1      -8.914 -10.077  17.484  0.00  0.00    -0.312 N 
ATOM     22  C   UNL     1      -9.814  -9.032  17.585  0.00  0.00    +0.210 C 
ATOM     23  C   UNL     1     -11.215  -9.512  17.851  0.00  0.00    +0.109 C 
ATOM     32  H   UNL     1      -9.238 -11.024  17.666  0.00  0.00    +0.149 HD
ENDBRANCH  14   5
BRANCH  10   1
ATOM      1  O   UNL     1      -5.552 -10.278  13.242  0.00  0.00    -0.391 OA
ATOM     33  H   UNL     1      -5.014  -9.482  13.094  0.00  0.00    +0.210 HD
ENDBRANCH  10   1
BRANCH  13  18
ATOM     18  C   UNL     1      -2.916 -11.539  12.936  0.00  0.00    +0.077 C 
ATOM     20  C   UNL     1      -1.705 -12.402  13.270  0.00  0.00    +0.017 C 
BRANCH  18  21
ATOM      2  O   UNL     1      -1.487  -9.914  11.847  0.00  0.00    -0.276 OA
ATOM      6  N   UNL     1      -3.622 -10.253  11.006  0.00  0.00    -0.311 N 
ATOM     21  C   UNL     1      -2.576 -10.485  11.887  0.00  0.00    +0.216 C 
ATOM     34  H   UNL     1      -4.472 -10.803  11.074  0.00  0.00    +0.149 HD
BRANCH   6  24
ATOM     24  C   UNL     1      -3.538  -9.296   9.928  0.00  0.00    +0.143 C 
BRANCH  24  25
ATOM     25  C   UNL     1      -4.840  -9.161   9.192  0.00  0.00    +0.011 A 
ATOM     26  C   UNL     1      -5.195 -10.073   8.198  0.00  0.00    +0.125 A 
ATOM     27  C   UNL     1      -5.698  -8.109   9.513  0.00  0.00    +0.009 A 
ATOM     28  C   UNL     1      -6.409  -9.933   7.524  0.00  0.00    +0.046 A 
ATOM     29  C   UNL     1      -6.912  -7.970   8.839  0.00  0.00    +0.001 A 
ATOM     30  C   UNL     1      -7.267  -8.881   7.845  0.00  0.00    +0.004 A 
BRANCH  26   4
ATOM      4  O   UNL     1      -4.369 -11.106   7.872  0.00  0.00    -0.495 OA
ATOM     31  C   UNL     1      -4.821 -12.421   8.186  0.00  0.00    +0.277 C 
ENDBRANCH  26   4
ENDBRANCH  24  25
ENDBRANCH   6  24
ENDBRANCH  18  21
ENDBRANCH  13  18
TORSDOF 7
ENDMDL
MODEL 4
REMARK VINA RESULT:      -6.9     21.572     23.424
REMARK  Name = 28962466
REMARK  12 active torsions:
REMARK  status: ('A' for Active; 'I' for Inactive)
REMARK    1  A    between atoms: O_1  and  C_10
REMARK    2  A    between atoms: O_4  and  C_26
REMARK    3  A    between atoms: O_4  and  C_31
REMARK    4  A    between atoms: N_5  and  C_14
REMARK    5  A    between atoms: N_6  and  C_24
REMARK    6  A    between atoms: C_7  and  C_17
REMARK    7  A    between atoms: C_9  and  C_19
REMARK    8  A    between atoms: C_13  and  C_18
REMARK    9  A    between atoms: C_18  and  C_20
REMARK   10  A    between atoms: C_18  and  C_21
REMARK   11  A    between atoms: C_22  and  C_23
REMARK   12  A    between atoms: C_24  and  C_25
REMARK                            x       y       z     vdW  Elec       q    Type
REMARK                         _______ _______ _______ _____ _____    ______ ____
ROOT
ATOM      7  C   UNL     1      -4.347 -10.133  10.397  0.00  0.00    -0.027 C 
ATOM      8  C   UNL     1      -3.872 -11.547   9.921  0.00  0.00    +0.028 C 
ATOM      9  C   UNL     1      -4.754 -12.060   8.726  0.00  0.00    +0.012 C 
ATOM     10  C   UNL     1      -3.732 -12.529  11.119  0.00  0.00    +0.122 C 
ATOM     11  C   UNL     1      -3.390  -9.610  11.494  0.00  0.00    +0.007 C 
ATOM     12  C   UNL     1      -4.279  -9.151   9.205  0.00  0.00    +0.009 C 
ATOM     13  C   UNL     1      -2.858 -11.956  12.259  0.00  0.00    +0.029 C 
ATOM     14  C   UNL     1      -4.738 -11.028   7.564  0.00  0.00    +0.076 C 
ATOM     15  C   UNL     1      -3.282 -10.551  12.687  0.00  0.00    +0.007 C 
ATOM     16  C   UNL     1      -5.097  -9.610   8.006  0.00  0.00    +0.023 C 
ATOM     17  C   UNL     1      -5.790 -10.152  10.963  0.00  0.00    +0.011 C 
ATOM     19  C   UNL     1      -4.321 -13.435   8.189  0.00  0.00    +0.010 C 
ENDROOT
BRANCH  14   5
ATOM      3  O   UNL     1      -4.020 -11.863   4.878  0.00  0.00    -0.276 OA
ATOM      5  N   UNL     1      -5.633 -11.414   6.493  0.00  0.00    -0.312 N 
ATOM     22  C   UNL     1      -5.191 -11.799   5.241  0.00  0.00    +0.210 C 
ATOM     23  C   UNL     1      -6.327 -12.172   4.326  0.00  0.00    +0.109 C 
ATOM     32  H   UNL     1      -6.634 -11.342   6.661  0.00  0.00    +0.149 HD
ENDBRANCH  14   5
BRANCH  10   1
ATOM      1  O   UNL     1      -3.095 -13.729  10.681  0.00  0.00    -0.391 OA
ATOM     33  H   UNL     1      -3.211 -14.404  11.371  0.00  0.00    +0.210 HD
ENDBRANCH  10   1
BRANCH  13  18
ATOM     18  C   UNL     1      -2.841 -12.880  13.483  0.00  0.00    +0.077 C 
ATOM     20  C   UNL     1      -4.222 -13.485  13.704  0.00  0.00    +0.017 C 
BRANCH  18  21
ATOM      2  O   UNL     1      -1.214 -11.705  14.839  0.00  0.00    -0.276 OA
ATOM      6  N   UNL     1      -3.379 -11.922  15.644  0.00  0.00    -0.311 N 
ATOM     21  C   UNL     1      -2.369 -12.108  14.711  0.00  0.00    +0.216 C 
ATOM     34  H   UNL     1      -4.321 -12.240  15.441  0.00  0.00    +0.149 HD
BRANCH   6  24
ATOM     24  C   UNL     1      -3.171 -11.221  16.890  0.00  0.00    +0.143 C 
BRANCH  24  25
ATOM     25  C   UNL     1      -4.455 -11.015  17.640  0.00  0.00    +0.011 A 
ATOM     26  C   UNL     1      -5.498 -10.276  17.081  0.00  0.00    +0.125 A 
ATOM     27  C   UNL     1      -4.600 -11.572  18.910  0.00  0.00    +0.009 A 
ATOM     28  C   UNL     1      -6.685 -10.095  17.791  0.00  0.00    +0.046 A 
ATOM     29  C   UNL     1      -5.786 -11.391  19.621  0.00  0.00    +0.001 A 
ATOM     30  C   UNL     1      -6.828 -10.653  19.061  0.00  0.00    +0.004 A 
BRANCH  26   4
ATOM      4  O   UNL     1      -5.374  -9.724  15.841  0.00  0.00    -0.495 OA
ATOM     31  C   UNL     1      -6.334 -10.112  14.861  0.00  0.00    +0.277 C 
ENDBRANCH  26   4
ENDBRANCH  24  25
ENDBRANCH   6  24
ENDBRANCH  18  21
ENDBRANCH  13  18
TORSDOF 7
ENDMDL
MODEL 5
REMARK VINA RESULT:      -6.9     19.103     22.015
REMARK  Name = 28962466
REMARK  12 active torsions:
REMARK  status: ('A' for Active; 'I' for Inactive)
REMARK    1  A    between atoms: O_1  and  C_10
REMARK    2  A    between atoms: O_4  and  C_26
REMARK    3  A    between atoms: O_4  and  C_31
REMARK    4  A    between atoms: N_5  and  C_14
REMARK    5  A    between atoms: N_6  and  C_24
REMARK    6  A    between atoms: C_7  and  C_17
REMARK    7  A    between atoms: C_9  and  C_19
REMARK    8  A    between atoms: C_13  and  C_18
REMARK    9  A    between atoms: C_18  and  C_20
REMARK   10  A    between atoms: C_18  and  C_21
REMARK   11  A    between atoms: C_22  and  C_23
REMARK   12  A    between atoms: C_24  and  C_25
REMARK                            x       y       z     vdW  Elec       q    Type
REMARK                         _______ _______ _______ _____ _____    ______ ____
ROOT
ATOM      7  C   UNL     1      -6.251 -11.448  18.492  0.00  0.00    -0.027 C 
ATOM      8  C   UNL     1      -6.267 -10.507  17.241  0.00  0.00    +0.028 C 
ATOM      9  C   UNL     1      -7.696 -10.472  16.587  0.00  0.00    +0.012 C 
ATOM     10  C   UNL     1      -5.096 -10.836  16.272  0.00  0.00    +0.122 C 
ATOM     11  C   UNL     1      -4.866 -11.371  19.177  0.00  0.00    +0.007 C 
ATOM     12  C   UNL     1      -7.307 -10.954  19.508  0.00  0.00    +0.009 C 
ATOM     13  C   UNL     1      -3.724 -10.861  16.985  0.00  0.00    +0.029 C 
ATOM     14  C   UNL     1      -8.759 -10.046  17.638  0.00  0.00    +0.076 C 
ATOM     15  C   UNL     1      -3.720 -11.732  18.241  0.00  0.00    +0.007 C 
ATOM     16  C   UNL     1      -8.709 -10.874  18.922  0.00  0.00    +0.023 C 
ATOM     17  C   UNL     1      -6.546 -12.925  18.127  0.00  0.00    +0.011 C 
ATOM     19  C   UNL     1      -7.790  -9.541  15.367  0.00  0.00    +0.010 C 
ENDROOT
BRANCH  14   5
ATOM      3  O   UNL     1     -10.705  -7.899  17.473  0.00  0.00    -0.276 OA
ATOM      5  N   UNL     1     -10.101 -10.115  17.101  0.00  0.00    -0.312 N 
ATOM     22  C   UNL     1     -10.958  -9.030  17.066  0.00  0.00    +0.210 C 
ATOM     23  C   UNL     1     -12.281  -9.370  16.433  0.00  0.00    +0.109 C 
ATOM     32  H   UNL     1     -10.442 -11.020  16.788  0.00  0.00    +0.149 HD
ENDBRANCH  14   5
BRANCH  10   1
ATOM      1  O   UNL     1      -5.014  -9.829  15.264  0.00  0.00    -0.391 OA
ATOM     33  H   UNL     1      -4.549 -10.204  14.497  0.00  0.00    +0.210 HD
ENDBRANCH  10   1
BRANCH  13  18
ATOM     18  C   UNL     1      -2.602 -11.316  16.043  0.00  0.00    +0.077 C 
ATOM     20  C   UNL     1      -1.692 -10.142  15.703  0.00  0.00    +0.017 C 
BRANCH  18  21
ATOM      2  O   UNL     1      -3.982 -12.888  14.822  0.00  0.00    -0.276 OA
ATOM      6  N   UNL     1      -2.764 -11.319  13.624  0.00  0.00    -0.311 N 
ATOM     21  C   UNL     1      -3.201 -11.939  14.785  0.00  0.00    +0.216 C 
ATOM     34  H   UNL     1      -2.158 -10.506  13.681  0.00  0.00    +0.149 HD
BRANCH   6  24
ATOM     24  C   UNL     1      -3.191 -11.734  12.308  0.00  0.00    +0.143 C 
BRANCH  24  25
ATOM     25  C   UNL     1      -3.776 -10.597  11.522  0.00  0.00    +0.011 A 
ATOM     26  C   UNL     1      -5.068 -10.138  11.784  0.00  0.00    +0.125 A 
ATOM     27  C   UNL     1      -3.014  -9.998  10.519  0.00  0.00    +0.009 A 
ATOM     28  C   UNL     1      -5.596  -9.080  11.045  0.00  0.00    +0.046 A 
ATOM     29  C   UNL     1      -3.543  -8.940   9.780  0.00  0.00    +0.001 A 
ATOM     30  C   UNL     1      -4.833  -8.482  10.042  0.00  0.00    +0.004 A 
BRANCH  26   4
ATOM      4  O   UNL     1      -5.826 -10.711  12.760  0.00  0.00    -0.495 OA
ATOM     31  C   UNL     1      -6.884 -11.569  12.339  0.00  0.00    +0.277 C 
ENDBRANCH  26   4
ENDBRANCH  24  25
ENDBRANCH   6  24
ENDBRANCH  18  21
ENDBRANCH  13  18
TORSDOF 7
ENDMDL
MODEL 6
REMARK VINA RESULT:      -6.9      3.780      6.706
REMARK  Name = 28962466
REMARK  12 active torsions:
REMARK  status: ('A' for Active; 'I' for Inactive)
REMARK    1  A    between atoms: O_1  and  C_10
REMARK    2  A    between atoms: O_4  and  C_26
REMARK    3  A    between atoms: O_4  and  C_31
REMARK    4  A    between atoms: N_5  and  C_14
REMARK    5  A    between atoms: N_6  and  C_24
REMARK    6  A    between atoms: C_7  and  C_17
REMARK    7  A    between atoms: C_9  and  C_19
REMARK    8  A    between atoms: C_13  and  C_18
REMARK    9  A    between atoms: C_18  and  C_20
REMARK   10  A    between atoms: C_18  and  C_21
REMARK   11  A    between atoms: C_22  and  C_23
REMARK   12  A    between atoms: C_24  and  C_25
REMARK                            x       y       z     vdW  Elec       q    Type
REMARK                         _______ _______ _______ _____ _____    ______ ____
ROOT
ATOM      7  C   UNL     1     -11.649   8.323  18.876  0.00  0.00    -0.027 C 
ATOM      8  C   UNL     1     -12.980   7.927  18.154  0.00  0.00    +0.028 C 
ATOM      9  C   UNL     1     -13.138   8.713  16.802  0.00  0.00    +0.012 C 
ATOM     10  C   UNL     1     -14.195   8.011  19.121  0.00  0.00    +0.122 C 
ATOM     11  C   UNL     1     -11.471   7.450  20.141  0.00  0.00    +0.007 C 
ATOM     12  C   UNL     1     -10.459   8.034  17.933  0.00  0.00    +0.009 C 
ATOM     13  C   UNL     1     -13.967   7.222  20.431  0.00  0.00    +0.029 C 
ATOM     14  C   UNL     1     -11.899   8.474  15.893  0.00  0.00    +0.076 C 
ATOM     15  C   UNL     1     -12.641   7.562  21.110  0.00  0.00    +0.007 C 
ATOM     16  C   UNL     1     -10.569   8.750  16.595  0.00  0.00    +0.023 C 
ATOM     17  C   UNL     1     -11.622   9.815  19.292  0.00  0.00    +0.011 C 
ATOM     19  C   UNL     1     -14.414   8.349  16.024  0.00  0.00    +0.010 C 
ENDROOT
BRANCH  14   5
ATOM      3  O   UNL     1     -11.381   7.608  13.172  0.00  0.00    -0.276 OA
ATOM      5  N   UNL     1     -11.956   9.276  14.689  0.00  0.00    -0.312 N 
ATOM     22  C   UNL     1     -11.691   8.767  13.430  0.00  0.00    +0.210 C 
ATOM     23  C   UNL     1     -11.847   9.807  12.353  0.00  0.00    +0.109 C 
ATOM     32  H   UNL     1     -12.146  10.270  14.788  0.00  0.00    +0.149 HD
ENDBRANCH  14   5
BRANCH  10   1
ATOM      1  O   UNL     1     -15.345   7.440  18.495  0.00  0.00    -0.391 OA
ATOM     33  H   UNL     1     -15.042   6.788  17.842  0.00  0.00    +0.210 HD
ENDBRANCH  10   1
BRANCH  13  18
ATOM     18  C   UNL     1     -15.118   7.425  21.425  0.00  0.00    +0.077 C 
ATOM     20  C   UNL     1     -14.576   7.902  22.767  0.00  0.00    +0.017 C 
BRANCH  18  21
ATOM      2  O   UNL     1     -15.735   5.156  20.844  0.00  0.00    -0.276 OA
ATOM      6  N   UNL     1     -16.834   6.187  22.608  0.00  0.00    -0.311 N 
ATOM     21  C   UNL     1     -15.911   6.130  21.574  0.00  0.00    +0.216 C 
ATOM     34  H   UNL     1     -16.882   7.010  23.200  0.00  0.00    +0.149 HD
BRANCH   6  24
ATOM     24  C   UNL     1     -17.704   5.082  22.940  0.00  0.00    +0.143 C 
BRANCH  24  25
ATOM     25  C   UNL     1     -17.208   4.315  24.132  0.00  0.00    +0.011 A 
ATOM     26  C   UNL     1     -16.777   2.995  24.002  0.00  0.00    +0.125 A 
ATOM     27  C   UNL     1     -17.182   4.937  25.380  0.00  0.00    +0.009 A 
ATOM     28  C   UNL     1     -16.320   2.297  25.120  0.00  0.00    +0.046 A 
ATOM     29  C   UNL     1     -16.725   4.239  26.497  0.00  0.00    +0.001 A 
ATOM     30  C   UNL     1     -16.294   2.920  26.368  0.00  0.00    +0.004 A 
BRANCH  26   4
ATOM      4  O   UNL     1     -16.796   2.371  22.790  0.00  0.00    -0.495 OA
ATOM     31  C   UNL     1     -17.875   1.474  22.540  0.00  0.00    +0.277 C 
ENDBRANCH  26   4
ENDBRANCH  24  25
ENDBRANCH   6  24
ENDBRANCH  18  21
ENDBRANCH  13  18
TORSDOF 7
ENDMDL
MODEL 7
REMARK VINA RESULT:      -6.8      4.278     11.819
REMARK  Name = 28962466
REMARK  12 active torsions:
REMARK  status: ('A' for Active; 'I' for Inactive)
REMARK    1  A    between atoms: O_1  and  C_10
REMARK    2  A    between atoms: O_4  and  C_26
REMARK    3  A    between atoms: O_4  and  C_31
REMARK    4  A    between atoms: N_5  and  C_14
REMARK    5  A    between atoms: N_6  and  C_24
REMARK    6  A    between atoms: C_7  and  C_17
REMARK    7  A    between atoms: C_9  and  C_19
REMARK    8  A    between atoms: C_13  and  C_18
REMARK    9  A    between atoms: C_18  and  C_20
REMARK   10  A    between atoms: C_18  and  C_21
REMARK   11  A    between atoms: C_22  and  C_23
REMARK   12  A    between atoms: C_24  and  C_25
REMARK                            x       y       z     vdW  Elec       q    Type
REMARK                         _______ _______ _______ _____ _____    ______ ____
ROOT
ATOM      7  C   UNL     1     -15.108   7.423  20.249  0.00  0.00    -0.027 C 
ATOM      8  C   UNL     1     -13.973   6.529  20.851  0.00  0.00    +0.028 C 
ATOM      9  C   UNL     1     -14.426   5.896  22.216  0.00  0.00    +0.012 C 
ATOM     10  C   UNL     1     -12.614   7.285  20.883  0.00  0.00    +0.122 C 
ATOM     11  C   UNL     1     -14.675   7.937  18.856  0.00  0.00    +0.007 C 
ATOM     12  C   UNL     1     -16.380   6.565  20.060  0.00  0.00    +0.009 C 
ATOM     13  C   UNL     1     -12.237   7.887  19.509  0.00  0.00    +0.029 C 
ATOM     14  C   UNL     1     -15.746   5.097  22.029  0.00  0.00    +0.076 C 
ATOM     15  C   UNL     1     -13.364   8.713  18.890  0.00  0.00    +0.007 C 
ATOM     16  C   UNL     1     -16.852   5.904  21.348  0.00  0.00    +0.023 C 
ATOM     17  C   UNL     1     -15.442   8.641  21.148  0.00  0.00    +0.011 C 
ATOM     19  C   UNL     1     -13.366   4.979  22.850  0.00  0.00    +0.010 C 
ENDROOT
BRANCH  14   5
ATOM      3  O   UNL     1     -16.497   2.368  22.670  0.00  0.00    -0.276 OA
ATOM      5  N   UNL     1     -16.254   4.598  23.289  0.00  0.00    -0.312 N 
ATOM     22  C   UNL     1     -16.585   3.271  23.497  0.00  0.00    +0.210 C 
ATOM     23  C   UNL     1     -17.063   3.018  24.902  0.00  0.00    +0.109 C 
ATOM     32  H   UNL     1     -16.425   5.270  24.032  0.00  0.00    +0.149 HD
ENDBRANCH  14   5
BRANCH  10   1
ATOM      1  O   UNL     1     -11.570   6.376  21.230  0.00  0.00    -0.391 OA
ATOM     33  H   UNL     1     -11.522   6.324  22.199  0.00  0.00    +0.210 HD
ENDBRANCH  10   1
BRANCH  13  18
ATOM     18  C   UNL     1     -10.964   8.738  19.591  0.00  0.00    +0.077 C 
ATOM     20  C   UNL     1     -11.209   9.968  20.457  0.00  0.00    +0.017 C 
BRANCH  18  21
ATOM      2  O   UNL     1     -10.448   8.321  17.261  0.00  0.00    -0.276 OA
ATOM      6  N   UNL     1     -10.176  10.471  18.089  0.00  0.00    -0.311 N 
ATOM     21  C   UNL     1     -10.508   9.127  18.188  0.00  0.00    +0.216 C 
ATOM     34  H   UNL     1     -10.303  11.084  18.888  0.00  0.00    +0.149 HD
BRANCH   6  24
ATOM     24  C   UNL     1      -9.714  11.073  16.860  0.00  0.00    +0.143 C 
BRANCH  24  25
ATOM     25  C   UNL     1      -9.432  12.538  17.024  0.00  0.00    +0.011 A 
ATOM     26  C   UNL     1     -10.415  13.406  17.499  0.00  0.00    +0.125 A 
ATOM     27  C   UNL     1      -8.169  13.030  16.693  0.00  0.00    +0.009 A 
ATOM     28  C   UNL     1     -10.136  14.765  17.645  0.00  0.00    +0.046 A 
ATOM     29  C   UNL     1      -7.890  14.389  16.840  0.00  0.00    +0.001 A 
ATOM     30  C   UNL     1      -8.873  15.256  17.315  0.00  0.00    +0.004 A 
BRANCH  26   4
ATOM      4  O   UNL     1     -11.654  12.943  17.826  0.00  0.00    -0.495 OA
ATOM     31  C   UNL     1     -12.203  13.382  19.066  0.00  0.00    +0.277 C 
ENDBRANCH  26   4
ENDBRANCH  24  25
ENDBRANCH   6  24
ENDBRANCH  18  21
ENDBRANCH  13  18
TORSDOF 7
ENDMDL
MODEL 8
REMARK VINA RESULT:      -6.8     19.724     22.546
REMARK  Name = 28962466
REMARK  12 active torsions:
REMARK  status: ('A' for Active; 'I' for Inactive)
REMARK    1  A    between atoms: O_1  and  C_10
REMARK    2  A    between atoms: O_4  and  C_26
REMARK    3  A    between atoms: O_4  and  C_31
REMARK    4  A    between atoms: N_5  and  C_14
REMARK    5  A    between atoms: N_6  and  C_24
REMARK    6  A    between atoms: C_7  and  C_17
REMARK    7  A    between atoms: C_9  and  C_19
REMARK    8  A    between atoms: C_13  and  C_18
REMARK    9  A    between atoms: C_18  and  C_20
REMARK   10  A    between atoms: C_18  and  C_21
REMARK   11  A    between atoms: C_22  and  C_23
REMARK   12  A    between atoms: C_24  and  C_25
REMARK                            x       y       z     vdW  Elec       q    Type
REMARK                         _______ _______ _______ _____ _____    ______ ____
ROOT
ATOM      7  C   UNL     1      -6.491 -10.901  17.419  0.00  0.00    -0.027 C 
ATOM      8  C   UNL     1      -6.158 -10.222  16.049  0.00  0.00    +0.028 C 
ATOM      9  C   UNL     1      -7.393 -10.288  15.078  0.00  0.00    +0.012 C 
ATOM     10  C   UNL     1      -4.819 -10.756  15.464  0.00  0.00    +0.122 C 
ATOM     11  C   UNL     1      -5.299 -10.718  18.388  0.00  0.00    +0.007 C 
ATOM     12  C   UNL     1      -7.718 -10.198  18.045  0.00  0.00    +0.009 C 
ATOM     13  C   UNL     1      -3.652 -10.667  16.476  0.00  0.00    +0.029 C 
ATOM     14  C   UNL     1      -8.639  -9.645  15.748  0.00  0.00    +0.076 C 
ATOM     15  C   UNL     1      -3.994 -11.276  17.835  0.00  0.00    +0.007 C 
ATOM     16  C   UNL     1      -8.940 -10.208  17.138  0.00  0.00    +0.023 C 
ATOM     17  C   UNL     1      -6.788 -12.415  17.275  0.00  0.00    +0.011 C 
ATOM     19  C   UNL     1      -7.143  -9.611  13.720  0.00  0.00    +0.010 C 
ENDROOT
BRANCH  14   5
ATOM      3  O   UNL     1     -10.559  -7.588  15.038  0.00  0.00    -0.276 OA
ATOM      5  N   UNL     1      -9.824  -9.793  14.929  0.00  0.00    -0.312 N 
ATOM     22  C   UNL     1     -10.681  -8.745  14.645  0.00  0.00    +0.210 C 
ATOM     23  C   UNL     1     -11.817  -9.166  13.753  0.00  0.00    +0.109 C 
ATOM     32  H   UNL     1     -10.059 -10.724  14.597  0.00  0.00    +0.149 HD
ENDBRANCH  14   5
BRANCH  10   1
ATOM      1  O   UNL     1      -4.442  -9.966  14.336  0.00  0.00    -0.391 OA
ATOM     33  H   UNL     1      -4.640 -10.473  13.531  0.00  0.00    +0.210 HD
ENDBRANCH  10   1
BRANCH  13  18
ATOM     18  C   UNL     1      -2.376 -11.318  15.929  0.00  0.00    +0.077 C 
ATOM     20  C   UNL     1      -1.358 -10.248  15.555  0.00  0.00    +0.017 C 
BRANCH  18  21
ATOM      2  O   UNL     1      -3.321 -13.269  14.847  0.00  0.00    -0.276 OA
ATOM      6  N   UNL     1      -2.265 -11.675  13.533  0.00  0.00    -0.311 N 
ATOM     21  C   UNL     1      -2.715 -12.204  14.734  0.00  0.00    +0.216 C 
ATOM     34  H   UNL     1      -1.819 -10.764  13.517  0.00  0.00    +0.149 HD
BRANCH   6  24
ATOM     24  C   UNL     1      -2.467 -12.335  12.264  0.00  0.00    +0.143 C 
BRANCH  24  25
ATOM     25  C   UNL     1      -3.056 -11.412  11.238  0.00  0.00    +0.011 A 
ATOM     26  C   UNL     1      -2.510 -10.147  11.018  0.00  0.00    +0.125 A 
ATOM     27  C   UNL     1      -4.163 -11.830  10.500  0.00  0.00    +0.009 A 
ATOM     28  C   UNL     1      -3.070  -9.302  10.060  0.00  0.00    +0.046 A 
ATOM     29  C   UNL     1      -4.723 -10.985   9.542  0.00  0.00    +0.001 A 
ATOM     30  C   UNL     1      -4.177  -9.721   9.322  0.00  0.00    +0.004 A 
BRANCH  26   4
ATOM      4  O   UNL     1      -1.428  -9.722  11.730  0.00  0.00    -0.495 OA
ATOM     31  C   UNL     1      -0.561  -8.788  11.093  0.00  0.00    +0.277 C 
ENDBRANCH  26   4
ENDBRANCH  24  25
ENDBRANCH   6  24
ENDBRANCH  18  21
ENDBRANCH  13  18
TORSDOF 7
ENDMDL
MODEL 9
REMARK VINA RESULT:      -6.8     19.703     21.506
REMARK  Name = 28962466
REMARK  12 active torsions:
REMARK  status: ('A' for Active; 'I' for Inactive)
REMARK    1  A    between atoms: O_1  and  C_10
REMARK    2  A    between atoms: O_4  and  C_26
REMARK    3  A    between atoms: O_4  and  C_31
REMARK    4  A    between atoms: N_5  and  C_14
REMARK    5  A    between atoms: N_6  and  C_24
REMARK    6  A    between atoms: C_7  and  C_17
REMARK    7  A    between atoms: C_9  and  C_19
REMARK    8  A    between atoms: C_13  and  C_18
REMARK    9  A    between atoms: C_18  and  C_20
REMARK   10  A    between atoms: C_18  and  C_21
REMARK   11  A    between atoms: C_22  and  C_23
REMARK   12  A    between atoms: C_24  and  C_25
REMARK                            x       y       z     vdW  Elec       q    Type
REMARK                         _______ _______ _______ _____ _____    ______ ____
ROOT
ATOM      7  C   UNL     1      -3.297 -11.360  11.672  0.00  0.00    -0.027 C 
ATOM      8  C   UNL     1      -4.616 -10.777  12.279  0.00  0.00    +0.028 C 
ATOM      9  C   UNL     1      -5.295  -9.771  11.280  0.00  0.00    +0.012 C 
ATOM     10  C   UNL     1      -4.384 -10.235  13.719  0.00  0.00    +0.122 C 
ATOM     11  C   UNL     1      -2.717 -12.428  12.629  0.00  0.00    +0.007 C 
ATOM     12  C   UNL     1      -3.624 -12.057  10.331  0.00  0.00    +0.009 C 
ATOM     13  C   UNL     1      -3.708 -11.274  14.643  0.00  0.00    +0.029 C 
ATOM     14  C   UNL     1      -5.550 -10.462   9.911  0.00  0.00    +0.076 C 
ATOM     15  C   UNL     1      -2.451 -11.890  14.029  0.00  0.00    +0.007 C 
ATOM     16  C   UNL     1      -4.308 -11.136   9.330  0.00  0.00    +0.023 C 
ATOM     17  C   UNL     1      -2.222 -10.269  11.432  0.00  0.00    +0.011 C 
ATOM     19  C   UNL     1      -6.615  -9.181  11.803  0.00  0.00    +0.010 C 
ENDROOT
BRANCH  14   5
ATOM      3  O   UNL     1      -7.844 -10.829   8.171  0.00  0.00    -0.276 OA
ATOM      5  N   UNL     1      -6.067  -9.532   8.930  0.00  0.00    -0.312 N 
ATOM     22  C   UNL     1      -7.174  -9.800   8.145  0.00  0.00    +0.210 C 
ATOM     23  C   UNL     1      -7.512  -8.655   7.228  0.00  0.00    +0.109 C 
ATOM     32  H   UNL     1      -5.555  -8.667   8.778  0.00  0.00    +0.149 HD
ENDBRANCH  14   5
BRANCH  10   1
ATOM      1  O   UNL     1      -5.641  -9.914  14.316  0.00  0.00    -0.391 OA
ATOM     33  H   UNL     1      -5.741  -8.948  14.313  0.00  0.00    +0.210 HD
ENDBRANCH  10   1
BRANCH  13  18
ATOM     18  C   UNL     1      -3.368 -10.679  16.015  0.00  0.00    +0.077 C 
ATOM     20  C   UNL     1      -1.892 -10.890  16.329  0.00  0.00    +0.017 C 
BRANCH  18  21
ATOM      2  O   UNL     1      -4.294 -12.510  17.302  0.00  0.00    -0.276 OA
ATOM      6  N   UNL     1      -5.012 -10.354  17.767  0.00  0.00    -0.311 N 
ATOM     21  C   UNL     1      -4.260 -11.300  17.086  0.00  0.00    +0.216 C 
ATOM     34  H   UNL     1      -4.888  -9.367  17.565  0.00  0.00    +0.149 HD
BRANCH   6  24
ATOM     24  C   UNL     1      -5.932 -10.702  18.825  0.00  0.00    +0.143 C 
BRANCH  24  25
ATOM     25  C   UNL     1      -7.348 -10.340  18.480  0.00  0.00    +0.011 A 
ATOM     26  C   UNL     1      -8.420 -10.971  19.111  0.00  0.00    +0.125 A 
ATOM     27  C   UNL     1      -7.585  -9.360  17.516  0.00  0.00    +0.009 A 
ATOM     28  C   UNL     1      -9.729 -10.623  18.779  0.00  0.00    +0.046 A 
ATOM     29  C   UNL     1      -8.894  -9.012  17.184  0.00  0.00    +0.001 A 
ATOM     30  C   UNL     1      -9.966  -9.643  17.814  0.00  0.00    +0.004 A 
BRANCH  26   4
ATOM      4  O   UNL     1      -8.206 -11.930  20.055  0.00  0.00    -0.495 OA
ATOM     31  C   UNL     1      -8.980 -13.123  19.953  0.00  0.00    +0.277 C 
ENDBRANCH  26   4
ENDBRANCH  24  25
ENDBRANCH   6  24
ENDBRANCH  18  21
ENDBRANCH  13  18
TORSDOF 7
ENDMDL
MODEL 10
REMARK VINA RESULT:      -6.8     20.156     22.021
REMARK  Name = 28962466
REMARK  12 active torsions:
REMARK  status: ('A' for Active; 'I' for Inactive)
REMARK    1  A    between atoms: O_1  and  C_10
REMARK    2  A    between atoms: O_4  and  C_26
REMARK    3  A    between atoms: O_4  and  C_31
REMARK    4  A    between atoms: N_5  and  C_14
REMARK    5  A    between atoms: N_6  and  C_24
REMARK    6  A    between atoms: C_7  and  C_17
REMARK    7  A    between atoms: C_9  and  C_19
REMARK    8  A    between atoms: C_13  and  C_18
REMARK    9  A    between atoms: C_18  and  C_20
REMARK   10  A    between atoms: C_18  and  C_21
REMARK   11  A    between atoms: C_22  and  C_23
REMARK   12  A    between atoms: C_24  and  C_25
REMARK                            x       y       z     vdW  Elec       q    Type
REMARK                         _______ _______ _______ _____ _____    ______ ____
ROOT
ATOM      7  C   UNL     1      -3.302 -11.098  11.446  0.00  0.00    -0.027 C 
ATOM      8  C   UNL     1      -4.623 -10.628  12.140  0.00  0.00    +0.028 C 
ATOM      9  C   UNL     1      -5.389  -9.592  11.240  0.00  0.00    +0.012 C 
ATOM     10  C   UNL     1      -4.361 -10.175  13.605  0.00  0.00    +0.122 C 
ATOM     11  C   UNL     1      -2.632 -12.199  12.303  0.00  0.00    +0.007 C 
ATOM     12  C   UNL     1      -3.647 -11.716  10.071  0.00  0.00    +0.009 C 
ATOM     13  C   UNL     1      -3.599 -11.240  14.428  0.00  0.00    +0.029 C 
ATOM     14  C   UNL     1      -5.664 -10.198   9.836  0.00  0.00    +0.076 C 
ATOM     15  C   UNL     1      -2.338 -11.746  13.727  0.00  0.00    +0.007 C 
ATOM     16  C   UNL     1      -4.414 -10.765   9.164  0.00  0.00    +0.023 C 
ATOM     17  C   UNL     1      -2.292  -9.939  11.246  0.00  0.00    +0.011 C 
ATOM     19  C   UNL     1      -6.715  -9.109  11.851  0.00  0.00    +0.010 C 
ENDROOT
BRANCH  14   5
ATOM      3  O   UNL     1      -7.805 -10.649   7.929  0.00  0.00    -0.276 OA
ATOM      5  N   UNL     1      -6.265  -9.230   8.943  0.00  0.00    -0.312 N 
ATOM     22  C   UNL     1      -7.287  -9.544   8.065  0.00  0.00    +0.210 C 
ATOM     23  C   UNL     1      -7.743  -8.349   7.273  0.00  0.00    +0.109 C 
ATOM     32  H   UNL     1      -5.874  -8.292   8.925  0.00  0.00    +0.149 HD
ENDBRANCH  14   5
BRANCH  10   1
ATOM      1  O   UNL     1      -5.608  -9.963  14.269  0.00  0.00    -0.391 OA
ATOM     33  H   UNL     1      -6.159  -9.395  13.705  0.00  0.00    +0.210 HD
ENDBRANCH  10   1
BRANCH  13  18
ATOM     18  C   UNL     1      -3.235 -10.724  15.826  0.00  0.00    +0.077 C 
ATOM     20  C   UNL     1      -1.725 -10.777  16.030  0.00  0.00    +0.017 C 
BRANCH  18  21
ATOM      2  O   UNL     1      -3.677 -11.490  18.081  0.00  0.00    -0.276 OA
ATOM      6  N   UNL     1      -4.980 -12.323  16.352  0.00  0.00    -0.311 N 
ATOM     21  C   UNL     1      -3.969 -11.539  16.888  0.00  0.00    +0.216 C 
ATOM     34  H   UNL     1      -5.193 -12.267  15.361  0.00  0.00    +0.149 HD
BRANCH   6  24
ATOM     24  C   UNL     1      -5.812 -13.183  17.161  0.00  0.00    +0.143 C 
BRANCH  24  25
ATOM     25  C   UNL     1      -6.991 -12.450  17.732  0.00  0.00    +0.011 A 
ATOM     26  C   UNL     1      -7.822 -11.686  16.912  0.00  0.00    +0.125 A 
ATOM     27  C   UNL     1      -7.251 -12.537  19.099  0.00  0.00    +0.009 A 
ATOM     28  C   UNL     1      -8.913 -11.011  17.458  0.00  0.00    +0.046 A 
ATOM     29  C   UNL     1      -8.342 -11.862  19.646  0.00  0.00    +0.001 A 
ATOM     30  C   UNL     1      -9.173 -11.099  18.826  0.00  0.00    +0.004 A 
BRANCH  26   4
ATOM      4  O   UNL     1      -7.583 -11.590  15.573  0.00  0.00    -0.495 OA
ATOM     31  C   UNL     1      -8.519 -12.218  14.701  0.00  0.00    +0.277 C 
ENDBRANCH  26   4
ENDBRANCH  24  25
ENDBRANCH   6  24
ENDBRANCH  18  21
ENDBRANCH  13  18
TORSDOF 7
ENDMDL
