MODEL 1
REMARK VINA RESULT:      -7.0      0.000      0.000
REMARK  Name = 56774893
REMARK  8 active torsions:
REMARK  status: ('A' for Active; 'I' for Inactive)
REMARK    1  A    between atoms: O_2  and  C_9
REMARK    2  A    between atoms: O_4  and  C_21
REMARK    3  A    between atoms: O_4  and  C_22
REMARK    4  A    between atoms: N_6  and  C_14
REMARK    5  A    between atoms: N_7  and  C_19
REMARK    6  A    between atoms: C_8  and  C_9
REMARK    7  A    between atoms: C_9  and  C_11
REMARK    8  A    between atoms: C_20  and  C_21
REMARK                            x       y       z     vdW  Elec       q    Type
REMARK                         _______ _______ _______ _____ _____    ______ ____
ROOT
ATOM     11  C   UNL     1      16.089   6.603  19.902  0.00  0.00    -0.017 A 
ATOM     15  C   UNL     1      16.734   7.212  20.977  0.00  0.00    +0.008 A 
ATOM     16  C   UNL     1      16.822   5.848  18.985  0.00  0.00    +0.008 A 
ATOM     17  C   UNL     1      18.113   7.066  21.137  0.00  0.00    +0.023 A 
ATOM     18  C   UNL     1      18.199   5.703  19.144  0.00  0.00    +0.023 A 
ATOM     19  C   UNL     1      18.844   6.312  20.221  0.00  0.00    +0.033 A 
ENDROOT
BRANCH  19   7
ATOM      5  O   UNL     1      20.519   3.835  20.567  0.00  0.00    -0.273 OA
ATOM      7  N   UNL     1      20.223   6.166  20.381  0.00  0.00    -0.284 N 
ATOM     20  C   UNL     1      20.955   4.982  20.536  0.00  0.00    +0.243 C 
ATOM     24  H   UNL     1      20.754   7.035  20.384  0.00  0.00    +0.155 HD
BRANCH  20  21
ATOM     21  C   UNL     1      22.440   5.243  20.682  0.00  0.00    +0.255 C 
BRANCH  21   4
ATOM      4  O   UNL     1      23.113   4.003  20.771  0.00  0.00    -0.374 OA
ATOM     22  C   UNL     1      24.342   4.016  20.051  0.00  0.00    +0.194 C 
ENDBRANCH  21   4
ENDBRANCH  20  21
ENDBRANCH  19   7
BRANCH  11   9
ATOM      9  C   UNL     1      14.600   6.762  19.729  0.00  0.00    +0.167 C 
BRANCH   9   8
ATOM      1  O   UNL     1      13.251   7.664  17.284  0.00  0.00    -0.369 OA
ATOM      3  O   UNL     1      10.580   8.403  19.600  0.00  0.00    -0.273 OA
ATOM      6  N   UNL     1      12.882   8.521  19.927  0.00  0.00    -0.295 N 
ATOM      8  C   UNL     1      14.216   8.209  19.402  0.00  0.00    +0.134 C 
ATOM     10  C   UNL     1      14.257   8.461  17.900  0.00  0.00    +0.185 C 
ATOM     12  C   UNL     1      11.731   8.325  19.166  0.00  0.00    +0.241 C 
ATOM     13  C   UNL     1      11.964   8.082  17.679  0.00  0.00    +0.255 C 
ATOM     14  C   UNL     1      12.779   8.870  21.338  0.00  0.00    +0.132 C 
ENDBRANCH   9   8
BRANCH   9   2
ATOM      2  O   UNL     1      13.936   6.358  20.922  0.00  0.00    -0.385 OA
ATOM     23  H   UNL     1      14.007   5.392  21.005  0.00  0.00    +0.210 HD
ENDBRANCH   9   2
ENDBRANCH  11   9
TORSDOF 6
ENDMDL
MODEL 2
REMARK VINA RESULT:      -6.3      1.859      2.235
REMARK  Name = 56774893
REMARK  8 active torsions:
REMARK  status: ('A' for Active; 'I' for Inactive)
REMARK    1  A    between atoms: O_2  and  C_9
REMARK    2  A    between atoms: O_4  and  C_21
REMARK    3  A    between atoms: O_4  and  C_22
REMARK    4  A    between atoms: N_6  and  C_14
REMARK    5  A    between atoms: N_7  and  C_19
REMARK    6  A    between atoms: C_8  and  C_9
REMARK    7  A    between atoms: C_9  and  C_11
REMARK    8  A    between atoms: C_20  and  C_21
REMARK                            x       y       z     vdW  Elec       q    Type
REMARK                         _______ _______ _______ _____ _____    ______ ____
ROOT
ATOM     11  C   UNL     1      16.348   6.932  20.068  0.00  0.00    -0.017 A 
ATOM     15  C   UNL     1      17.259   5.978  19.616  0.00  0.00    +0.008 A 
ATOM     16  C   UNL     1      16.763   7.932  20.949  0.00  0.00    +0.008 A 
ATOM     17  C   UNL     1      18.586   6.024  20.043  0.00  0.00    +0.023 A 
ATOM     18  C   UNL     1      18.090   7.977  21.376  0.00  0.00    +0.023 A 
ATOM     19  C   UNL     1      19.001   7.023  20.923  0.00  0.00    +0.033 A 
ENDROOT
BRANCH  19   7
ATOM      5  O   UNL     1      20.273   6.015  23.457  0.00  0.00    -0.273 OA
ATOM      7  N   UNL     1      20.329   7.069  21.350  0.00  0.00    -0.284 N 
ATOM     20  C   UNL     1      20.870   6.579  22.546  0.00  0.00    +0.243 C 
ATOM     24  H   UNL     1      20.977   7.517  20.705  0.00  0.00    +0.155 HD
BRANCH  20  21
ATOM     21  C   UNL     1      22.362   6.822  22.640  0.00  0.00    +0.255 C 
BRANCH  21   4
ATOM      4  O   UNL     1      22.587   7.956  23.453  0.00  0.00    -0.374 OA
ATOM     22  C   UNL     1      23.750   7.805  24.262  0.00  0.00    +0.194 C 
ENDBRANCH  21   4
ENDBRANCH  20  21
ENDBRANCH  19   7
BRANCH  11   9
ATOM      9  C   UNL     1      14.913   6.882  19.608  0.00  0.00    +0.167 C 
BRANCH   9   8
ATOM      1  O   UNL     1      13.264   7.490  17.258  0.00  0.00    -0.369 OA
ATOM      3  O   UNL     1      10.790   8.236  19.781  0.00  0.00    -0.273 OA
ATOM      6  N   UNL     1      13.097   8.533  19.855  0.00  0.00    -0.295 N 
ATOM      8  C   UNL     1      14.392   8.268  19.217  0.00  0.00    +0.134 C 
ATOM     10  C   UNL     1      14.264   8.399  17.703  0.00  0.00    +0.185 C 
ATOM     12  C   UNL     1      11.894   8.200  19.235  0.00  0.00    +0.241 C 
ATOM     13  C   UNL     1      11.995   7.852  17.754  0.00  0.00    +0.255 C 
ATOM     14  C   UNL     1      13.111   8.989  21.239  0.00  0.00    +0.132 C 
ENDBRANCH   9   8
BRANCH   9   2
ATOM      2  O   UNL     1      14.098   6.349  20.647  0.00  0.00    -0.385 OA
ATOM     23  H   UNL     1      13.997   7.024  21.339  0.00  0.00    +0.210 HD
ENDBRANCH   9   2
ENDBRANCH  11   9
TORSDOF 6
ENDMDL
MODEL 3
REMARK VINA RESULT:      -6.1      1.711      8.656
REMARK  Name = 56774893
REMARK  8 active torsions:
REMARK  status: ('A' for Active; 'I' for Inactive)
REMARK    1  A    between atoms: O_2  and  C_9
REMARK    2  A    between atoms: O_4  and  C_21
REMARK    3  A    between atoms: O_4  and  C_22
REMARK    4  A    between atoms: N_6  and  C_14
REMARK    5  A    between atoms: N_7  and  C_19
REMARK    6  A    between atoms: C_8  and  C_9
REMARK    7  A    between atoms: C_9  and  C_11
REMARK    8  A    between atoms: C_20  and  C_21
REMARK                            x       y       z     vdW  Elec       q    Type
REMARK                         _______ _______ _______ _____ _____    ______ ____
ROOT
ATOM     11  C   UNL     1      19.104   5.896  20.453  0.00  0.00    -0.017 A 
ATOM     15  C   UNL     1      18.526   6.983  21.107  0.00  0.00    +0.008 A 
ATOM     16  C   UNL     1      18.448   5.301  19.375  0.00  0.00    +0.008 A 
ATOM     17  C   UNL     1      17.292   7.477  20.683  0.00  0.00    +0.023 A 
ATOM     18  C   UNL     1      17.215   5.794  18.950  0.00  0.00    +0.023 A 
ATOM     19  C   UNL     1      16.637   6.882  19.605  0.00  0.00    +0.033 A 
ENDROOT
BRANCH  19   7
ATOM      5  O   UNL     1      13.892   6.563  20.796  0.00  0.00    -0.273 OA
ATOM      7  N   UNL     1      15.403   7.376  19.180  0.00  0.00    -0.284 N 
ATOM     20  C   UNL     1      14.148   7.198  19.778  0.00  0.00    +0.243 C 
ATOM     24  H   UNL     1      15.428   7.934  18.329  0.00  0.00    +0.155 HD
BRANCH  20  21
ATOM     21  C   UNL     1      13.045   7.896  19.010  0.00  0.00    +0.255 C 
BRANCH  21   4
ATOM      4  O   UNL     1      11.797   7.430  19.482  0.00  0.00    -0.374 OA
ATOM     22  C   UNL     1      11.045   8.469  20.104  0.00  0.00    +0.194 C 
ENDBRANCH  21   4
ENDBRANCH  20  21
ENDBRANCH  19   7
BRANCH  11   9
ATOM      9  C   UNL     1      20.437   5.362  20.913  0.00  0.00    +0.167 C 
BRANCH   9   8
ATOM      1  O   UNL     1      22.669   4.736  22.712  0.00  0.00    -0.369 OA
ATOM      3  O   UNL     1      24.505   6.785  20.371  0.00  0.00    -0.273 OA
ATOM      6  N   UNL     1      22.293   6.979  21.071  0.00  0.00    -0.295 N 
ATOM      8  C   UNL     1      21.177   6.367  21.801  0.00  0.00    +0.134 C 
ATOM     10  C   UNL     1      21.688   5.701  23.074  0.00  0.00    +0.185 C 
ATOM     12  C   UNL     1      23.572   6.425  21.092  0.00  0.00    +0.241 C 
ATOM     13  C   UNL     1      23.806   5.357  22.155  0.00  0.00    +0.255 C 
ATOM     14  C   UNL     1      21.985   8.083  20.173  0.00  0.00    +0.132 C 
ENDBRANCH   9   8
BRANCH   9   2
ATOM      2  O   UNL     1      21.242   5.054  19.779  0.00  0.00    -0.385 OA
ATOM     23  H   UNL     1      21.980   4.490  20.066  0.00  0.00    +0.210 HD
ENDBRANCH   9   2
ENDBRANCH  11   9
TORSDOF 6
ENDMDL
MODEL 4
REMARK VINA RESULT:      -5.9     27.580     30.154
REMARK  Name = 56774893
REMARK  8 active torsions:
REMARK  status: ('A' for Active; 'I' for Inactive)
REMARK    1  A    between atoms: O_2  and  C_9
REMARK    2  A    between atoms: O_4  and  C_21
REMARK    3  A    between atoms: O_4  and  C_22
REMARK    4  A    between atoms: N_6  and  C_14
REMARK    5  A    between atoms: N_7  and  C_19
REMARK    6  A    between atoms: C_8  and  C_9
REMARK    7  A    between atoms: C_9  and  C_11
REMARK    8  A    between atoms: C_20  and  C_21
REMARK                            x       y       z     vdW  Elec       q    Type
REMARK                         _______ _______ _______ _____ _____    ______ ____
ROOT
ATOM     11  C   UNL     1     -11.906   8.652  20.423  0.00  0.00    -0.017 A 
ATOM     15  C   UNL     1     -13.062   9.095  21.065  0.00  0.00    +0.008 A 
ATOM     16  C   UNL     1     -11.536   7.309  20.500  0.00  0.00    +0.008 A 
ATOM     17  C   UNL     1     -13.850   8.195  21.783  0.00  0.00    +0.023 A 
ATOM     18  C   UNL     1     -12.324   6.409  21.218  0.00  0.00    +0.023 A 
ATOM     19  C   UNL     1     -13.481   6.853  21.859  0.00  0.00    +0.033 A 
ENDROOT
BRANCH  19   7
ATOM      5  O   UNL     1     -15.667   5.003  20.936  0.00  0.00    -0.273 OA
ATOM      7  N   UNL     1     -14.268   5.953  22.578  0.00  0.00    -0.284 N 
ATOM     20  C   UNL     1     -15.277   5.108  22.094  0.00  0.00    +0.243 C 
ATOM     24  H   UNL     1     -14.079   5.912  23.577  0.00  0.00    +0.155 HD
BRANCH  20  21
ATOM     21  C   UNL     1     -15.903   4.277  23.195  0.00  0.00    +0.255 C 
BRANCH  21   4
ATOM      4  O   UNL     1     -16.170   2.984  22.692  0.00  0.00    -0.374 OA
ATOM     22  C   UNL     1     -17.379   2.449  23.224  0.00  0.00    +0.194 C 
ENDBRANCH  21   4
ENDBRANCH  20  21
ENDBRANCH  19   7
BRANCH  11   9
ATOM      9  C   UNL     1     -11.054   9.625  19.649  0.00  0.00    +0.167 C 
BRANCH   9   8
ATOM      1  O   UNL     1     -10.048  11.762  17.906  0.00  0.00    -0.369 OA
ATOM      3  O   UNL     1     -10.483   9.237  15.360  0.00  0.00    -0.273 OA
ATOM      6  N   UNL     1     -11.744   9.618  17.280  0.00  0.00    -0.295 N 
ATOM      8  C   UNL     1     -11.856  10.337  18.555  0.00  0.00    +0.134 C 
ATOM     10  C   UNL     1     -11.389  11.778  18.383  0.00  0.00    +0.185 C 
ATOM     12  C   UNL     1     -10.737   9.910  16.361  0.00  0.00    +0.241 C 
ATOM     13  C   UNL     1      -9.980  11.210  16.611  0.00  0.00    +0.255 C 
ATOM     14  C   UNL     1     -12.606   8.461  17.083  0.00  0.00    +0.132 C 
ENDBRANCH   9   8
BRANCH   9   2
ATOM      2  O   UNL     1      -9.961   8.932  19.055  0.00  0.00    -0.385 OA
ATOM     23  H   UNL     1      -9.937   9.144  18.107  0.00  0.00    +0.210 HD
ENDBRANCH   9   2
ENDBRANCH  11   9
TORSDOF 6
ENDMDL
MODEL 5
REMARK VINA RESULT:      -5.9      2.271      8.445
REMARK  Name = 56774893
REMARK  8 active torsions:
REMARK  status: ('A' for Active; 'I' for Inactive)
REMARK    1  A    between atoms: O_2  and  C_9
REMARK    2  A    between atoms: O_4  and  C_21
REMARK    3  A    between atoms: O_4  and  C_22
REMARK    4  A    between atoms: N_6  and  C_14
REMARK    5  A    between atoms: N_7  and  C_19
REMARK    6  A    between atoms: C_8  and  C_9
REMARK    7  A    between atoms: C_9  and  C_11
REMARK    8  A    between atoms: C_20  and  C_21
REMARK                            x       y       z     vdW  Elec       q    Type
REMARK                         _______ _______ _______ _____ _____    ______ ____
ROOT
ATOM     11  C   UNL     1      18.533   6.387  20.594  0.00  0.00    -0.017 A 
ATOM     15  C   UNL     1      18.178   5.702  19.432  0.00  0.00    +0.008 A 
ATOM     16  C   UNL     1      17.608   7.224  21.220  0.00  0.00    +0.008 A 
ATOM     17  C   UNL     1      16.899   5.853  18.896  0.00  0.00    +0.023 A 
ATOM     18  C   UNL     1      16.330   7.375  20.685  0.00  0.00    +0.023 A 
ATOM     19  C   UNL     1      15.975   6.689  19.523  0.00  0.00    +0.033 A 
ENDROOT
BRANCH  19   7
ATOM      5  O   UNL     1      14.678   9.061  18.202  0.00  0.00    -0.273 OA
ATOM      7  N   UNL     1      14.696   6.839  18.988  0.00  0.00    -0.284 N 
ATOM     20  C   UNL     1      14.141   7.972  18.378  0.00  0.00    +0.243 C 
ATOM     24  H   UNL     1      14.098   6.017  19.053  0.00  0.00    +0.155 HD
BRANCH  20  21
ATOM     21  C   UNL     1      12.715   7.737  17.924  0.00  0.00    +0.255 C 
BRANCH  21   4
ATOM      4  O   UNL     1      11.929   7.405  19.049  0.00  0.00    -0.374 OA
ATOM     22  C   UNL     1      11.349   8.559  19.650  0.00  0.00    +0.194 C 
ENDBRANCH  21   4
ENDBRANCH  20  21
ENDBRANCH  19   7
BRANCH  11   9
ATOM      9  C   UNL     1      19.916   6.225  21.171  0.00  0.00    +0.167 C 
BRANCH   9   8
ATOM      1  O   UNL     1      21.401   5.899  23.681  0.00  0.00    -0.369 OA
ATOM      3  O   UNL     1      23.851   7.897  21.935  0.00  0.00    -0.273 OA
ATOM      6  N   UNL     1      21.528   7.980  21.807  0.00  0.00    -0.295 N 
ATOM      8  C   UNL     1      20.254   7.344  22.161  0.00  0.00    +0.134 C 
ATOM     10  C   UNL     1      20.315   6.814  23.589  0.00  0.00    +0.185 C 
ATOM     12  C   UNL     1      22.741   7.524  22.320  0.00  0.00    +0.241 C 
ATOM     13  C   UNL     1      22.633   6.558  23.495  0.00  0.00    +0.255 C 
ATOM     14  C   UNL     1      21.507   8.990  20.757  0.00  0.00    +0.132 C 
ENDBRANCH   9   8
BRANCH   9   2
ATOM      2  O   UNL     1      20.874   6.224  20.118  0.00  0.00    -0.385 OA
ATOM     23  H   UNL     1      21.225   7.125  20.016  0.00  0.00    +0.210 HD
ENDBRANCH   9   2
ENDBRANCH  11   9
TORSDOF 6
ENDMDL
MODEL 6
REMARK VINA RESULT:      -5.8     27.556     30.597
REMARK  Name = 56774893
REMARK  8 active torsions:
REMARK  status: ('A' for Active; 'I' for Inactive)
REMARK    1  A    between atoms: O_2  and  C_9
REMARK    2  A    between atoms: O_4  and  C_21
REMARK    3  A    between atoms: O_4  and  C_22
REMARK    4  A    between atoms: N_6  and  C_14
REMARK    5  A    between atoms: N_7  and  C_19
REMARK    6  A    between atoms: C_8  and  C_9
REMARK    7  A    between atoms: C_9  and  C_11
REMARK    8  A    between atoms: C_20  and  C_21
REMARK                            x       y       z     vdW  Elec       q    Type
REMARK                         _______ _______ _______ _____ _____    ______ ____
ROOT
ATOM     11  C   UNL     1     -12.389   7.203  20.677  0.00  0.00    -0.017 A 
ATOM     15  C   UNL     1     -13.442   8.015  21.099  0.00  0.00    +0.008 A 
ATOM     16  C   UNL     1     -12.236   5.924  21.213  0.00  0.00    +0.008 A 
ATOM     17  C   UNL     1     -14.343   7.547  22.056  0.00  0.00    +0.023 A 
ATOM     18  C   UNL     1     -13.137   5.456  22.169  0.00  0.00    +0.023 A 
ATOM     19  C   UNL     1     -14.191   6.268  22.590  0.00  0.00    +0.033 A 
ENDROOT
BRANCH  19   7
ATOM      5  O   UNL     1     -16.293   4.122  22.409  0.00  0.00    -0.273 OA
ATOM      7  N   UNL     1     -15.092   5.800  23.547  0.00  0.00    -0.284 N 
ATOM     20  C   UNL     1     -16.054   4.790  23.409  0.00  0.00    +0.243 C 
ATOM     24  H   UNL     1     -15.036   6.255  24.456  0.00  0.00    +0.155 HD
BRANCH  20  21
ATOM     21  C   UNL     1     -16.842   4.574  24.684  0.00  0.00    +0.255 C 
BRANCH  21   4
ATOM      4  O   UNL     1     -16.050   3.831  25.588  0.00  0.00    -0.374 OA
ATOM     22  C   UNL     1     -16.396   2.449  25.583  0.00  0.00    +0.194 C 
ENDBRANCH  21   4
ENDBRANCH  20  21
ENDBRANCH  19   7
BRANCH  11   9
ATOM      9  C   UNL     1     -11.414   7.710  19.645  0.00  0.00    +0.167 C 
BRANCH   9   8
ATOM      1  O   UNL     1      -9.737   9.611  18.167  0.00  0.00    -0.369 OA
ATOM      3  O   UNL     1     -11.759   8.502  15.388  0.00  0.00    -0.273 OA
ATOM      6  N   UNL     1     -12.354   8.766  17.623  0.00  0.00    -0.295 N 
ATOM      8  C   UNL     1     -11.898   9.011  18.996  0.00  0.00    +0.134 C 
ATOM     10  C   UNL     1     -10.798  10.066  19.000  0.00  0.00    +0.185 C 
ATOM     12  C   UNL     1     -11.487   8.859  16.536  0.00  0.00    +0.241 C 
ATOM     13  C   UNL     1     -10.149   9.533  16.822  0.00  0.00    +0.255 C 
ATOM     14  C   UNL     1     -13.702   8.242  17.446  0.00  0.00    +0.132 C 
ENDBRANCH   9   8
BRANCH   9   2
ATOM      2  O   UNL     1     -11.234   6.721  18.636  0.00  0.00    -0.385 OA
ATOM     23  H   UNL     1     -11.269   5.843  19.052  0.00  0.00    +0.210 HD
ENDBRANCH   9   2
ENDBRANCH  11   9
TORSDOF 6
ENDMDL
MODEL 7
REMARK VINA RESULT:      -5.8     27.207     29.890
REMARK  Name = 56774893
REMARK  8 active torsions:
REMARK  status: ('A' for Active; 'I' for Inactive)
REMARK    1  A    between atoms: O_2  and  C_9
REMARK    2  A    between atoms: O_4  and  C_21
REMARK    3  A    between atoms: O_4  and  C_22
REMARK    4  A    between atoms: N_6  and  C_14
REMARK    5  A    between atoms: N_7  and  C_19
REMARK    6  A    between atoms: C_8  and  C_9
REMARK    7  A    between atoms: C_9  and  C_11
REMARK    8  A    between atoms: C_20  and  C_21
REMARK                            x       y       z     vdW  Elec       q    Type
REMARK                         _______ _______ _______ _____ _____    ______ ____
ROOT
ATOM     11  C   UNL     1      -4.817 -10.506  16.831  0.00  0.00    -0.017 A 
ATOM     15  C   UNL     1      -4.834 -11.077  18.103  0.00  0.00    +0.008 A 
ATOM     16  C   UNL     1      -5.939  -9.827  16.355  0.00  0.00    +0.008 A 
ATOM     17  C   UNL     1      -5.973 -10.967  18.901  0.00  0.00    +0.023 A 
ATOM     18  C   UNL     1      -7.078  -9.717  17.153  0.00  0.00    +0.023 A 
ATOM     19  C   UNL     1      -7.094 -10.287  18.426  0.00  0.00    +0.033 A 
ENDROOT
BRANCH  19   7
ATOM      5  O   UNL     1      -9.634 -11.901  18.437  0.00  0.00    -0.273 OA
ATOM      7  N   UNL     1      -8.233 -10.177  19.224  0.00  0.00    -0.284 N 
ATOM     20  C   UNL     1      -9.394 -10.962  19.189  0.00  0.00    +0.243 C 
ATOM     24  H   UNL     1      -8.209  -9.431  19.916  0.00  0.00    +0.155 HD
BRANCH  20  21
ATOM     21  C   UNL     1     -10.411 -10.525  20.222  0.00  0.00    +0.255 C 
BRANCH  21   4
ATOM      4  O   UNL     1     -11.457  -9.836  19.568  0.00  0.00    -0.374 OA
ATOM     22  C   UNL     1     -12.671  -9.888  20.311  0.00  0.00    +0.194 C 
ENDBRANCH  21   4
ENDBRANCH  20  21
ENDBRANCH  19   7
BRANCH  11   9
ATOM      9  C   UNL     1      -3.586 -10.626  15.968  0.00  0.00    +0.167 C 
BRANCH   9   8
ATOM      1  O   UNL     1      -1.665 -11.037  13.788  0.00  0.00    -0.369 OA
ATOM      3  O   UNL     1      -2.473 -14.508  14.370  0.00  0.00    -0.273 OA
ATOM      6  N   UNL     1      -3.839 -12.633  14.555  0.00  0.00    -0.295 N 
ATOM      8  C   UNL     1      -3.919 -11.167  14.574  0.00  0.00    +0.134 C 
ATOM     10  C   UNL     1      -2.987 -10.581  13.521  0.00  0.00    +0.185 C 
ATOM     12  C   UNL     1      -2.655 -13.296  14.238  0.00  0.00    +0.241 C 
ATOM     13  C   UNL     1      -1.567 -12.431  13.611  0.00  0.00    +0.255 C 
ATOM     14  C   UNL     1      -4.987 -13.376  15.058  0.00  0.00    +0.132 C 
ENDBRANCH   9   8
BRANCH   9   2
ATOM      2  O   UNL     1      -2.648 -11.493  16.597  0.00  0.00    -0.385 OA
ATOM     23  H   UNL     1      -1.759 -11.281  16.266  0.00  0.00    +0.210 HD
ENDBRANCH   9   2
ENDBRANCH  11   9
TORSDOF 6
ENDMDL
MODEL 8
REMARK VINA RESULT:      -5.7      5.595      7.291
REMARK  Name = 56774893
REMARK  8 active torsions:
REMARK  status: ('A' for Active; 'I' for Inactive)
REMARK    1  A    between atoms: O_2  and  C_9
REMARK    2  A    between atoms: O_4  and  C_21
REMARK    3  A    between atoms: O_4  and  C_22
REMARK    4  A    between atoms: N_6  and  C_14
REMARK    5  A    between atoms: N_7  and  C_19
REMARK    6  A    between atoms: C_8  and  C_9
REMARK    7  A    between atoms: C_9  and  C_11
REMARK    8  A    between atoms: C_20  and  C_21
REMARK                            x       y       z     vdW  Elec       q    Type
REMARK                         _______ _______ _______ _____ _____    ______ ____
ROOT
ATOM     11  C   UNL     1      12.704   9.714  18.230  0.00  0.00    -0.017 A 
ATOM     15  C   UNL     1      12.852   8.960  17.067  0.00  0.00    +0.008 A 
ATOM     16  C   UNL     1      13.447  10.883  18.404  0.00  0.00    +0.008 A 
ATOM     17  C   UNL     1      13.743   9.374  16.076  0.00  0.00    +0.023 A 
ATOM     18  C   UNL     1      14.337  11.297  17.413  0.00  0.00    +0.023 A 
ATOM     19  C   UNL     1      14.484  10.542  16.249  0.00  0.00    +0.033 A 
ENDROOT
BRANCH  19   7
ATOM      5  O   UNL     1      13.971  11.811  13.569  0.00  0.00    -0.273 OA
ATOM      7  N   UNL     1      15.374  10.956  15.258  0.00  0.00    -0.284 N 
ATOM     20  C   UNL     1      15.080  11.548  14.022  0.00  0.00    +0.243 C 
ATOM     24  H   UNL     1      16.359  10.806  15.468  0.00  0.00    +0.155 HD
BRANCH  20  21
ATOM     21  C   UNL     1      16.329  11.854  13.222  0.00  0.00    +0.255 C 
BRANCH  21   4
ATOM      4  O   UNL     1      17.179  12.670  14.001  0.00  0.00    -0.374 OA
ATOM     22  C   UNL     1      18.542  12.270  13.893  0.00  0.00    +0.194 C 
ENDBRANCH  21   4
ENDBRANCH  20  21
ENDBRANCH  19   7
BRANCH  11   9
ATOM      9  C   UNL     1      11.743   9.265  19.302  0.00  0.00    +0.167 C 
BRANCH   9   8
ATOM      1  O   UNL     1      10.483   9.112  21.947  0.00  0.00    -0.369 OA
ATOM      3  O   UNL     1      11.379   5.627  21.646  0.00  0.00    -0.273 OA
ATOM      6  N   UNL     1      12.503   7.505  20.854  0.00  0.00    -0.295 N 
ATOM      8  C   UNL     1      12.463   8.953  20.617  0.00  0.00    +0.134 C 
ATOM     10  C   UNL     1      11.789   9.654  21.791  0.00  0.00    +0.185 C 
ATOM     12  C   UNL     1      11.495   6.851  21.560  0.00  0.00    +0.241 C 
ATOM     13  C   UNL     1      10.541   7.757  22.330  0.00  0.00    +0.255 C 
ATOM     14  C   UNL     1      13.538   6.740  20.170  0.00  0.00    +0.132 C 
ENDBRANCH   9   8
BRANCH   9   2
ATOM      2  O   UNL     1      11.047   8.104  18.860  0.00  0.00    -0.385 OA
ATOM     23  H   UNL     1      11.509   7.741  18.086  0.00  0.00    +0.210 HD
ENDBRANCH   9   2
ENDBRANCH  11   9
TORSDOF 6
ENDMDL
MODEL 9
REMARK VINA RESULT:      -5.7     27.389     30.714
REMARK  Name = 56774893
REMARK  8 active torsions:
REMARK  status: ('A' for Active; 'I' for Inactive)
REMARK    1  A    between atoms: O_2  and  C_9
REMARK    2  A    between atoms: O_4  and  C_21
REMARK    3  A    between atoms: O_4  and  C_22
REMARK    4  A    between atoms: N_6  and  C_14
REMARK    5  A    between atoms: N_7  and  C_19
REMARK    6  A    between atoms: C_8  and  C_9
REMARK    7  A    between atoms: C_9  and  C_11
REMARK    8  A    between atoms: C_20  and  C_21
REMARK                            x       y       z     vdW  Elec       q    Type
REMARK                         _______ _______ _______ _____ _____    ______ ____
ROOT
ATOM     11  C   UNL     1     -13.769   6.432  21.009  0.00  0.00    -0.017 A 
ATOM     15  C   UNL     1     -12.400   6.503  21.264  0.00  0.00    +0.008 A 
ATOM     16  C   UNL     1     -14.340   7.248  20.032  0.00  0.00    +0.008 A 
ATOM     17  C   UNL     1     -11.601   7.390  20.542  0.00  0.00    +0.023 A 
ATOM     18  C   UNL     1     -13.542   8.134  19.310  0.00  0.00    +0.023 A 
ATOM     19  C   UNL     1     -12.172   8.205  19.565  0.00  0.00    +0.033 A 
ENDROOT
BRANCH  19   7
ATOM      5  O   UNL     1     -10.469   7.756  17.125  0.00  0.00    -0.273 OA
ATOM      7  N   UNL     1     -11.374   9.092  18.843  0.00  0.00    -0.284 N 
ATOM     20  C   UNL     1     -10.599   8.829  17.705  0.00  0.00    +0.243 C 
ATOM     24  H   UNL     1     -11.359  10.048  19.194  0.00  0.00    +0.155 HD
BRANCH  20  21
ATOM     21  C   UNL     1      -9.871  10.062  17.212  0.00  0.00    +0.255 C 
BRANCH  21   4
ATOM      4  O   UNL     1      -9.977  11.075  18.191  0.00  0.00    -0.374 OA
ATOM     22  C   UNL     1     -10.139  12.364  17.604  0.00  0.00    +0.194 C 
ENDBRANCH  21   4
ENDBRANCH  20  21
ENDBRANCH  19   7
BRANCH  11   9
ATOM      9  C   UNL     1     -14.632   5.474  21.791  0.00  0.00    +0.167 C 
BRANCH   9   8
ATOM      1  O   UNL     1     -16.705   7.401  22.564  0.00  0.00    -0.369 OA
ATOM      3  O   UNL     1     -18.071   4.525  24.269  0.00  0.00    -0.273 OA
ATOM      6  N   UNL     1     -15.843   5.096  23.906  0.00  0.00    -0.295 N 
ATOM      8  C   UNL     1     -14.897   5.978  23.213  0.00  0.00    +0.134 C 
ATOM     10  C   UNL     1     -15.431   7.406  23.198  0.00  0.00    +0.185 C 
ATOM     12  C   UNL     1     -17.218   5.315  23.858  0.00  0.00    +0.241 C 
ATOM     13  C   UNL     1     -17.646   6.679  23.326  0.00  0.00    +0.255 C 
ATOM     14  C   UNL     1     -15.314   3.874  24.497  0.00  0.00    +0.132 C 
ENDBRANCH   9   8
BRANCH   9   2
ATOM      2  O   UNL     1     -13.994   4.202  21.854  0.00  0.00    -0.385 OA
ATOM     23  H   UNL     1     -14.677   3.515  21.924  0.00  0.00    +0.210 HD
ENDBRANCH   9   2
ENDBRANCH  11   9
TORSDOF 6
ENDMDL
MODEL 10
REMARK VINA RESULT:      -5.6      1.710      8.779
REMARK  Name = 56774893
REMARK  8 active torsions:
REMARK  status: ('A' for Active; 'I' for Inactive)
REMARK    1  A    between atoms: O_2  and  C_9
REMARK    2  A    between atoms: O_4  and  C_21
REMARK    3  A    between atoms: O_4  and  C_22
REMARK    4  A    between atoms: N_6  and  C_14
REMARK    5  A    between atoms: N_7  and  C_19
REMARK    6  A    between atoms: C_8  and  C_9
REMARK    7  A    between atoms: C_9  and  C_11
REMARK    8  A    between atoms: C_20  and  C_21
REMARK                            x       y       z     vdW  Elec       q    Type
REMARK                         _______ _______ _______ _____ _____    ______ ____
ROOT
ATOM     11  C   UNL     1      19.343   5.941  20.642  0.00  0.00    -0.017 A 
ATOM     15  C   UNL     1      18.513   5.504  19.610  0.00  0.00    +0.008 A 
ATOM     16  C   UNL     1      18.981   7.051  21.407  0.00  0.00    +0.008 A 
ATOM     17  C   UNL     1      17.320   6.176  19.343  0.00  0.00    +0.023 A 
ATOM     18  C   UNL     1      17.789   7.722  21.139  0.00  0.00    +0.023 A 
ATOM     19  C   UNL     1      16.958   7.285  20.107  0.00  0.00    +0.033 A 
ENDROOT
BRANCH  19   7
ATOM      5  O   UNL     1      14.106   6.485  20.635  0.00  0.00    -0.273 OA
ATOM      7  N   UNL     1      15.766   7.957  19.840  0.00  0.00    -0.284 N 
ATOM     20  C   UNL     1      14.456   7.538  20.110  0.00  0.00    +0.243 C 
ATOM     24  H   UNL     1      15.870   8.865  19.391  0.00  0.00    +0.155 HD
BRANCH  20  21
ATOM     21  C   UNL     1      13.426   8.555  19.666  0.00  0.00    +0.255 C 
BRANCH  21   4
ATOM      4  O   UNL     1      12.412   8.632  20.646  0.00  0.00    -0.374 OA
ATOM     22  C   UNL     1      12.710   9.607  21.641  0.00  0.00    +0.194 C 
ENDBRANCH  21   4
ENDBRANCH  20  21
ENDBRANCH  19   7
BRANCH  11   9
ATOM      9  C   UNL     1      20.633   5.215  20.930  0.00  0.00    +0.167 C 
BRANCH   9   8
ATOM      1  O   UNL     1      22.921   4.179  22.448  0.00  0.00    -0.369 OA
ATOM      3  O   UNL     1      24.782   6.194  20.098  0.00  0.00    -0.273 OA
ATOM      6  N   UNL     1      22.683   6.584  21.026  0.00  0.00    -0.295 N 
ATOM      8  C   UNL     1      21.568   6.046  21.814  0.00  0.00    +0.134 C 
ATOM     10  C   UNL     1      22.104   5.217  22.976  0.00  0.00    +0.185 C 
ATOM     12  C   UNL     1      23.879   5.884  20.878  0.00  0.00    +0.241 C 
ATOM     13  C   UNL     1      24.072   4.708  21.829  0.00  0.00    +0.255 C 
ATOM     14  C   UNL     1      22.436   7.791  20.248  0.00  0.00    +0.132 C 
ENDBRANCH   9   8
BRANCH   9   2
ATOM      2  O   UNL     1      21.291   4.911  19.705  0.00  0.00    -0.385 OA
ATOM     23  H   UNL     1      21.438   3.951  19.661  0.00  0.00    +0.210 HD
ENDBRANCH   9   2
ENDBRANCH  11   9
TORSDOF 6
ENDMDL
