REMARK  Name = 26743636
REMARK  5 active torsions:
REMARK  status: ('A' for Active; 'I' for Inactive)
REMARK    1  A    between atoms: O_5  and  C_14
REMARK    2  A    between atoms: N_7  and  C_10
REMARK    3  A    between atoms: C_11  and  C_17
REMARK    4  A    between atoms: C_20  and  C_21
REMARK    5  A    between atoms: C_26  and  C_27
REMARK                            x       y       z     vdW  Elec       q    Type
REMARK                         _______ _______ _______ _____ _____    ______ ____
ROOT
ATOM      6  O   UNL     1      -1.030  -1.531   2.070  0.00  0.00    -0.336 OA
ATOM      8  N   UNL     1      -0.416  -0.720   0.074  0.00  0.00    -0.190 NA
ATOM      9  N   UNL     1       0.360  -1.365   2.127  0.00  0.00    -0.056 NA
ATOM     17  C   UNL     1      -1.406  -1.128   0.827  0.00  0.00    +0.245 A 
ATOM     20  C   UNL     1       0.647  -0.884   0.914  0.00  0.00    +0.202 A 
ENDROOT
BRANCH  20  21
ATOM     21  C   UNL     1       1.984  -0.558   0.509  0.00  0.00    +0.022 A 
ATOM     22  C   UNL     1       2.223  -0.060  -0.771  0.00  0.00    +0.012 A 
ATOM     23  C   UNL     1       3.044  -0.739   1.397  0.00  0.00    +0.012 A 
ATOM     24  C   UNL     1       3.523   0.257  -1.165  0.00  0.00    +0.013 A 
ATOM     25  C   UNL     1       4.345  -0.422   1.004  0.00  0.00    +0.013 A 
ATOM     26  C   UNL     1       4.584   0.076  -0.277  0.00  0.00    +0.055 A 
BRANCH  26  27
ATOM      1  F   UNL     1       6.561   1.375   0.076  0.00  0.00    -0.166 F 
ATOM      2  F   UNL     1       6.035   0.888  -1.976  0.00  0.00    -0.166 F 
ATOM      3  F   UNL     1       6.832  -0.647  -0.659  0.00  0.00    -0.166 F 
ATOM     27  C   UNL     1       5.974   0.415  -0.697  0.00  0.00    +0.417 C 
ENDBRANCH  26  27
ENDBRANCH  20  21
BRANCH  17  11
ATOM      7  N   UNL     1      -3.303  -0.223  -0.506  0.00  0.00    -0.286 NA
ATOM     11  C   UNL     1      -2.884  -1.210   0.510  0.00  0.00    +0.149 C 
ATOM     12  C   UNL     1      -4.435  -0.815  -1.216  0.00  0.00    +0.116 C 
ATOM     13  C   UNL     1      -3.293  -2.575  -0.075  0.00  0.00    +0.061 C 
ATOM     14  C   UNL     1      -3.974  -2.248  -1.398  0.00  0.00    +0.130 C 
BRANCH   7  10
ATOM      4  O   UNL     1      -3.121   3.913   0.193  0.00  0.00    -0.380 OA
ATOM     10  C   UNL     1      -3.632   1.083   0.062  0.00  0.00    +0.062 C 
ATOM     15  C   UNL     1      -2.420   1.665   0.795  0.00  0.00    +0.047 C 
ATOM     16  C   UNL     1      -4.102   2.054  -1.026  0.00  0.00    +0.047 C 
ATOM     18  C   UNL     1      -2.723   3.078   1.281  0.00  0.00    +0.161 C 
ATOM     19  C   UNL     1      -4.312   3.445  -0.439  0.00  0.00    +0.161 C 
ENDBRANCH   7  10
BRANCH  14   5
ATOM      5  O   UNL     1      -5.060  -3.123  -1.633  0.00  0.00    -0.390 OA
ATOM     28  H   UNL     1      -4.705  -4.028  -1.663  0.00  0.00    +0.210 HD
ENDBRANCH  14   5
ENDBRANCH  17  11
TORSDOF 5
