MODEL 1
REMARK VINA RESULT:      -7.6      0.000      0.000
REMARK  Name = 71693653
REMARK  8 active torsions:
REMARK  status: ('A' for Active; 'I' for Inactive)
REMARK    1  A    between atoms: O_2  and  C_12
REMARK    2  A    between atoms: N_5  and  C_15
REMARK    3  A    between atoms: N_6  and  C_20
REMARK    4  A    between atoms: N_7  and  C_25
REMARK    5  A    between atoms: C_9  and  C_12
REMARK    6  A    between atoms: C_10  and  C_11
REMARK    7  A    between atoms: C_21  and  C_22
REMARK    8  A    between atoms: C_24  and  C_26
REMARK                            x       y       z     vdW  Elec       q    Type
REMARK                         _______ _______ _______ _____ _____    ______ ____
ROOT
ATOM     11  C   UNL     1      15.840   7.350  19.697  0.00  0.00    -0.017 A 
ATOM     16  C   UNL     1      16.153   6.203  18.966  0.00  0.00    +0.008 A 
ATOM     17  C   UNL     1      16.784   7.909  20.558  0.00  0.00    +0.008 A 
ATOM     18  C   UNL     1      17.413   5.616  19.098  0.00  0.00    +0.023 A 
ATOM     19  C   UNL     1      18.042   7.322  20.689  0.00  0.00    +0.023 A 
ATOM     20  C   UNL     1      18.356   6.175  19.958  0.00  0.00    +0.034 A 
ENDROOT
BRANCH  11  10
ATOM      1  O   UNL     1      14.044   7.761  18.211  0.00  0.00    -0.361 OA
ATOM      3  O   UNL     1      10.600   8.634  18.467  0.00  0.00    -0.273 OA
ATOM      5  N   UNL     1      12.049   7.895  20.136  0.00  0.00    -0.295 N 
ATOM      9  C   UNL     1      13.403   7.409  20.499  0.00  0.00    +0.134 C 
ATOM     10  C   UNL     1      14.474   7.988  19.554  0.00  0.00    +0.171 C 
ATOM     13  C   UNL     1      12.907   8.536  17.912  0.00  0.00    +0.256 C 
ATOM     14  C   UNL     1      11.734   8.341  18.851  0.00  0.00    +0.242 C 
ATOM     15  C   UNL     1      10.962   7.671  21.084  0.00  0.00    +0.132 C 
BRANCH   9  12
ATOM     12  C   UNL     1      13.759   7.703  21.964  0.00  0.00    +0.181 C 
BRANCH  12   2
ATOM      2  O   UNL     1      13.870   9.104  22.119  0.00  0.00    -0.393 OA
ATOM     27  H   UNL     1      14.229   9.267  23.007  0.00  0.00    +0.209 HD
ENDBRANCH  12   2
ENDBRANCH   9  12
ENDBRANCH  11  10
BRANCH  20   6
ATOM      4  O   UNL     1      20.105   5.854  22.373  0.00  0.00    -0.268 OA
ATOM      6  N   UNL     1      19.616   5.588  20.089  0.00  0.00    -0.280 N 
ATOM     21  C   UNL     1      20.393   5.464  21.247  0.00  0.00    +0.266 C 
ATOM     28  H   UNL     1      20.004   5.212  19.226  0.00  0.00    +0.155 HD
BRANCH  21  22
ATOM      7  N   UNL     1      22.870   5.344  20.725  0.00  0.00    -0.262 N 
ATOM      8  N   UNL     1      23.899   4.483  20.630  0.00  0.00    -0.176 NA
ATOM     22  C   UNL     1      21.690   4.756  21.071  0.00  0.00    +0.124 A 
ATOM     23  C   UNL     1      21.963   3.418  21.212  0.00  0.00    +0.057 A 
ATOM     24  C   UNL     1      23.338   3.308  20.930  0.00  0.00    +0.061 A 
ATOM     25  C   UNL     1      23.098   6.747  20.464  0.00  0.00    +0.173 C 
ATOM     26  C   UNL     1      24.160   2.087  20.935  0.00  0.00    +0.067 C 
ENDBRANCH  21  22
ENDBRANCH  20   6
TORSDOF 5
ENDMDL
MODEL 2
REMARK VINA RESULT:      -7.0      1.353      2.010
REMARK  Name = 71693653
REMARK  8 active torsions:
REMARK  status: ('A' for Active; 'I' for Inactive)
REMARK    1  A    between atoms: O_2  and  C_12
REMARK    2  A    between atoms: N_5  and  C_15
REMARK    3  A    between atoms: N_6  and  C_20
REMARK    4  A    between atoms: N_7  and  C_25
REMARK    5  A    between atoms: C_9  and  C_12
REMARK    6  A    between atoms: C_10  and  C_11
REMARK    7  A    between atoms: C_21  and  C_22
REMARK    8  A    between atoms: C_24  and  C_26
REMARK                            x       y       z     vdW  Elec       q    Type
REMARK                         _______ _______ _______ _____ _____    ______ ____
ROOT
ATOM     11  C   UNL     1      15.760   6.854  19.943  0.00  0.00    -0.017 A 
ATOM     16  C   UNL     1      16.475   7.025  21.128  0.00  0.00    +0.008 A 
ATOM     17  C   UNL     1      16.349   6.205  18.859  0.00  0.00    +0.008 A 
ATOM     18  C   UNL     1      17.782   6.546  21.229  0.00  0.00    +0.023 A 
ATOM     19  C   UNL     1      17.655   5.726  18.959  0.00  0.00    +0.023 A 
ATOM     20  C   UNL     1      18.372   5.896  20.144  0.00  0.00    +0.034 A 
ENDROOT
BRANCH  11  10
ATOM      1  O   UNL     1      13.536   6.578  20.707  0.00  0.00    -0.361 OA
ATOM      3  O   UNL     1      10.559   8.532  20.816  0.00  0.00    -0.273 OA
ATOM      5  N   UNL     1      12.739   9.214  20.358  0.00  0.00    -0.295 N 
ATOM      9  C   UNL     1      14.173   8.848  20.246  0.00  0.00    +0.134 C 
ATOM     10  C   UNL     1      14.341   7.373  19.834  0.00  0.00    +0.171 C 
ATOM     13  C   UNL     1      12.168   6.816  20.480  0.00  0.00    +0.256 C 
ATOM     14  C   UNL     1      11.742   8.266  20.591  0.00  0.00    +0.242 C 
ATOM     15  C   UNL     1      12.399  10.629  20.466  0.00  0.00    +0.132 C 
BRANCH   9  12
ATOM     12  C   UNL     1      14.942   9.768  19.286  0.00  0.00    +0.181 C 
BRANCH  12   2
ATOM      2  O   UNL     1      14.614   9.397  17.962  0.00  0.00    -0.393 OA
ATOM     27  H   UNL     1      15.115   8.590  17.758  0.00  0.00    +0.209 HD
ENDBRANCH  12   2
ENDBRANCH   9  12
ENDBRANCH  11  10
BRANCH  20   6
ATOM      4  O   UNL     1      20.868   7.257  21.099  0.00  0.00    -0.268 OA
ATOM      6  N   UNL     1      19.678   5.417  20.245  0.00  0.00    -0.280 N 
ATOM     21  C   UNL     1      20.814   6.099  20.701  0.00  0.00    +0.266 C 
ATOM     28  H   UNL     1      19.805   4.453  19.944  0.00  0.00    +0.155 HD
BRANCH  21  22
ATOM      7  N   UNL     1      23.331   5.812  20.611  0.00  0.00    -0.262 N 
ATOM      8  N   UNL     1      24.299   4.880  20.655  0.00  0.00    -0.176 NA
ATOM     22  C   UNL     1      22.071   5.303  20.718  0.00  0.00    +0.124 A 
ATOM     23  C   UNL     1      22.224   3.943  20.839  0.00  0.00    +0.057 A 
ATOM     24  C   UNL     1      23.616   3.741  20.795  0.00  0.00    +0.061 A 
ATOM     25  C   UNL     1      23.696   7.203  20.463  0.00  0.00    +0.173 C 
ATOM     26  C   UNL     1      24.339   2.462  20.882  0.00  0.00    +0.067 C 
ENDBRANCH  21  22
ENDBRANCH  20   6
TORSDOF 5
ENDMDL
MODEL 3
REMARK VINA RESULT:      -6.7      1.803      2.198
REMARK  Name = 71693653
REMARK  8 active torsions:
REMARK  status: ('A' for Active; 'I' for Inactive)
REMARK    1  A    between atoms: O_2  and  C_12
REMARK    2  A    between atoms: N_5  and  C_15
REMARK    3  A    between atoms: N_6  and  C_20
REMARK    4  A    between atoms: N_7  and  C_25
REMARK    5  A    between atoms: C_9  and  C_12
REMARK    6  A    between atoms: C_10  and  C_11
REMARK    7  A    between atoms: C_21  and  C_22
REMARK    8  A    between atoms: C_24  and  C_26
REMARK                            x       y       z     vdW  Elec       q    Type
REMARK                         _______ _______ _______ _____ _____    ______ ____
ROOT
ATOM     11  C   UNL     1      16.713   7.315  20.131  0.00  0.00    -0.017 A 
ATOM     16  C   UNL     1      17.409   6.210  19.641  0.00  0.00    +0.008 A 
ATOM     17  C   UNL     1      17.294   8.133  21.099  0.00  0.00    +0.008 A 
ATOM     18  C   UNL     1      18.688   5.923  20.121  0.00  0.00    +0.023 A 
ATOM     19  C   UNL     1      18.572   7.846  21.579  0.00  0.00    +0.023 A 
ATOM     20  C   UNL     1      19.269   6.740  21.089  0.00  0.00    +0.034 A 
ENDROOT
BRANCH  11  10
ATOM      1  O   UNL     1      15.251   7.106  18.282  0.00  0.00    -0.361 OA
ATOM      3  O   UNL     1      11.739   7.280  17.706  0.00  0.00    -0.273 OA
ATOM      5  N   UNL     1      12.883   7.131  19.731  0.00  0.00    -0.295 N 
ATOM      9  C   UNL     1      14.185   6.998  20.432  0.00  0.00    +0.134 C 
ATOM     10  C   UNL     1      15.326   7.628  19.610  0.00  0.00    +0.171 C 
ATOM     13  C   UNL     1      14.095   7.572  17.627  0.00  0.00    +0.256 C 
ATOM     14  C   UNL     1      12.792   7.293  18.348  0.00  0.00    +0.242 C 
ATOM     15  C   UNL     1      11.666   6.841  20.483  0.00  0.00    +0.132 C 
BRANCH   9  12
ATOM     12  C   UNL     1      14.151   7.588  21.849  0.00  0.00    +0.181 C 
BRANCH  12   2
ATOM      2  O   UNL     1      13.961   8.985  21.742  0.00  0.00    -0.393 OA
ATOM     27  H   UNL     1      14.815   9.372  21.488  0.00  0.00    +0.209 HD
ENDBRANCH  12   2
ENDBRANCH   9  12
ENDBRANCH  11  10
BRANCH  20   6
ATOM      4  O   UNL     1      21.955   7.627  20.095  0.00  0.00    -0.268 OA
ATOM      6  N   UNL     1      20.548   6.453  21.568  0.00  0.00    -0.280 N 
ATOM     21  C   UNL     1      21.777   6.897  21.063  0.00  0.00    +0.266 C 
ATOM     28  H   UNL     1      20.573   5.843  22.382  0.00  0.00    +0.155 HD
BRANCH  21  22
ATOM      7  N   UNL     1      23.744   5.358  21.498  0.00  0.00    -0.262 N 
ATOM      8  N   UNL     1      24.774   5.157  22.338  0.00  0.00    -0.176 NA
ATOM     22  C   UNL     1      22.976   6.439  21.815  0.00  0.00    +0.124 A 
ATOM     23  C   UNL     1      23.542   6.984  22.942  0.00  0.00    +0.057 A 
ATOM     24  C   UNL     1      24.645   6.155  23.217  0.00  0.00    +0.061 A 
ATOM     25  C   UNL     1      23.552   4.453  20.388  0.00  0.00    +0.173 C 
ATOM     26  C   UNL     1      25.609   6.282  24.323  0.00  0.00    +0.067 C 
ENDBRANCH  21  22
ENDBRANCH  20   6
TORSDOF 5
ENDMDL
MODEL 4
REMARK VINA RESULT:      -6.6     17.723     20.788
REMARK  Name = 71693653
REMARK  8 active torsions:
REMARK  status: ('A' for Active; 'I' for Inactive)
REMARK    1  A    between atoms: O_2  and  C_12
REMARK    2  A    between atoms: N_5  and  C_15
REMARK    3  A    between atoms: N_6  and  C_20
REMARK    4  A    between atoms: N_7  and  C_25
REMARK    5  A    between atoms: C_9  and  C_12
REMARK    6  A    between atoms: C_10  and  C_11
REMARK    7  A    between atoms: C_21  and  C_22
REMARK    8  A    between atoms: C_24  and  C_26
REMARK                            x       y       z     vdW  Elec       q    Type
REMARK                         _______ _______ _______ _____ _____    ______ ____
ROOT
ATOM     11  C   UNL     1      11.455   4.126  -0.089  0.00  0.00    -0.017 A 
ATOM     16  C   UNL     1      12.471   3.708   0.771  0.00  0.00    +0.008 A 
ATOM     17  C   UNL     1      10.298   4.709   0.428  0.00  0.00    +0.008 A 
ATOM     18  C   UNL     1      12.329   3.873   2.150  0.00  0.00    +0.023 A 
ATOM     19  C   UNL     1      10.156   4.874   1.805  0.00  0.00    +0.023 A 
ATOM     20  C   UNL     1      11.172   4.456   2.667  0.00  0.00    +0.034 A 
ENDROOT
BRANCH  11  10
ATOM      1  O   UNL     1      10.531   3.117  -2.020  0.00  0.00    -0.361 OA
ATOM      3  O   UNL     1      10.732   3.577  -5.548  0.00  0.00    -0.273 OA
ATOM      5  N   UNL     1      11.454   4.994  -3.845  0.00  0.00    -0.295 N 
ATOM      9  C   UNL     1      11.551   5.261  -2.388  0.00  0.00    +0.134 C 
ATOM     10  C   UNL     1      11.609   3.947  -1.585  0.00  0.00    +0.171 C 
ATOM     13  C   UNL     1      10.735   2.687  -3.345  0.00  0.00    +0.256 C 
ATOM     14  C   UNL     1      10.950   3.797  -4.354  0.00  0.00    +0.242 C 
ATOM     15  C   UNL     1      11.668   6.110  -4.762  0.00  0.00    +0.132 C 
BRANCH   9  12
ATOM     12  C   UNL     1      12.741   6.164  -2.034  0.00  0.00    +0.181 C 
BRANCH  12   2
ATOM      2  O   UNL     1      12.241   7.327  -1.404  0.00  0.00    -0.393 OA
ATOM     27  H   UNL     1      12.615   8.091  -1.874  0.00  0.00    +0.209 HD
ENDBRANCH  12   2
ENDBRANCH   9  12
ENDBRANCH  11  10
BRANCH  20   6
ATOM      4  O   UNL     1      10.799   6.949   4.291  0.00  0.00    -0.268 OA
ATOM      6  N   UNL     1      11.031   4.622   4.045  0.00  0.00    -0.280 N 
ATOM     21  C   UNL     1      10.858   5.817   4.756  0.00  0.00    +0.266 C 
ATOM     28  H   UNL     1      11.064   3.760   4.585  0.00  0.00    +0.155 HD
BRANCH  21  22
ATOM      7  N   UNL     1      11.589   6.115   7.164  0.00  0.00    -0.262 N 
ATOM      8  N   UNL     1      11.221   5.851   8.430  0.00  0.00    -0.176 NA
ATOM     22  C   UNL     1      10.707   5.665   6.228  0.00  0.00    +0.124 A 
ATOM     23  C   UNL     1       9.690   5.064   6.929  0.00  0.00    +0.057 A 
ATOM     24  C   UNL     1      10.059   5.210   8.279  0.00  0.00    +0.061 A 
ATOM     25  C   UNL     1      12.828   6.819   6.922  0.00  0.00    +0.173 C 
ATOM     26  C   UNL     1       9.323   4.744   9.466  0.00  0.00    +0.067 C 
ENDBRANCH  21  22
ENDBRANCH  20   6
TORSDOF 5
ENDMDL
MODEL 5
REMARK VINA RESULT:      -6.5      2.044      9.434
REMARK  Name = 71693653
REMARK  8 active torsions:
REMARK  status: ('A' for Active; 'I' for Inactive)
REMARK    1  A    between atoms: O_2  and  C_12
REMARK    2  A    between atoms: N_5  and  C_15
REMARK    3  A    between atoms: N_6  and  C_20
REMARK    4  A    between atoms: N_7  and  C_25
REMARK    5  A    between atoms: C_9  and  C_12
REMARK    6  A    between atoms: C_10  and  C_11
REMARK    7  A    between atoms: C_21  and  C_22
REMARK    8  A    between atoms: C_24  and  C_26
REMARK                            x       y       z     vdW  Elec       q    Type
REMARK                         _______ _______ _______ _____ _____    ______ ____
ROOT
ATOM     11  C   UNL     1      19.584   6.479  21.151  0.00  0.00    -0.017 A 
ATOM     16  C   UNL     1      19.125   5.744  20.058  0.00  0.00    +0.008 A 
ATOM     17  C   UNL     1      18.776   7.462  21.721  0.00  0.00    +0.008 A 
ATOM     18  C   UNL     1      17.856   5.994  19.534  0.00  0.00    +0.023 A 
ATOM     19  C   UNL     1      17.508   7.712  21.197  0.00  0.00    +0.023 A 
ATOM     20  C   UNL     1      17.048   6.977  20.103  0.00  0.00    +0.034 A 
ENDROOT
BRANCH  11  10
ATOM      1  O   UNL     1      21.087   4.791  21.854  0.00  0.00    -0.361 OA
ATOM      3  O   UNL     1      24.593   4.493  22.412  0.00  0.00    -0.273 OA
ATOM      5  N   UNL     1      23.425   6.190  21.324  0.00  0.00    -0.295 N 
ATOM      9  C   UNL     1      22.121   6.706  20.838  0.00  0.00    +0.134 C 
ATOM     10  C   UNL     1      20.961   6.207  21.721  0.00  0.00    +0.171 C 
ATOM     13  C   UNL     1      22.226   4.459  22.612  0.00  0.00    +0.256 C 
ATOM     14  C   UNL     1      23.530   5.030  22.092  0.00  0.00    +0.242 C 
ATOM     15  C   UNL     1      24.643   6.780  20.778  0.00  0.00    +0.132 C 
BRANCH   9  12
ATOM     12  C   UNL     1      22.098   8.237  20.730  0.00  0.00    +0.181 C 
BRANCH  12   2
ATOM      2  O   UNL     1      22.376   8.590  19.389  0.00  0.00    -0.393 OA
ATOM     27  H   UNL     1      23.268   8.977  19.373  0.00  0.00    +0.209 HD
ENDBRANCH  12   2
ENDBRANCH   9  12
ENDBRANCH  11  10
BRANCH  20   6
ATOM      4  O   UNL     1      15.566   9.561  19.757  0.00  0.00    -0.268 OA
ATOM      6  N   UNL     1      15.778   7.226  19.579  0.00  0.00    -0.280 N 
ATOM     21  C   UNL     1      15.130   8.460  19.439  0.00  0.00    +0.266 C 
ATOM     28  H   UNL     1      15.274   6.398  19.268  0.00  0.00    +0.155 HD
BRANCH  21  22
ATOM      7  N   UNL     1      12.675   7.837  19.370  0.00  0.00    -0.262 N 
ATOM      8  N   UNL     1      11.576   7.918  18.598  0.00  0.00    -0.176 NA
ATOM     22  C   UNL     1      13.782   8.404  18.813  0.00  0.00    +0.124 A 
ATOM     23  C   UNL     1      13.383   8.889  17.592  0.00  0.00    +0.057 A 
ATOM     24  C   UNL     1      12.016   8.563  17.514  0.00  0.00    +0.061 A 
ATOM     25  C   UNL     1      12.586   7.188  20.658  0.00  0.00    +0.173 C 
ATOM     26  C   UNL     1      11.086   8.851  16.409  0.00  0.00    +0.067 C 
ENDBRANCH  21  22
ENDBRANCH  20   6
TORSDOF 5
ENDMDL
MODEL 6
REMARK VINA RESULT:      -6.3     28.455     32.342
REMARK  Name = 71693653
REMARK  8 active torsions:
REMARK  status: ('A' for Active; 'I' for Inactive)
REMARK    1  A    between atoms: O_2  and  C_12
REMARK    2  A    between atoms: N_5  and  C_15
REMARK    3  A    between atoms: N_6  and  C_20
REMARK    4  A    between atoms: N_7  and  C_25
REMARK    5  A    between atoms: C_9  and  C_12
REMARK    6  A    between atoms: C_10  and  C_11
REMARK    7  A    between atoms: C_21  and  C_22
REMARK    8  A    between atoms: C_24  and  C_26
REMARK                            x       y       z     vdW  Elec       q    Type
REMARK                         _______ _______ _______ _____ _____    ______ ____
ROOT
ATOM     11  C   UNL     1     -13.012   7.655  20.937  0.00  0.00    -0.017 A 
ATOM     16  C   UNL     1     -12.612   6.329  21.111  0.00  0.00    +0.008 A 
ATOM     17  C   UNL     1     -14.008   8.196  21.750  0.00  0.00    +0.008 A 
ATOM     18  C   UNL     1     -13.209   5.546  22.099  0.00  0.00    +0.023 A 
ATOM     19  C   UNL     1     -14.604   7.413  22.738  0.00  0.00    +0.023 A 
ATOM     20  C   UNL     1     -14.204   6.087  22.912  0.00  0.00    +0.034 A 
ENDROOT
BRANCH  11  10
ATOM      1  O   UNL     1     -10.952   8.429  20.066  0.00  0.00    -0.361 OA
ATOM      3  O   UNL     1      -9.776   9.813  17.001  0.00  0.00    -0.273 OA
ATOM      5  N   UNL     1     -11.806   8.759  17.446  0.00  0.00    -0.295 N 
ATOM      9  C   UNL     1     -12.664   8.047  18.425  0.00  0.00    +0.134 C 
ATOM     10  C   UNL     1     -12.364   8.506  19.865  0.00  0.00    +0.171 C 
ATOM     13  C   UNL     1     -10.283   9.389  19.283  0.00  0.00    +0.256 C 
ATOM     14  C   UNL     1     -10.580   9.325  17.798  0.00  0.00    +0.242 C 
ATOM     15  C   UNL     1     -12.145   8.651  16.030  0.00  0.00    +0.132 C 
BRANCH   9  12
ATOM     12  C   UNL     1     -14.160   8.194  18.111  0.00  0.00    +0.181 C 
BRANCH  12   2
ATOM      2  O   UNL     1     -14.549   9.516  18.424  0.00  0.00    -0.393 OA
ATOM     27  H   UNL     1     -14.957   9.495  19.305  0.00  0.00    +0.209 HD
ENDBRANCH  12   2
ENDBRANCH   9  12
ENDBRANCH  11  10
BRANCH  20   6
ATOM      4  O   UNL     1     -16.897   4.770  22.981  0.00  0.00    -0.268 OA
ATOM      6  N   UNL     1     -14.800   5.303  23.901  0.00  0.00    -0.280 N 
ATOM     21  C   UNL     1     -16.069   4.708  23.882  0.00  0.00    +0.266 C 
ATOM     28  H   UNL     1     -14.231   5.158  24.733  0.00  0.00    +0.155 HD
BRANCH  21  22
ATOM      7  N   UNL     1     -17.101   4.352  26.169  0.00  0.00    -0.262 N 
ATOM      8  N   UNL     1     -17.281   3.423  27.124  0.00  0.00    -0.176 NA
ATOM     22  C   UNL     1     -16.411   3.901  25.083  0.00  0.00    +0.124 A 
ATOM     23  C   UNL     1     -16.118   2.585  25.345  0.00  0.00    +0.057 A 
ATOM     24  C   UNL     1     -16.679   2.345  26.613  0.00  0.00    +0.061 A 
ATOM     25  C   UNL     1     -17.630   5.682  26.370  0.00  0.00    +0.173 C 
ATOM     26  C   UNL     1     -16.658   1.088  27.380  0.00  0.00    +0.067 C 
ENDBRANCH  21  22
ENDBRANCH  20   6
TORSDOF 5
ENDMDL
MODEL 7
REMARK VINA RESULT:      -6.2     29.629     32.327
REMARK  Name = 71693653
REMARK  8 active torsions:
REMARK  status: ('A' for Active; 'I' for Inactive)
REMARK    1  A    between atoms: O_2  and  C_12
REMARK    2  A    between atoms: N_5  and  C_15
REMARK    3  A    between atoms: N_6  and  C_20
REMARK    4  A    between atoms: N_7  and  C_25
REMARK    5  A    between atoms: C_9  and  C_12
REMARK    6  A    between atoms: C_10  and  C_11
REMARK    7  A    between atoms: C_21  and  C_22
REMARK    8  A    between atoms: C_24  and  C_26
REMARK                            x       y       z     vdW  Elec       q    Type
REMARK                         _______ _______ _______ _____ _____    ______ ____
ROOT
ATOM     11  C   UNL     1     -11.595  -4.795   9.432  0.00  0.00    -0.017 A 
ATOM     16  C   UNL     1     -11.722  -6.176   9.584  0.00  0.00    +0.008 A 
ATOM     17  C   UNL     1     -10.407  -4.254   8.942  0.00  0.00    +0.008 A 
ATOM     18  C   UNL     1     -10.660  -7.016   9.245  0.00  0.00    +0.023 A 
ATOM     19  C   UNL     1      -9.345  -5.092   8.604  0.00  0.00    +0.023 A 
ATOM     20  C   UNL     1      -9.472  -6.474   8.756  0.00  0.00    +0.034 A 
ENDROOT
BRANCH  11  10
ATOM      1  O   UNL     1     -13.847  -4.241   8.958  0.00  0.00    -0.361 OA
ATOM      3  O   UNL     1     -16.509  -2.535  10.599  0.00  0.00    -0.273 OA
ATOM      5  N   UNL     1     -14.488  -3.284  11.484  0.00  0.00    -0.295 N 
ATOM      9  C   UNL     1     -13.211  -4.007  11.263  0.00  0.00    +0.134 C 
ATOM     10  C   UNL     1     -12.748  -3.884   9.799  0.00  0.00    +0.171 C 
ATOM     13  C   UNL     1     -14.875  -3.283   9.046  0.00  0.00    +0.256 C 
ATOM     14  C   UNL     1     -15.384  -3.016  10.448  0.00  0.00    +0.242 C 
ATOM     15  C   UNL     1     -14.924  -3.065  12.860  0.00  0.00    +0.132 C 
BRANCH   9  12
ATOM     12  C   UNL     1     -12.102  -3.547  12.221  0.00  0.00    +0.181 C 
BRANCH  12   2
ATOM      2  O   UNL     1     -11.897  -4.565  13.180  0.00  0.00    -0.393 OA
ATOM     27  H   UNL     1     -10.982  -4.482  13.495  0.00  0.00    +0.209 HD
ENDBRANCH  12   2
ENDBRANCH   9  12
ENDBRANCH  11  10
BRANCH  20   6
ATOM      4  O   UNL     1      -8.266  -8.774  10.254  0.00  0.00    -0.268 OA
ATOM      6  N   UNL     1      -8.410  -7.314   8.417  0.00  0.00    -0.280 N 
ATOM     21  C   UNL     1      -7.884  -8.380   9.157  0.00  0.00    +0.266 C 
ATOM     28  H   UNL     1      -7.974  -7.111   7.520  0.00  0.00    +0.155 HD
BRANCH  21  22
ATOM      7  N   UNL     1      -5.464  -9.098   8.931  0.00  0.00    -0.262 N 
ATOM      8  N   UNL     1      -4.640  -9.842   8.173  0.00  0.00    -0.176 NA
ATOM     22  C   UNL     1      -6.761  -9.111   8.511  0.00  0.00    +0.124 A 
ATOM     23  C   UNL     1      -6.789  -9.919   7.402  0.00  0.00    +0.057 A 
ATOM     24  C   UNL     1      -5.456 -10.342   7.242  0.00  0.00    +0.061 A 
ATOM     25  C   UNL     1      -4.926  -8.385  10.067  0.00  0.00    +0.173 C 
ATOM     26  C   UNL     1      -4.916 -11.231   6.199  0.00  0.00    +0.067 C 
ENDBRANCH  21  22
ENDBRANCH  20   6
TORSDOF 5
ENDMDL
MODEL 8
REMARK VINA RESULT:      -6.1      2.030      3.077
REMARK  Name = 71693653
REMARK  8 active torsions:
REMARK  status: ('A' for Active; 'I' for Inactive)
REMARK    1  A    between atoms: O_2  and  C_12
REMARK    2  A    between atoms: N_5  and  C_15
REMARK    3  A    between atoms: N_6  and  C_20
REMARK    4  A    between atoms: N_7  and  C_25
REMARK    5  A    between atoms: C_9  and  C_12
REMARK    6  A    between atoms: C_10  and  C_11
REMARK    7  A    between atoms: C_21  and  C_22
REMARK    8  A    between atoms: C_24  and  C_26
REMARK                            x       y       z     vdW  Elec       q    Type
REMARK                         _______ _______ _______ _____ _____    ______ ____
ROOT
ATOM     11  C   UNL     1      16.273   8.587  21.371  0.00  0.00    -0.017 A 
ATOM     16  C   UNL     1      17.535   9.176  21.455  0.00  0.00    +0.008 A 
ATOM     17  C   UNL     1      16.156   7.213  21.165  0.00  0.00    +0.008 A 
ATOM     18  C   UNL     1      18.681   8.389  21.332  0.00  0.00    +0.023 A 
ATOM     19  C   UNL     1      17.301   6.427  21.041  0.00  0.00    +0.023 A 
ATOM     20  C   UNL     1      18.564   7.015  21.125  0.00  0.00    +0.034 A 
ENDROOT
BRANCH  11  10
ATOM      1  O   UNL     1      15.158  10.178  22.723  0.00  0.00    -0.361 OA
ATOM      3  O   UNL     1      12.562  12.584  22.310  0.00  0.00    -0.273 OA
ATOM      5  N   UNL     1      13.744  11.414  20.678  0.00  0.00    -0.295 N 
ATOM      9  C   UNL     1      14.827  10.450  20.359  0.00  0.00    +0.134 C 
ATOM     10  C   UNL     1      15.029   9.441  21.506  0.00  0.00    +0.171 C 
ATOM     13  C   UNL     1      13.941  10.801  23.061  0.00  0.00    +0.256 C 
ATOM     14  C   UNL     1      13.363  11.703  21.989  0.00  0.00    +0.242 C 
ATOM     15  C   UNL     1      13.236  12.256  19.600  0.00  0.00    +0.132 C 
BRANCH   9  12
ATOM     12  C   UNL     1      14.588   9.717  19.031  0.00  0.00    +0.181 C 
BRANCH  12   2
ATOM      2  O   UNL     1      13.525   8.804  19.215  0.00  0.00    -0.393 OA
ATOM     27  H   UNL     1      13.116   9.009  20.072  0.00  0.00    +0.209 HD
ENDBRANCH  12   2
ENDBRANCH   9  12
ENDBRANCH  11  10
BRANCH  20   6
ATOM      4  O   UNL     1      20.504   6.079  23.210  0.00  0.00    -0.268 OA
ATOM      6  N   UNL     1      19.710   6.228  21.002  0.00  0.00    -0.280 N 
ATOM     21  C   UNL     1      20.586   5.818  22.015  0.00  0.00    +0.266 C 
ATOM     28  H   UNL     1      19.923   5.928  20.053  0.00  0.00    +0.155 HD
BRANCH  21  22
ATOM      7  N   UNL     1      22.854   5.389  20.967  0.00  0.00    -0.262 N 
ATOM      8  N   UNL     1      23.718   4.405  20.664  0.00  0.00    -0.176 NA
ATOM     22  C   UNL     1      21.712   4.953  21.571  0.00  0.00    +0.124 A 
ATOM     23  C   UNL     1      21.837   3.589  21.670  0.00  0.00    +0.057 A 
ATOM     24  C   UNL     1      23.091   3.308  21.096  0.00  0.00    +0.061 A 
ATOM     25  C   UNL     1      23.196   6.755  20.642  0.00  0.00    +0.173 C 
ATOM     26  C   UNL     1      23.731   1.991  20.940  0.00  0.00    +0.067 C 
ENDBRANCH  21  22
ENDBRANCH  20   6
TORSDOF 5
ENDMDL
MODEL 9
REMARK VINA RESULT:      -6.0     17.934     21.206
REMARK  Name = 71693653
REMARK  8 active torsions:
REMARK  status: ('A' for Active; 'I' for Inactive)
REMARK    1  A    between atoms: O_2  and  C_12
REMARK    2  A    between atoms: N_5  and  C_15
REMARK    3  A    between atoms: N_6  and  C_20
REMARK    4  A    between atoms: N_7  and  C_25
REMARK    5  A    between atoms: C_9  and  C_12
REMARK    6  A    between atoms: C_10  and  C_11
REMARK    7  A    between atoms: C_21  and  C_22
REMARK    8  A    between atoms: C_24  and  C_26
REMARK                            x       y       z     vdW  Elec       q    Type
REMARK                         _______ _______ _______ _____ _____    ______ ____
ROOT
ATOM     11  C   UNL     1      10.274   5.700   3.284  0.00  0.00    -0.017 A 
ATOM     16  C   UNL     1       9.844   6.634   2.341  0.00  0.00    +0.008 A 
ATOM     17  C   UNL     1      10.636   4.415   2.881  0.00  0.00    +0.008 A 
ATOM     18  C   UNL     1       9.776   6.281   0.992  0.00  0.00    +0.023 A 
ATOM     19  C   UNL     1      10.567   4.063   1.533  0.00  0.00    +0.023 A 
ATOM     20  C   UNL     1      10.137   4.996   0.589  0.00  0.00    +0.034 A 
ENDROOT
BRANCH  11  10
ATOM      1  O   UNL     1       9.707   5.043   5.486  0.00  0.00    -0.361 OA
ATOM      3  O   UNL     1      10.761   5.837   8.795  0.00  0.00    -0.273 OA
ATOM      5  N   UNL     1      11.788   6.357   6.769  0.00  0.00    -0.295 N 
ATOM      9  C   UNL     1      11.784   6.233   5.290  0.00  0.00    +0.134 C 
ATOM     10  C   UNL     1      10.349   6.083   4.748  0.00  0.00    +0.171 C 
ATOM     13  C   UNL     1       9.500   5.432   6.823  0.00  0.00    +0.256 C 
ATOM     14  C   UNL     1      10.747   5.872   7.563  0.00  0.00    +0.242 C 
ATOM     15  C   UNL     1      13.024   6.781   7.419  0.00  0.00    +0.132 C 
BRANCH   9  12
ATOM     12  C   UNL     1      12.503   7.401   4.601  0.00  0.00    +0.181 C 
BRANCH  12   2
ATOM      2  O   UNL     1      13.609   6.882   3.890  0.00  0.00    -0.393 OA
ATOM     27  H   UNL     1      13.480   7.106   2.954  0.00  0.00    +0.209 HD
ENDBRANCH  12   2
ENDBRANCH   9  12
ENDBRANCH  11  10
BRANCH  20   6
ATOM      4  O   UNL     1      11.922   5.745  -1.702  0.00  0.00    -0.268 OA
ATOM      6  N   UNL     1      10.070   4.644  -0.760  0.00  0.00    -0.280 N 
ATOM     21  C   UNL     1      10.935   5.024  -1.795  0.00  0.00    +0.266 C 
ATOM     28  H   UNL     1       9.288   4.040  -1.006  0.00  0.00    +0.155 HD
BRANCH  21  22
ATOM      7  N   UNL     1      11.184   3.346  -3.677  0.00  0.00    -0.262 N 
ATOM      8  N   UNL     1      10.720   3.042  -4.902  0.00  0.00    -0.176 NA
ATOM     22  C   UNL     1      10.614   4.458  -3.132  0.00  0.00    +0.124 A 
ATOM     23  C   UNL     1       9.716   4.915  -4.065  0.00  0.00    +0.057 A 
ATOM     24  C   UNL     1       9.823   4.004  -5.132  0.00  0.00    +0.061 A 
ATOM     25  C   UNL     1      12.195   2.506  -3.077  0.00  0.00    +0.173 C 
ATOM     26  C   UNL     1       9.080   4.020  -6.403  0.00  0.00    +0.067 C 
ENDBRANCH  21  22
ENDBRANCH  20   6
TORSDOF 5
ENDMDL
MODEL 10
REMARK VINA RESULT:      -6.0     30.927     34.107
REMARK  Name = 71693653
REMARK  8 active torsions:
REMARK  status: ('A' for Active; 'I' for Inactive)
REMARK    1  A    between atoms: O_2  and  C_12
REMARK    2  A    between atoms: N_5  and  C_15
REMARK    3  A    between atoms: N_6  and  C_20
REMARK    4  A    between atoms: N_7  and  C_25
REMARK    5  A    between atoms: C_9  and  C_12
REMARK    6  A    between atoms: C_10  and  C_11
REMARK    7  A    between atoms: C_21  and  C_22
REMARK    8  A    between atoms: C_24  and  C_26
REMARK                            x       y       z     vdW  Elec       q    Type
REMARK                         _______ _______ _______ _____ _____    ______ ____
ROOT
ATOM     11  C   UNL     1     -11.311  -7.951  16.865  0.00  0.00    -0.017 A 
ATOM     16  C   UNL     1     -10.924  -6.646  16.558  0.00  0.00    +0.008 A 
ATOM     17  C   UNL     1     -12.437  -8.506  16.258  0.00  0.00    +0.008 A 
ATOM     18  C   UNL     1     -11.665  -5.896  15.644  0.00  0.00    +0.023 A 
ATOM     19  C   UNL     1     -13.178  -7.756  15.345  0.00  0.00    +0.023 A 
ATOM     20  C   UNL     1     -12.791  -6.451  15.037  0.00  0.00    +0.034 A 
ENDROOT
BRANCH  11  10
ATOM      1  O   UNL     1     -11.437  -9.538  18.616  0.00  0.00    -0.361 OA
ATOM      3  O   UNL     1      -9.233 -11.843  20.205  0.00  0.00    -0.273 OA
ATOM      5  N   UNL     1      -8.935 -10.671  18.213  0.00  0.00    -0.295 N 
ATOM      9  C   UNL     1      -9.500  -9.737  17.208  0.00  0.00    +0.134 C 
ATOM     10  C   UNL     1     -10.506  -8.765  17.856  0.00  0.00    +0.171 C 
ATOM     13  C   UNL     1     -10.806 -10.128  19.728  0.00  0.00    +0.256 C 
ATOM     14  C   UNL     1      -9.598 -10.981  19.402  0.00  0.00    +0.242 C 
ATOM     15  C   UNL     1      -7.773 -11.468  17.832  0.00  0.00    +0.132 C 
BRANCH   9  12
ATOM     12  C   UNL     1      -8.413  -8.962  16.450  0.00  0.00    +0.181 C 
BRANCH  12   2
ATOM      2  O   UNL     1      -8.597  -9.183  15.066  0.00  0.00    -0.393 OA
ATOM     27  H   UNL     1      -8.757  -8.317  14.656  0.00  0.00    +0.209 HD
ENDBRANCH  12   2
ENDBRANCH   9  12
ENDBRANCH  11  10
BRANCH  20   6
ATOM      4  O   UNL     1     -12.402  -6.053  12.091  0.00  0.00    -0.268 OA
ATOM      6  N   UNL     1     -13.532  -5.701  14.123  0.00  0.00    -0.280 N 
ATOM     21  C   UNL     1     -13.305  -5.548  12.749  0.00  0.00    +0.266 C 
ATOM     28  H   UNL     1     -14.329  -5.207  14.520  0.00  0.00    +0.155 HD
BRANCH  21  22
ATOM      7  N   UNL     1     -15.452  -5.144  11.464  0.00  0.00    -0.262 N 
ATOM      8  N   UNL     1     -16.173  -4.176  10.873  0.00  0.00    -0.176 NA
ATOM     22  C   UNL     1     -14.294  -4.701  12.030  0.00  0.00    +0.124 A 
ATOM     23  C   UNL     1     -14.254  -3.349  11.793  0.00  0.00    +0.057 A 
ATOM     24  C   UNL     1     -15.436  -3.082  11.078  0.00  0.00    +0.061 A 
ATOM     25  C   UNL     1     -15.945  -6.503  11.447  0.00  0.00    +0.173 C 
ATOM     26  C   UNL     1     -15.901  -1.781  10.567  0.00  0.00    +0.067 C 
ENDBRANCH  21  22
ENDBRANCH  20   6
TORSDOF 5
ENDMDL
