REMARK  Name = 7155415
REMARK  2 active torsions:
REMARK  status: ('A' for Active; 'I' for Inactive)
REMARK    1  A    between atoms: C_13  and  C_18
REMARK    2  A    between atoms: C_15  and  C_19
REMARK                            x       y       z     vdW  Elec       q    Type
REMARK                         _______ _______ _______ _____ _____    ______ ____
ROOT
ATOM      2  O   UNL     1      -3.312   0.049  -2.793  0.00  0.00    -0.268 OA
ATOM      3  O   UNL     1      -1.353   3.563   0.299  0.00  0.00    -0.270 OA
ATOM      4  N   UNL     1      -1.220   1.531   1.447  0.00  0.00    -0.297 N 
ATOM      5  N   UNL     1      -2.301  -0.469  -0.744  0.00  0.00    -0.311 N 
ATOM      6  C   UNL     1      -3.346   0.250   1.486  0.00  0.00    +0.027 C 
ATOM      7  C   UNL     1      -1.201  -0.955   1.462  0.00  0.00    +0.054 C 
ATOM      8  C   UNL     1      -2.611  -0.956   2.052  0.00  0.00    +0.018 C 
ATOM      9  C   UNL     1      -2.620   1.552   1.865  0.00  0.00    +0.113 C 
ATOM     10  C   UNL     1      -3.463   0.080  -0.029  0.00  0.00    +0.130 C 
ATOM     11  C   UNL     1      -0.470   0.341   1.875  0.00  0.00    +0.117 C 
ATOM     12  C   UNL     1      -1.228  -1.077  -0.064  0.00  0.00    +0.034 A 
ATOM     13  C   UNL     1      -0.251  -1.709  -0.765  0.00  0.00    +0.002 A 
ATOM     14  C   UNL     1      -2.392  -0.454  -2.147  0.00  0.00    +0.252 A 
ATOM     15  C   UNL     1      -0.722   2.569   0.656  0.00  0.00    +0.247 C 
ATOM     16  C   UNL     1      -0.309  -1.710  -2.215  0.00  0.00    +0.015 A 
ATOM     17  C   UNL     1      -1.294  -1.116  -2.888  0.00  0.00    +0.071 A 
ENDROOT
BRANCH  15  19
ATOM      1  F   UNL     1       4.560   2.228  -1.149  0.00  0.00    -0.205 F 
ATOM     19  C   UNL     1       0.664   2.479   0.183  0.00  0.00    +0.037 A 
ATOM     22  C   UNL     1       0.942   1.860  -1.033  0.00  0.00    +0.016 A 
ATOM     23  C   UNL     1       1.695   3.013   0.952  0.00  0.00    +0.016 A 
ATOM     27  C   UNL     1       2.259   1.775  -1.484  0.00  0.00    +0.039 A 
ATOM     28  C   UNL     1       3.012   2.928   0.501  0.00  0.00    +0.039 A 
ATOM     29  C   UNL     1       3.295   2.309  -0.717  0.00  0.00    +0.123 A 
ENDBRANCH  15  19
BRANCH  13  18
ATOM     18  C   UNL     1       0.881  -2.382  -0.092  0.00  0.00    -0.016 A 
ATOM     20  C   UNL     1       2.038  -1.665   0.197  0.00  0.00    +0.008 A 
ATOM     21  C   UNL     1       0.782  -3.727   0.249  0.00  0.00    +0.008 A 
ATOM     24  C   UNL     1       3.106  -2.299   0.833  0.00  0.00    +0.001 A 
ATOM     25  C   UNL     1       1.849  -4.361   0.885  0.00  0.00    +0.001 A 
ATOM     26  C   UNL     1       3.011  -3.647   1.177  0.00  0.00    +0.000 A 
ENDBRANCH  13  18
TORSDOF 2
