MODEL 1
REMARK VINA RESULT:      -6.6      0.000      0.000
REMARK  Name = 51136665
REMARK  8 active torsions:
REMARK  status: ('A' for Active; 'I' for Inactive)
REMARK    1  A    between atoms: O_3  and  C_18
REMARK    2  A    between atoms: O_5  and  C_26
REMARK    3  A    between atoms: O_5  and  C_30
REMARK    4  A    between atoms: C_8  and  C_12
REMARK    5  A    between atoms: C_9  and  C_14
REMARK    6  A    between atoms: C_12  and  C_15
REMARK    7  A    between atoms: C_14  and  C_18
REMARK    8  A    between atoms: C_16  and  C_22
REMARK                            x       y       z     vdW  Elec       q    Type
REMARK                         _______ _______ _______ _____ _____    ______ ____
ROOT
ATOM      2  O   UNL     1      10.516   8.364  17.321  0.00  0.00    -0.269 OA
ATOM      6  N   UNL     1      12.810   8.825  17.340  0.00  0.00    -0.297 N 
ATOM      8  C   UNL     1      14.692  10.347  17.904  0.00  0.00    +0.016 C 
ATOM      9  C   UNL     1      14.783  10.726  16.404  0.00  0.00    +0.006 C 
ATOM     10  C   UNL     1      13.432  10.547  15.692  0.00  0.00    +0.023 C 
ATOM     11  C   UNL     1      14.090   8.937  18.053  0.00  0.00    +0.112 C 
ATOM     13  C   UNL     1      12.870   9.145  15.916  0.00  0.00    +0.108 C 
ATOM     16  C   UNL     1      11.591   8.453  17.913  0.00  0.00    +0.253 C 
ENDROOT
BRANCH  16  22
ATOM      1  S   UNL     1      12.450   6.785  19.914  0.00  0.00    -0.092 S 
ATOM     22  C   UNL     1      11.569   8.139  19.345  0.00  0.00    +0.074 A 
ATOM     27  C   UNL     1      10.918   8.798  20.365  0.00  0.00    +0.021 A 
ATOM     28  C   UNL     1      11.144   8.183  21.630  0.00  0.00    +0.008 A 
ATOM     29  C   UNL     1      11.960   7.077  21.529  0.00  0.00    +0.046 A 
ENDBRANCH  16  22
BRANCH   8  12
ATOM     12  C   UNL     1      13.906  11.354  18.755  0.00  0.00    +0.061 C 
BRANCH  12  15
ATOM      7  N   UNL     1      15.452  10.787  20.503  0.00  0.00    -0.287 NA
ATOM     15  C   UNL     1      14.254  11.174  20.213  0.00  0.00    +0.044 C 
ATOM     17  C   UNL     1      13.209  11.440  21.235  0.00  0.00    -0.001 A 
ATOM     19  C   UNL     1      13.425  10.906  22.511  0.00  0.00    -0.033 A 
ATOM     20  C   UNL     1      14.668  10.102  22.755  0.00  0.00    +0.059 C 
ATOM     21  C   UNL     1      15.808  10.672  21.922  0.00  0.00    +0.146 C 
ATOM     23  C   UNL     1      12.052  12.172  20.959  0.00  0.00    +0.013 A 
ATOM     24  C   UNL     1      12.461  11.087  23.507  0.00  0.00    +0.050 A 
ATOM     25  C   UNL     1      11.103  12.360  21.964  0.00  0.00    +0.046 A 
ATOM     26  C   UNL     1      11.304  11.817  23.233  0.00  0.00    +0.120 A 
BRANCH  26   5
ATOM      5  O   UNL     1      10.370  11.999  24.206  0.00  0.00    -0.495 OA
ATOM     30  C   UNL     1      10.543  13.120  25.071  0.00  0.00    +0.277 C 
ENDBRANCH  26   5
ENDBRANCH  12  15
ENDBRANCH   8  12
BRANCH   9  14
ATOM     14  C   UNL     1      15.332  12.134  16.173  0.00  0.00    +0.124 C 
BRANCH  14  18
ATOM      4  O   UNL     1      17.625  12.800  15.683  0.00  0.00    -0.251 OA
ATOM     18  C   UNL     1      16.649  12.103  15.448  0.00  0.00    +0.305 C 
BRANCH  18   3
ATOM      3  O   UNL     1      16.609  11.165  14.467  0.00  0.00    -0.481 OA
ATOM     31  H   UNL     1      15.693  10.859  14.293  0.00  0.00    +0.295 HD
ENDBRANCH  18   3
ENDBRANCH  14  18
ENDBRANCH   9  14
TORSDOF 7
ENDMDL
MODEL 2
REMARK VINA RESULT:      -6.3      3.770      7.341
REMARK  Name = 51136665
REMARK  8 active torsions:
REMARK  status: ('A' for Active; 'I' for Inactive)
REMARK    1  A    between atoms: O_3  and  C_18
REMARK    2  A    between atoms: O_5  and  C_26
REMARK    3  A    between atoms: O_5  and  C_30
REMARK    4  A    between atoms: C_8  and  C_12
REMARK    5  A    between atoms: C_9  and  C_14
REMARK    6  A    between atoms: C_12  and  C_15
REMARK    7  A    between atoms: C_14  and  C_18
REMARK    8  A    between atoms: C_16  and  C_22
REMARK                            x       y       z     vdW  Elec       q    Type
REMARK                         _______ _______ _______ _____ _____    ______ ____
ROOT
ATOM      2  O   UNL     1      13.660  14.024  22.921  0.00  0.00    -0.269 OA
ATOM      6  N   UNL     1      13.405  11.698  23.006  0.00  0.00    -0.297 N 
ATOM      8  C   UNL     1      13.462   9.488  21.873  0.00  0.00    +0.016 C 
ATOM      9  C   UNL     1      11.913   9.504  21.848  0.00  0.00    +0.006 C 
ATOM     10  C   UNL     1      11.361  10.939  21.858  0.00  0.00    +0.023 C 
ATOM     11  C   UNL     1      13.977  10.346  23.043  0.00  0.00    +0.112 C 
ATOM     13  C   UNL     1      11.944  11.748  23.014  0.00  0.00    +0.108 C 
ATOM     16  C   UNL     1      14.135  12.890  22.958  0.00  0.00    +0.253 C 
ENDROOT
BRANCH  16  22
ATOM      1  S   UNL     1      16.446  13.117  21.497  0.00  0.00    -0.092 S 
ATOM     22  C   UNL     1      15.599  12.800  22.951  0.00  0.00    +0.074 A 
ATOM     27  C   UNL     1      16.450  12.486  23.988  0.00  0.00    +0.021 A 
ATOM     28  C   UNL     1      17.816  12.505  23.582  0.00  0.00    +0.008 A 
ATOM     29  C   UNL     1      17.957  12.833  22.251  0.00  0.00    +0.046 A 
ENDBRANCH  16  22
BRANCH   8  12
ATOM     12  C   UNL     1      14.111   9.938  20.557  0.00  0.00    +0.061 C 
BRANCH  12  15
ATOM      7  N   UNL     1      14.342   8.096  19.032  0.00  0.00    -0.287 NA
ATOM     15  C   UNL     1      14.903   8.799  19.960  0.00  0.00    +0.044 C 
ATOM     17  C   UNL     1      16.274   8.539  20.469  0.00  0.00    -0.001 A 
ATOM     19  C   UNL     1      16.821   7.280  20.190  0.00  0.00    -0.033 A 
ATOM     20  C   UNL     1      15.996   6.289  19.423  0.00  0.00    +0.059 C 
ATOM     21  C   UNL     1      15.134   7.030  18.410  0.00  0.00    +0.146 C 
ATOM     23  C   UNL     1      16.999   9.480  21.203  0.00  0.00    +0.013 A 
ATOM     24  C   UNL     1      18.092   6.957  20.675  0.00  0.00    +0.050 A 
ATOM     25  C   UNL     1      18.272   9.154  21.670  0.00  0.00    +0.046 A 
ATOM     26  C   UNL     1      18.817   7.896  21.410  0.00  0.00    +0.120 A 
BRANCH  26   5
ATOM      5  O   UNL     1      20.057   7.583  21.875  0.00  0.00    -0.495 OA
ATOM     30  C   UNL     1      20.129   6.667  22.967  0.00  0.00    +0.277 C 
ENDBRANCH  26   5
ENDBRANCH  12  15
ENDBRANCH   8  12
BRANCH   9  14
ATOM     14  C   UNL     1      11.322   8.707  20.685  0.00  0.00    +0.124 C 
BRANCH  14  18
ATOM      4  O   UNL     1      11.548   6.283  20.817  0.00  0.00    -0.251 OA
ATOM     18  C   UNL     1      10.951   7.311  21.101  0.00  0.00    +0.305 C 
BRANCH  18   3
ATOM      3  O   UNL     1       9.826   7.345  21.861  0.00  0.00    -0.481 OA
ATOM     31  H   UNL     1       9.600   6.459  22.219  0.00  0.00    +0.295 HD
ENDBRANCH  18   3
ENDBRANCH  14  18
ENDBRANCH   9  14
TORSDOF 7
ENDMDL
MODEL 3
REMARK VINA RESULT:      -6.3     26.356     29.033
REMARK  Name = 51136665
REMARK  8 active torsions:
REMARK  status: ('A' for Active; 'I' for Inactive)
REMARK    1  A    between atoms: O_3  and  C_18
REMARK    2  A    between atoms: O_5  and  C_26
REMARK    3  A    between atoms: O_5  and  C_30
REMARK    4  A    between atoms: C_8  and  C_12
REMARK    5  A    between atoms: C_9  and  C_14
REMARK    6  A    between atoms: C_12  and  C_15
REMARK    7  A    between atoms: C_14  and  C_18
REMARK    8  A    between atoms: C_16  and  C_22
REMARK                            x       y       z     vdW  Elec       q    Type
REMARK                         _______ _______ _______ _____ _____    ______ ____
ROOT
ATOM      2  O   UNL     1      -8.101 -11.441  18.550  0.00  0.00    -0.269 OA
ATOM      6  N   UNL     1      -6.370 -10.347  17.416  0.00  0.00    -0.297 N 
ATOM      8  C   UNL     1      -4.690 -10.304  15.585  0.00  0.00    +0.016 C 
ATOM      9  C   UNL     1      -3.596 -10.622  16.636  0.00  0.00    +0.006 C 
ATOM     10  C   UNL     1      -4.173 -11.376  17.845  0.00  0.00    +0.023 C 
ATOM     11  C   UNL     1      -5.873  -9.587  16.262  0.00  0.00    +0.112 C 
ATOM     13  C   UNL     1      -5.368 -10.635  18.440  0.00  0.00    +0.108 C 
ATOM     16  C   UNL     1      -7.682 -10.799  17.589  0.00  0.00    +0.253 C 
ENDROOT
BRANCH  16  22
ATOM      1  S   UNL     1      -9.586  -9.056  16.660  0.00  0.00    -0.092 S 
ATOM     22  C   UNL     1      -8.660 -10.492  16.540  0.00  0.00    +0.074 A 
ATOM     27  C   UNL     1      -8.969 -11.213  15.408  0.00  0.00    +0.021 A 
ATOM     28  C   UNL     1      -9.981 -10.580  14.630  0.00  0.00    +0.008 A 
ATOM     29  C   UNL     1     -10.405  -9.398  15.195  0.00  0.00    +0.046 A 
ENDBRANCH  16  22
BRANCH   8  12
ATOM     12  C   UNL     1      -5.186 -11.533  14.810  0.00  0.00    +0.061 C 
BRANCH  12  15
ATOM      7  N   UNL     1      -3.616 -12.460  13.247  0.00  0.00    -0.287 NA
ATOM     15  C   UNL     1      -4.537 -11.575  13.448  0.00  0.00    +0.044 C 
ATOM     17  C   UNL     1      -4.978 -10.603  12.415  0.00  0.00    -0.001 A 
ATOM     19  C   UNL     1      -4.119 -10.407  11.327  0.00  0.00    -0.033 A 
ATOM     20  C   UNL     1      -2.826 -11.167  11.282  0.00  0.00    +0.059 C 
ATOM     21  C   UNL     1      -3.029 -12.542  11.906  0.00  0.00    +0.146 C 
ATOM     23  C   UNL     1      -6.178  -9.896  12.508  0.00  0.00    +0.013 A 
ATOM     24  C   UNL     1      -4.457  -9.476  10.340  0.00  0.00    +0.050 A 
ATOM     25  C   UNL     1      -6.514  -8.980  11.511  0.00  0.00    +0.046 A 
ATOM     26  C   UNL     1      -5.655  -8.768  10.431  0.00  0.00    +0.120 A 
BRANCH  26   5
ATOM      5  O   UNL     1      -5.987  -7.867   9.466  0.00  0.00    -0.495 OA
ATOM     30  C   UNL     1      -7.266  -8.016   8.851  0.00  0.00    +0.277 C 
ENDBRANCH  26   5
ENDBRANCH  12  15
ENDBRANCH   8  12
BRANCH   9  14
ATOM     14  C   UNL     1      -2.402 -11.377  16.050  0.00  0.00    +0.124 C 
BRANCH  14  18
ATOM      4  O   UNL     1      -1.507  -9.915  14.316  0.00  0.00    -0.251 OA
ATOM     18  C   UNL     1      -1.412 -10.440  15.415  0.00  0.00    +0.305 C 
BRANCH  18   3
ATOM      3  O   UNL     1      -0.362 -10.248  16.255  0.00  0.00    -0.481 OA
ATOM     31  H   UNL     1      -0.235  -9.299  16.468  0.00  0.00    +0.295 HD
ENDBRANCH  18   3
ENDBRANCH  14  18
ENDBRANCH   9  14
TORSDOF 7
ENDMDL
MODEL 4
REMARK VINA RESULT:      -6.1     26.270     28.843
REMARK  Name = 51136665
REMARK  8 active torsions:
REMARK  status: ('A' for Active; 'I' for Inactive)
REMARK    1  A    between atoms: O_3  and  C_18
REMARK    2  A    between atoms: O_5  and  C_26
REMARK    3  A    between atoms: O_5  and  C_30
REMARK    4  A    between atoms: C_8  and  C_12
REMARK    5  A    between atoms: C_9  and  C_14
REMARK    6  A    between atoms: C_12  and  C_15
REMARK    7  A    between atoms: C_14  and  C_18
REMARK    8  A    between atoms: C_16  and  C_22
REMARK                            x       y       z     vdW  Elec       q    Type
REMARK                         _______ _______ _______ _____ _____    ______ ____
ROOT
ATOM      2  O   UNL     1      -6.117 -14.652  11.475  0.00  0.00    -0.269 OA
ATOM      6  N   UNL     1      -4.216 -13.311  11.225  0.00  0.00    -0.297 N 
ATOM      8  C   UNL     1      -2.999 -11.197  11.701  0.00  0.00    +0.016 C 
ATOM      9  C   UNL     1      -3.335 -10.726  10.264  0.00  0.00    +0.006 C 
ATOM     10  C   UNL     1      -4.617 -11.390   9.735  0.00  0.00    +0.023 C 
ATOM     11  C   UNL     1      -2.973 -12.736  11.756  0.00  0.00    +0.112 C 
ATOM     13  C   UNL     1      -4.544 -12.909   9.858  0.00  0.00    +0.108 C 
ATOM     16  C   UNL     1      -5.072 -14.174  11.914  0.00  0.00    +0.253 C 
ENDROOT
BRANCH  16  22
ATOM      1  S   UNL     1      -3.687 -15.905  13.531  0.00  0.00    -0.092 S 
ATOM     22  C   UNL     1      -4.711 -14.554  13.284  0.00  0.00    +0.074 A 
ATOM     27  C   UNL     1      -5.083 -13.963  14.471  0.00  0.00    +0.021 A 
ATOM     28  C   UNL     1      -4.522 -14.629  15.599  0.00  0.00    +0.008 A 
ATOM     29  C   UNL     1      -3.741 -15.702  15.230  0.00  0.00    +0.046 A 
ENDBRANCH  16  22
BRANCH   8  12
ATOM     12  C   UNL     1      -3.944 -10.643  12.776  0.00  0.00    +0.061 C 
BRANCH  12  15
ATOM      7  N   UNL     1      -1.938 -10.221  14.028  0.00  0.00    -0.287 NA
ATOM     15  C   UNL     1      -3.201 -10.488  14.081  0.00  0.00    +0.044 C 
ATOM     17  C   UNL     1      -3.950 -10.656  15.353  0.00  0.00    -0.001 A 
ATOM     19  C   UNL     1      -3.189 -10.891  16.505  0.00  0.00    -0.033 A 
ATOM     20  C   UNL     1      -1.696 -10.972  16.380  0.00  0.00    +0.059 C 
ATOM     21  C   UNL     1      -1.230 -10.011  15.295  0.00  0.00    +0.146 C 
ATOM     23  C   UNL     1      -5.343 -10.600  15.423  0.00  0.00    +0.013 A 
ATOM     24  C   UNL     1      -3.834 -11.097  17.728  0.00  0.00    +0.050 A 
ATOM     25  C   UNL     1      -5.977 -10.792  16.650  0.00  0.00    +0.046 A 
ATOM     26  C   UNL     1      -5.227 -11.042  17.800  0.00  0.00    +0.120 A 
BRANCH  26   5
ATOM      5  O   UNL     1      -5.854 -11.236  18.992  0.00  0.00    -0.495 OA
ATOM     30  C   UNL     1      -7.160 -10.680  19.136  0.00  0.00    +0.277 C 
ENDBRANCH  26   5
ENDBRANCH  12  15
ENDBRANCH   8  12
BRANCH   9  14
ATOM     14  C   UNL     1      -3.423  -9.205  10.136  0.00  0.00    +0.124 C 
BRANCH  14  18
ATOM      4  O   UNL     1      -5.759  -8.517  10.261  0.00  0.00    -0.251 OA
ATOM     18  C   UNL     1      -4.761  -8.770   9.603  0.00  0.00    +0.305 C 
BRANCH  18   3
ATOM      3  O   UNL     1      -4.709  -8.692   8.248  0.00  0.00    -0.481 OA
ATOM     31  H   UNL     1      -3.943  -8.160   7.943  0.00  0.00    +0.295 HD
ENDBRANCH  18   3
ENDBRANCH  14  18
ENDBRANCH   9  14
TORSDOF 7
ENDMDL
MODEL 5
REMARK VINA RESULT:      -6.1     27.025     29.324
REMARK  Name = 51136665
REMARK  8 active torsions:
REMARK  status: ('A' for Active; 'I' for Inactive)
REMARK    1  A    between atoms: O_3  and  C_18
REMARK    2  A    between atoms: O_5  and  C_26
REMARK    3  A    between atoms: O_5  and  C_30
REMARK    4  A    between atoms: C_8  and  C_12
REMARK    5  A    between atoms: C_9  and  C_14
REMARK    6  A    between atoms: C_12  and  C_15
REMARK    7  A    between atoms: C_14  and  C_18
REMARK    8  A    between atoms: C_16  and  C_22
REMARK                            x       y       z     vdW  Elec       q    Type
REMARK                         _______ _______ _______ _____ _____    ______ ____
ROOT
ATOM      2  O   UNL     1      -1.659  -9.992  12.262  0.00  0.00    -0.269 OA
ATOM      6  N   UNL     1      -2.973 -11.289  13.700  0.00  0.00    -0.297 N 
ATOM      8  C   UNL     1      -4.827 -11.464  15.346  0.00  0.00    +0.016 C 
ATOM      9  C   UNL     1      -3.767 -11.564  16.471  0.00  0.00    +0.006 C 
ATOM     10  C   UNL     1      -2.451 -10.875  16.072  0.00  0.00    +0.023 C 
ATOM     11  C   UNL     1      -4.234 -11.973  14.019  0.00  0.00    +0.112 C 
ATOM     13  C   UNL     1      -1.941 -11.392  14.730  0.00  0.00    +0.108 C 
ATOM     16  C   UNL     1      -2.711 -10.571  12.530  0.00  0.00    +0.253 C 
ENDROOT
BRANCH  16  22
ATOM      1  S   UNL     1      -3.926 -11.750  10.371  0.00  0.00    -0.092 S 
ATOM     22  C   UNL     1      -3.771 -10.489  11.520  0.00  0.00    +0.074 A 
ATOM     27  C   UNL     1      -4.717  -9.504  11.338  0.00  0.00    +0.021 A 
ATOM     28  C   UNL     1      -5.580  -9.787  10.241  0.00  0.00    +0.008 A 
ATOM     29  C   UNL     1      -5.262 -10.979   9.626  0.00  0.00    +0.046 A 
ENDBRANCH  16  22
BRANCH   8  12
ATOM     12  C   UNL     1      -5.411 -10.057  15.162  0.00  0.00    +0.061 C 
BRANCH  12  15
ATOM      7  N   UNL     1      -7.235 -10.305  13.620  0.00  0.00    -0.287 NA
ATOM     15  C   UNL     1      -6.886 -10.150  14.855  0.00  0.00    +0.044 C 
ATOM     17  C   UNL     1      -7.857 -10.051  15.974  0.00  0.00    -0.001 A 
ATOM     19  C   UNL     1      -9.183  -9.753  15.634  0.00  0.00    -0.033 A 
ATOM     20  C   UNL     1      -9.527  -9.542  14.189  0.00  0.00    +0.059 C 
ATOM     21  C   UNL     1      -8.664 -10.457  13.329  0.00  0.00    +0.146 C 
ATOM     23  C   UNL     1      -7.491 -10.228  17.310  0.00  0.00    +0.013 A 
ATOM     24  C   UNL     1     -10.138  -9.607  16.644  0.00  0.00    +0.050 A 
ATOM     25  C   UNL     1      -8.454 -10.095  18.310  0.00  0.00    +0.046 A 
ATOM     26  C   UNL     1      -9.773  -9.783  17.979  0.00  0.00    +0.120 A 
BRANCH  26   5
ATOM      5  O   UNL     1     -10.706  -9.647  18.961  0.00  0.00    -0.495 OA
ATOM     30  C   UNL     1     -10.596 -10.519  20.085  0.00  0.00    +0.277 C 
ENDBRANCH  26   5
ENDBRANCH  12  15
ENDBRANCH   8  12
BRANCH   9  14
ATOM     14  C   UNL     1      -4.266 -11.036  17.816  0.00  0.00    +0.124 C 
BRANCH  14  18
ATOM      4  O   UNL     1      -3.449 -12.136  19.832  0.00  0.00    -0.251 OA
ATOM     18  C   UNL     1      -4.215 -12.095  18.882  0.00  0.00    +0.305 C 
BRANCH  18   3
ATOM      3  O   UNL     1      -5.168 -13.032  18.639  0.00  0.00    -0.481 OA
ATOM     31  H   UNL     1      -5.904 -12.979  19.286  0.00  0.00    +0.295 HD
ENDBRANCH  18   3
ENDBRANCH  14  18
ENDBRANCH   9  14
TORSDOF 7
ENDMDL
MODEL 6
REMARK VINA RESULT:      -5.8      2.045      6.438
REMARK  Name = 51136665
REMARK  8 active torsions:
REMARK  status: ('A' for Active; 'I' for Inactive)
REMARK    1  A    between atoms: O_3  and  C_18
REMARK    2  A    between atoms: O_5  and  C_26
REMARK    3  A    between atoms: O_5  and  C_30
REMARK    4  A    between atoms: C_8  and  C_12
REMARK    5  A    between atoms: C_9  and  C_14
REMARK    6  A    between atoms: C_12  and  C_15
REMARK    7  A    between atoms: C_14  and  C_18
REMARK    8  A    between atoms: C_16  and  C_22
REMARK                            x       y       z     vdW  Elec       q    Type
REMARK                         _______ _______ _______ _____ _____    ______ ____
ROOT
ATOM      2  O   UNL     1      11.941   6.384  21.451  0.00  0.00    -0.269 OA
ATOM      6  N   UNL     1      11.543   8.662  21.091  0.00  0.00    -0.297 N 
ATOM      8  C   UNL     1      12.260  11.031  21.317  0.00  0.00    +0.016 C 
ATOM      9  C   UNL     1      11.236  11.190  22.469  0.00  0.00    +0.006 C 
ATOM     10  C   UNL     1      10.959   9.849  23.169  0.00  0.00    +0.023 C 
ATOM     11  C   UNL     1      11.806   9.911  20.363  0.00  0.00    +0.112 C 
ATOM     13  C   UNL     1      10.557   8.773  22.164  0.00  0.00    +0.108 C 
ATOM     16  C   UNL     1      12.153   7.430  20.840  0.00  0.00    +0.253 C 
ENDROOT
BRANCH  16  22
ATOM      1  S   UNL     1      12.604   7.502  18.134  0.00  0.00    -0.092 S 
ATOM     22  C   UNL     1      13.138   7.358  19.755  0.00  0.00    +0.074 A 
ATOM     27  C   UNL     1      14.502   7.184  19.836  0.00  0.00    +0.021 A 
ATOM     28  C   UNL     1      15.117   7.168  18.551  0.00  0.00    +0.008 A 
ATOM     29  C   UNL     1      14.200   7.331  17.536  0.00  0.00    +0.046 A 
ENDBRANCH  16  22
BRANCH   8  12
ATOM     12  C   UNL     1      13.697  10.777  21.791  0.00  0.00    +0.061 C 
BRANCH  12  15
ATOM      7  N   UNL     1      15.002  12.756  22.175  0.00  0.00    -0.287 NA
ATOM     15  C   UNL     1      14.600  11.886  21.308  0.00  0.00    +0.044 C 
ATOM     17  C   UNL     1      14.975  11.928  19.871  0.00  0.00    -0.001 A 
ATOM     19  C   UNL     1      15.473  13.143  19.385  0.00  0.00    -0.033 A 
ATOM     20  C   UNL     1      15.579  14.307  20.326  0.00  0.00    +0.059 C 
ATOM     21  C   UNL     1      15.928  13.798  21.718  0.00  0.00    +0.146 C 
ATOM     23  C   UNL     1      14.836  10.828  19.022  0.00  0.00    +0.013 A 
ATOM     24  C   UNL     1      15.807  13.261  18.033  0.00  0.00    +0.050 A 
ATOM     25  C   UNL     1      15.186  10.951  17.677  0.00  0.00    +0.046 A 
ATOM     26  C   UNL     1      15.667  12.163  17.182  0.00  0.00    +0.120 A 
BRANCH  26   5
ATOM      5  O   UNL     1      16.000  12.277  15.867  0.00  0.00    -0.495 OA
ATOM     30  C   UNL     1      15.579  11.226  14.999  0.00  0.00    +0.277 C 
ENDBRANCH  26   5
ENDBRANCH  12  15
ENDBRANCH   8  12
BRANCH   9  14
ATOM     14  C   UNL     1      11.638  12.257  23.487  0.00  0.00    +0.124 C 
BRANCH  14  18
ATOM      4  O   UNL     1      10.565  12.323  25.675  0.00  0.00    -0.251 OA
ATOM     18  C   UNL     1      10.534  12.529  24.471  0.00  0.00    +0.305 C 
BRANCH  18   3
ATOM      3  O   UNL     1       9.462  13.052  23.822  0.00  0.00    -0.481 OA
ATOM     31  H   UNL     1       8.769  12.376  23.659  0.00  0.00    +0.295 HD
ENDBRANCH  18   3
ENDBRANCH  14  18
ENDBRANCH   9  14
TORSDOF 7
ENDMDL
MODEL 7
REMARK VINA RESULT:      -5.7     27.734     29.681
REMARK  Name = 51136665
REMARK  8 active torsions:
REMARK  status: ('A' for Active; 'I' for Inactive)
REMARK    1  A    between atoms: O_3  and  C_18
REMARK    2  A    between atoms: O_5  and  C_26
REMARK    3  A    between atoms: O_5  and  C_30
REMARK    4  A    between atoms: C_8  and  C_12
REMARK    5  A    between atoms: C_9  and  C_14
REMARK    6  A    between atoms: C_12  and  C_15
REMARK    7  A    between atoms: C_14  and  C_18
REMARK    8  A    between atoms: C_16  and  C_22
REMARK                            x       y       z     vdW  Elec       q    Type
REMARK                         _______ _______ _______ _____ _____    ______ ____
ROOT
ATOM      2  O   UNL     1      -9.920 -11.353  17.407  0.00  0.00    -0.269 OA
ATOM      6  N   UNL     1      -7.836 -10.340  17.078  0.00  0.00    -0.297 N 
ATOM      8  C   UNL     1      -5.494 -10.460  16.257  0.00  0.00    +0.016 C 
ATOM      9  C   UNL     1      -5.026 -10.595  17.728  0.00  0.00    +0.006 C 
ATOM     10  C   UNL     1      -6.120 -11.212  18.616  0.00  0.00    +0.023 C 
ATOM     11  C   UNL     1      -6.839  -9.713  16.201  0.00  0.00    +0.112 C 
ATOM     13  C   UNL     1      -7.437 -10.453  18.480  0.00  0.00    +0.108 C 
ATOM     16  C   UNL     1      -9.085 -10.822  16.677  0.00  0.00    +0.253 C 
ENDROOT
BRANCH  16  22
ATOM      1  S   UNL     1     -10.327  -9.312  14.752  0.00  0.00    -0.092 S 
ATOM     22  C   UNL     1      -9.451 -10.692  15.262  0.00  0.00    +0.074 A 
ATOM     27  C   UNL     1      -9.186 -11.552  14.219  0.00  0.00    +0.021 A 
ATOM     28  C   UNL     1      -9.709 -11.072  12.984  0.00  0.00    +0.008 A 
ATOM     29  C   UNL     1     -10.354  -9.862  13.130  0.00  0.00    +0.046 A 
ENDBRANCH  16  22
BRANCH   8  12
ATOM     12  C   UNL     1      -5.596 -11.797  15.511  0.00  0.00    +0.061 C 
BRANCH  12  15
ATOM      7  N   UNL     1      -3.495 -12.830  14.974  0.00  0.00    -0.287 NA
ATOM     15  C   UNL     1      -4.396 -11.976  14.613  0.00  0.00    +0.044 C 
ATOM     17  C   UNL     1      -4.304 -11.164  13.372  0.00  0.00    -0.001 A 
ATOM     19  C   UNL     1      -3.040 -11.062  12.778  0.00  0.00    -0.033 A 
ATOM     20  C   UNL     1      -1.879 -11.753  13.430  0.00  0.00    +0.059 C 
ATOM     21  C   UNL     1      -2.360 -13.048  14.071  0.00  0.00    +0.146 C 
ATOM     23  C   UNL     1      -5.405 -10.514  12.812  0.00  0.00    +0.013 A 
ATOM     24  C   UNL     1      -2.878 -10.280  11.631  0.00  0.00    +0.050 A 
ATOM     25  C   UNL     1      -5.237  -9.748  11.659  0.00  0.00    +0.046 A 
ATOM     26  C   UNL     1      -3.977  -9.629  11.070  0.00  0.00    +0.120 A 
BRANCH  26   5
ATOM      5  O   UNL     1      -3.820  -8.874   9.949  0.00  0.00    -0.495 OA
ATOM     30  C   UNL     1      -4.654  -9.186   8.834  0.00  0.00    +0.277 C 
ENDBRANCH  26   5
ENDBRANCH  12  15
ENDBRANCH   8  12
BRANCH   9  14
ATOM     14  C   UNL     1      -3.715 -11.366  17.874  0.00  0.00    +0.124 C 
BRANCH  14  18
ATOM      4  O   UNL     1      -3.452 -12.255  20.129  0.00  0.00    -0.251 OA
ATOM     18  C   UNL     1      -3.796 -12.398  18.965  0.00  0.00    +0.305 C 
BRANCH  18   3
ATOM      3  O   UNL     1      -4.322 -13.547  18.469  0.00  0.00    -0.481 OA
ATOM     31  H   UNL     1      -3.828 -14.337  18.776  0.00  0.00    +0.295 HD
ENDBRANCH  18   3
ENDBRANCH  14  18
ENDBRANCH   9  14
TORSDOF 7
ENDMDL
MODEL 8
REMARK VINA RESULT:      -5.7     24.494     26.709
REMARK  Name = 51136665
REMARK  8 active torsions:
REMARK  status: ('A' for Active; 'I' for Inactive)
REMARK    1  A    between atoms: O_3  and  C_18
REMARK    2  A    between atoms: O_5  and  C_26
REMARK    3  A    between atoms: O_5  and  C_30
REMARK    4  A    between atoms: C_8  and  C_12
REMARK    5  A    between atoms: C_9  and  C_14
REMARK    6  A    between atoms: C_12  and  C_15
REMARK    7  A    between atoms: C_14  and  C_18
REMARK    8  A    between atoms: C_16  and  C_22
REMARK                            x       y       z     vdW  Elec       q    Type
REMARK                         _______ _______ _______ _____ _____    ______ ____
ROOT
ATOM      2  O   UNL     1      -9.749   9.350  17.764  0.00  0.00    -0.269 OA
ATOM      6  N   UNL     1     -11.843   8.667  18.555  0.00  0.00    -0.297 N 
ATOM      8  C   UNL     1     -13.520   8.564  20.386  0.00  0.00    +0.016 C 
ATOM      9  C   UNL     1     -13.120   7.084  20.615  0.00  0.00    +0.006 C 
ATOM     10  C   UNL     1     -11.675   6.812  20.167  0.00  0.00    +0.023 C 
ATOM     11  C   UNL     1     -13.233   8.965  18.927  0.00  0.00    +0.112 C 
ATOM     13  C   UNL     1     -11.446   7.272  18.729  0.00  0.00    +0.108 C 
ATOM     16  C   UNL     1     -10.915   9.593  18.071  0.00  0.00    +0.253 C 
ENDROOT
BRANCH  16  22
ATOM      1  S   UNL     1     -11.926  11.505  16.382  0.00  0.00    -0.092 S 
ATOM     22  C   UNL     1     -11.350  10.985  17.909  0.00  0.00    +0.074 A 
ATOM     27  C   UNL     1     -11.373  11.997  18.843  0.00  0.00    +0.021 A 
ATOM     28  C   UNL     1     -11.868  13.217  18.298  0.00  0.00    +0.008 A 
ATOM     29  C   UNL     1     -12.207  13.090  16.968  0.00  0.00    +0.046 A 
ENDBRANCH  16  22
BRANCH   8  12
ATOM     12  C   UNL     1     -12.845   9.548  21.351  0.00  0.00    +0.061 C 
BRANCH  12  15
ATOM      7  N   UNL     1     -15.117  10.231  21.728  0.00  0.00    -0.287 NA
ATOM     15  C   UNL     1     -13.894  10.289  22.144  0.00  0.00    +0.044 C 
ATOM     17  C   UNL     1     -13.475  11.050  23.349  0.00  0.00    -0.001 A 
ATOM     19  C   UNL     1     -14.368  12.018  23.825  0.00  0.00    -0.033 A 
ATOM     20  C   UNL     1     -15.659  12.230  23.093  0.00  0.00    +0.059 C 
ATOM     21  C   UNL     1     -16.144  10.900  22.532  0.00  0.00    +0.146 C 
ATOM     23  C   UNL     1     -12.251  10.839  23.986  0.00  0.00    +0.013 A 
ATOM     24  C   UNL     1     -14.016  12.795  24.932  0.00  0.00    +0.050 A 
ATOM     25  C   UNL     1     -11.914  11.610  25.099  0.00  0.00    +0.046 A 
ATOM     26  C   UNL     1     -12.792  12.587  25.570  0.00  0.00    +0.120 A 
BRANCH  26   5
ATOM      5  O   UNL     1     -12.454  13.340  26.652  0.00  0.00    -0.495 OA
ATOM     30  C   UNL     1     -11.878  12.656  27.764  0.00  0.00    +0.277 C 
ENDBRANCH  26   5
ENDBRANCH  12  15
ENDBRANCH   8  12
BRANCH   9  14
ATOM     14  C   UNL     1     -13.334   6.620  22.056  0.00  0.00    +0.124 C 
BRANCH  14  18
ATOM      4  O   UNL     1     -14.557   4.535  21.738  0.00  0.00    -0.251 OA
ATOM     18  C   UNL     1     -13.569   5.136  22.131  0.00  0.00    +0.305 C 
BRANCH  18   3
ATOM      3  O   UNL     1     -12.500   4.534  22.713  0.00  0.00    -0.481 OA
ATOM     31  H   UNL     1     -12.680   4.293  23.647  0.00  0.00    +0.295 HD
ENDBRANCH  18   3
ENDBRANCH  14  18
ENDBRANCH   9  14
TORSDOF 7
ENDMDL
MODEL 9
REMARK VINA RESULT:      -5.6     27.043     29.832
REMARK  Name = 51136665
REMARK  8 active torsions:
REMARK  status: ('A' for Active; 'I' for Inactive)
REMARK    1  A    between atoms: O_3  and  C_18
REMARK    2  A    between atoms: O_5  and  C_26
REMARK    3  A    between atoms: O_5  and  C_30
REMARK    4  A    between atoms: C_8  and  C_12
REMARK    5  A    between atoms: C_9  and  C_14
REMARK    6  A    between atoms: C_12  and  C_15
REMARK    7  A    between atoms: C_14  and  C_18
REMARK    8  A    between atoms: C_16  and  C_22
REMARK                            x       y       z     vdW  Elec       q    Type
REMARK                         _______ _______ _______ _____ _____    ______ ____
ROOT
ATOM      2  O   UNL     1      -8.092 -11.243  12.056  0.00  0.00    -0.269 OA
ATOM      6  N   UNL     1      -7.363 -10.400  14.114  0.00  0.00    -0.297 N 
ATOM      8  C   UNL     1      -6.149 -10.718  16.259  0.00  0.00    +0.016 C 
ATOM      9  C   UNL     1      -7.520 -10.847  16.970  0.00  0.00    +0.006 C 
ATOM     10  C   UNL     1      -8.610 -11.355  16.011  0.00  0.00    +0.023 C 
ATOM     11  C   UNL     1      -6.299  -9.874  14.980  0.00  0.00    +0.112 C 
ATOM     13  C   UNL     1      -8.676 -10.503  14.747  0.00  0.00    +0.108 C 
ATOM     16  C   UNL     1      -7.206 -10.797  12.783  0.00  0.00    +0.253 C 
ENDROOT
BRANCH  16  22
ATOM      1  S   UNL     1      -5.427  -9.208  11.426  0.00  0.00    -0.092 S 
ATOM     22  C   UNL     1      -5.873 -10.679  12.181  0.00  0.00    +0.074 A 
ATOM     27  C   UNL     1      -4.865 -11.616  12.125  0.00  0.00    +0.021 A 
ATOM     28  C   UNL     1      -3.711 -11.120  11.452  0.00  0.00    +0.008 A 
ATOM     29  C   UNL     1      -3.881  -9.823  11.020  0.00  0.00    +0.046 A 
ENDBRANCH  16  22
BRANCH   8  12
ATOM     12  C   UNL     1      -5.487 -12.064  15.933  0.00  0.00    +0.061 C 
BRANCH  12  15
ATOM      7  N   UNL     1      -3.450 -10.852  16.319  0.00  0.00    -0.287 NA
ATOM     15  C   UNL     1      -4.001 -11.873  15.749  0.00  0.00    +0.044 C 
ATOM     17  C   UNL     1      -3.251 -12.855  14.924  0.00  0.00    -0.001 A 
ATOM     19  C   UNL     1      -1.993 -12.454  14.458  0.00  0.00    -0.033 A 
ATOM     20  C   UNL     1      -1.499 -11.080  14.802  0.00  0.00    +0.059 C 
ATOM     21  C   UNL     1      -1.997 -10.701  16.191  0.00  0.00    +0.146 C 
ATOM     23  C   UNL     1      -3.758 -14.116  14.604  0.00  0.00    +0.013 A 
ATOM     24  C   UNL     1      -1.253 -13.316  13.643  0.00  0.00    +0.050 A 
ATOM     25  C   UNL     1      -3.006 -14.975  13.802  0.00  0.00    +0.046 A 
ATOM     26  C   UNL     1      -1.758 -14.576  13.321  0.00  0.00    +0.120 A 
BRANCH  26   5
ATOM      5  O   UNL     1      -1.034 -15.418  12.533  0.00  0.00    -0.495 OA
ATOM     30  C   UNL     1      -1.742 -16.128  11.519  0.00  0.00    +0.277 C 
ENDBRANCH  26   5
ENDBRANCH  12  15
ENDBRANCH   8  12
BRANCH   9  14
ATOM     14  C   UNL     1      -7.464 -11.711  18.230  0.00  0.00    +0.124 C 
BRANCH  14  18
ATOM      4  O   UNL     1      -6.358 -10.526  20.051  0.00  0.00    -0.251 OA
ATOM     18  C   UNL     1      -7.379 -10.872  19.475  0.00  0.00    +0.305 C 
BRANCH  18   3
ATOM      3  O   UNL     1      -8.629 -10.536  19.886  0.00  0.00    -0.481 OA
ATOM     31  H   UNL     1      -9.309 -10.784  19.224  0.00  0.00    +0.295 HD
ENDBRANCH  18   3
ENDBRANCH  14  18
ENDBRANCH   9  14
TORSDOF 7
ENDMDL
MODEL 10
REMARK VINA RESULT:      -5.4      3.897      7.075
REMARK  Name = 51136665
REMARK  8 active torsions:
REMARK  status: ('A' for Active; 'I' for Inactive)
REMARK    1  A    between atoms: O_3  and  C_18
REMARK    2  A    between atoms: O_5  and  C_26
REMARK    3  A    between atoms: O_5  and  C_30
REMARK    4  A    between atoms: C_8  and  C_12
REMARK    5  A    between atoms: C_9  and  C_14
REMARK    6  A    between atoms: C_12  and  C_15
REMARK    7  A    between atoms: C_14  and  C_18
REMARK    8  A    between atoms: C_16  and  C_22
REMARK                            x       y       z     vdW  Elec       q    Type
REMARK                         _______ _______ _______ _____ _____    ______ ____
ROOT
ATOM      2  O   UNL     1      12.822  12.989  19.159  0.00  0.00    -0.269 OA
ATOM      6  N   UNL     1      13.345  11.349  20.745  0.00  0.00    -0.297 N 
ATOM      8  C   UNL     1      14.285   9.116  21.297  0.00  0.00    +0.016 C 
ATOM      9  C   UNL     1      12.837   8.588  21.452  0.00  0.00    +0.006 C 
ATOM     10  C   UNL     1      11.844   9.400  20.605  0.00  0.00    +0.023 C 
ATOM     11  C   UNL     1      14.323  10.631  21.572  0.00  0.00    +0.112 C 
ATOM     13  C   UNL     1      11.964  10.894  20.893  0.00  0.00    +0.108 C 
ATOM     16  C   UNL     1      13.637  12.389  19.858  0.00  0.00    +0.253 C 
ENDROOT
BRANCH  16  22
ATOM      1  S   UNL     1      15.631  14.026  20.793  0.00  0.00    -0.092 S 
ATOM     22  C   UNL     1      15.035  12.818  19.736  0.00  0.00    +0.074 A 
ATOM     27  C   UNL     1      16.000  12.378  18.857  0.00  0.00    +0.021 A 
ATOM     28  C   UNL     1      17.245  13.041  19.054  0.00  0.00    +0.008 A 
ATOM     29  C   UNL     1      17.185  13.963  20.076  0.00  0.00    +0.046 A 
ENDBRANCH  16  22
BRANCH   8  12
ATOM     12  C   UNL     1      14.919   8.807  19.934  0.00  0.00    +0.061 C 
BRANCH  12  15
ATOM      7  N   UNL     1      16.144   6.758  19.664  0.00  0.00    -0.287 NA
ATOM     15  C   UNL     1      16.159   7.966  20.124  0.00  0.00    +0.044 C 
ATOM     17  C   UNL     1      17.323   8.559  20.831  0.00  0.00    -0.001 A 
ATOM     19  C   UNL     1      18.281   7.666  21.327  0.00  0.00    -0.033 A 
ATOM     20  C   UNL     1      18.066   6.194  21.129  0.00  0.00    +0.059 C 
ATOM     21  C   UNL     1      17.369   5.963  19.795  0.00  0.00    +0.146 C 
ATOM     23  C   UNL     1      17.473   9.935  21.017  0.00  0.00    +0.013 A 
ATOM     24  C   UNL     1      19.381   8.157  22.036  0.00  0.00    +0.050 A 
ATOM     25  C   UNL     1      18.581  10.417  21.713  0.00  0.00    +0.046 A 
ATOM     26  C   UNL     1      19.532   9.532  22.224  0.00  0.00    +0.120 A 
BRANCH  26   5
ATOM      5  O   UNL     1      20.607  10.009  22.908  0.00  0.00    -0.495 OA
ATOM     30  C   UNL     1      21.857   9.358  22.690  0.00  0.00    +0.277 C 
ENDBRANCH  26   5
ENDBRANCH  12  15
ENDBRANCH   8  12
BRANCH   9  14
ATOM     14  C   UNL     1      12.706   7.095  21.152  0.00  0.00    +0.124 C 
BRANCH  14  18
ATOM      4  O   UNL     1      10.569   7.071  22.325  0.00  0.00    -0.251 OA
ATOM     18  C   UNL     1      11.348   6.570  21.529  0.00  0.00    +0.305 C 
BRANCH  18   3
ATOM      3  O   UNL     1      11.094   5.426  20.842  0.00  0.00    -0.481 OA
ATOM     31  H   UNL     1      11.920   5.000  20.525  0.00  0.00    +0.295 HD
ENDBRANCH  18   3
ENDBRANCH  14  18
ENDBRANCH   9  14
TORSDOF 7
ENDMDL
