MODEL 1
REMARK VINA RESULT:      -6.4      0.000      0.000
REMARK  Name = 28959709
REMARK  10 active torsions:
REMARK  status: ('A' for Active; 'I' for Inactive)
REMARK    1  A    between atoms: O_2  and  C_21
REMARK    2  A    between atoms: O_4  and  C_28
REMARK    3  A    between atoms: O_4  and  C_29
REMARK    4  A    between atoms: N_6  and  C_13
REMARK    5  A    between atoms: C_7  and  C_10
REMARK    6  A    between atoms: C_8  and  C_14
REMARK    7  A    between atoms: C_10  and  C_13
REMARK    8  A    between atoms: C_14  and  C_21
REMARK    9  A    between atoms: C_19  and  C_22
REMARK   10  A    between atoms: C_22  and  C_23
REMARK                            x       y       z     vdW  Elec       q    Type
REMARK                         _______ _______ _______ _____ _____    ______ ____
ROOT
ATOM      1  O   UNL     1      11.705   6.060  21.073  0.00  0.00    -0.275 OA
ATOM      5  N   UNL     1      11.467   8.353  20.797  0.00  0.00    -0.301 N 
ATOM      7  C   UNL     1      12.298  10.682  21.045  0.00  0.00    +0.011 C 
ATOM      8  C   UNL     1      11.321  10.865  22.233  0.00  0.00    +0.006 C 
ATOM      9  C   UNL     1      11.759   9.604  20.086  0.00  0.00    +0.111 C 
ATOM     11  C   UNL     1      11.004   9.524  22.916  0.00  0.00    +0.023 C 
ATOM     12  C   UNL     1      10.522   8.487  21.905  0.00  0.00    +0.108 C 
ATOM     19  C   UNL     1      11.988   7.101  20.475  0.00  0.00    +0.220 C 
ENDROOT
BRANCH   7  10
ATOM     10  C   UNL     1      13.735  10.349  21.464  0.00  0.00    +0.020 C 
BRANCH  10  13
ATOM     13  C   UNL     1      14.693  10.503  20.292  0.00  0.00    +0.085 C 
BRANCH  13   6
ATOM      6  N   UNL     1      15.921  11.162  20.737  0.00  0.00    -0.302 NA
ATOM     15  C   UNL     1      16.631  11.751  19.593  0.00  0.00    +0.084 C 
ATOM     16  C   UNL     1      16.778  10.215  21.464  0.00  0.00    +0.084 C 
ATOM     17  C   UNL     1      17.893  12.487  20.046  0.00  0.00    +0.015 C 
ATOM     18  C   UNL     1      18.045  10.902  21.979  0.00  0.00    +0.015 C 
ATOM     20  C   UNL     1      18.813  11.571  20.845  0.00  0.00    +0.002 C 
ENDBRANCH  13   6
ENDBRANCH  10  13
ENDBRANCH   7  10
BRANCH   8  14
ATOM     14  C   UNL     1      11.808  11.890  23.258  0.00  0.00    +0.124 C 
BRANCH  14  21
ATOM      3  O   UNL     1      11.080  11.662  25.573  0.00  0.00    -0.251 OA
ATOM     21  C   UNL     1      10.861  12.004  24.421  0.00  0.00    +0.305 C 
BRANCH  21   2
ATOM      2  O   UNL     1       9.692  12.556  24.006  0.00  0.00    -0.481 OA
ATOM     30  H   UNL     1       9.395  13.275  24.604  0.00  0.00    +0.295 HD
ENDBRANCH  21   2
ENDBRANCH  14  21
ENDBRANCH   8  14
BRANCH  19  22
ATOM     22  C   UNL     1      12.958   7.048  19.322  0.00  0.00    +0.131 C 
BRANCH  22  23
ATOM     23  C   UNL     1      14.359   6.875  19.819  0.00  0.00    -0.038 A 
ATOM     24  C   UNL     1      14.618   6.875  21.191  0.00  0.00    +0.007 A 
ATOM     25  C   UNL     1      15.406   6.711  18.912  0.00  0.00    +0.007 A 
ATOM     26  C   UNL     1      15.923   6.711  21.654  0.00  0.00    +0.046 A 
ATOM     27  C   UNL     1      16.711   6.548  19.376  0.00  0.00    +0.046 A 
ATOM     28  C   UNL     1      16.970   6.547  20.746  0.00  0.00    +0.120 A 
BRANCH  28   4
ATOM      4  O   UNL     1      18.243   6.387  21.198  0.00  0.00    -0.495 OA
ATOM     29  C   UNL     1      19.193   5.840  20.284  0.00  0.00    +0.277 C 
ENDBRANCH  28   4
ENDBRANCH  22  23
ENDBRANCH  19  22
TORSDOF 9
ENDMDL
MODEL 2
REMARK VINA RESULT:      -6.3     26.590     29.144
REMARK  Name = 28959709
REMARK  10 active torsions:
REMARK  status: ('A' for Active; 'I' for Inactive)
REMARK    1  A    between atoms: O_2  and  C_21
REMARK    2  A    between atoms: O_4  and  C_28
REMARK    3  A    between atoms: O_4  and  C_29
REMARK    4  A    between atoms: N_6  and  C_13
REMARK    5  A    between atoms: C_7  and  C_10
REMARK    6  A    between atoms: C_8  and  C_14
REMARK    7  A    between atoms: C_10  and  C_13
REMARK    8  A    between atoms: C_14  and  C_21
REMARK    9  A    between atoms: C_19  and  C_22
REMARK   10  A    between atoms: C_22  and  C_23
REMARK                            x       y       z     vdW  Elec       q    Type
REMARK                         _______ _______ _______ _____ _____    ______ ____
ROOT
ATOM      1  O   UNL     1      -1.395  -9.904  12.427  0.00  0.00    -0.275 OA
ATOM      5  N   UNL     1      -2.296 -11.383  13.975  0.00  0.00    -0.301 N 
ATOM      7  C   UNL     1      -4.144 -12.143  15.452  0.00  0.00    +0.011 C 
ATOM      8  C   UNL     1      -3.363 -11.572  16.661  0.00  0.00    +0.006 C 
ATOM      9  C   UNL     1      -3.164 -12.515  14.324  0.00  0.00    +0.111 C 
ATOM     11  C   UNL     1      -2.430 -10.423  16.241  0.00  0.00    +0.023 C 
ATOM     12  C   UNL     1      -1.519 -10.842  15.089  0.00  0.00    +0.108 C 
ATOM     19  C   UNL     1      -2.152 -10.840  12.699  0.00  0.00    +0.220 C 
ENDROOT
BRANCH   7  10
ATOM     10  C   UNL     1      -5.237 -11.209  14.918  0.00  0.00    +0.020 C 
BRANCH  10  13
ATOM     13  C   UNL     1      -6.568 -11.939  14.804  0.00  0.00    +0.085 C 
BRANCH  13   6
ATOM      6  N   UNL     1      -7.574 -11.269  15.627  0.00  0.00    -0.302 NA
ATOM     15  C   UNL     1      -7.143  -9.904  15.957  0.00  0.00    +0.084 C 
ATOM     16  C   UNL     1      -7.845 -12.049  16.844  0.00  0.00    +0.084 C 
ATOM     17  C   UNL     1      -8.206  -9.172  16.778  0.00  0.00    +0.015 C 
ATOM     18  C   UNL     1      -8.931 -11.387  17.693  0.00  0.00    +0.015 C 
ATOM     20  C   UNL     1      -8.565  -9.948  18.039  0.00  0.00    +0.002 C 
ENDBRANCH  13   6
ENDBRANCH  10  13
ENDBRANCH   7  10
BRANCH   8  14
ATOM     14  C   UNL     1      -4.271 -11.135  17.811  0.00  0.00    +0.124 C 
BRANCH  14  21
ATOM      3  O   UNL     1      -3.332 -12.172  19.807  0.00  0.00    -0.251 OA
ATOM     21  C   UNL     1      -4.212 -12.100  18.963  0.00  0.00    +0.305 C 
BRANCH  21   2
ATOM      2  O   UNL     1      -5.303 -12.909  18.938  0.00  0.00    -0.481 OA
ATOM     30  H   UNL     1      -5.191 -13.654  18.310  0.00  0.00    +0.295 HD
ENDBRANCH  21   2
ENDBRANCH  14  21
ENDBRANCH   8  14
BRANCH  19  22
ATOM     22  C   UNL     1      -2.989 -11.452  11.605  0.00  0.00    +0.131 C 
BRANCH  22  23
ATOM     23  C   UNL     1      -3.867 -10.418  10.971  0.00  0.00    -0.038 A 
ATOM     24  C   UNL     1      -3.707 -10.099   9.623  0.00  0.00    +0.007 A 
ATOM     25  C   UNL     1      -4.846  -9.775  11.729  0.00  0.00    +0.007 A 
ATOM     26  C   UNL     1      -4.527  -9.138   9.032  0.00  0.00    +0.046 A 
ATOM     27  C   UNL     1      -5.665  -8.814  11.138  0.00  0.00    +0.046 A 
ATOM     28  C   UNL     1      -5.506  -8.495   9.790  0.00  0.00    +0.120 A 
BRANCH  28   4
ATOM      4  O   UNL     1      -6.307  -7.557   9.213  0.00  0.00    -0.495 OA
ATOM     29  C   UNL     1      -7.518  -8.016   8.614  0.00  0.00    +0.277 C 
ENDBRANCH  28   4
ENDBRANCH  22  23
ENDBRANCH  19  22
TORSDOF 9
ENDMDL
MODEL 3
REMARK VINA RESULT:      -6.3     25.953     29.276
REMARK  Name = 28959709
REMARK  10 active torsions:
REMARK  status: ('A' for Active; 'I' for Inactive)
REMARK    1  A    between atoms: O_2  and  C_21
REMARK    2  A    between atoms: O_4  and  C_28
REMARK    3  A    between atoms: O_4  and  C_29
REMARK    4  A    between atoms: N_6  and  C_13
REMARK    5  A    between atoms: C_7  and  C_10
REMARK    6  A    between atoms: C_8  and  C_14
REMARK    7  A    between atoms: C_10  and  C_13
REMARK    8  A    between atoms: C_14  and  C_21
REMARK    9  A    between atoms: C_19  and  C_22
REMARK   10  A    between atoms: C_22  and  C_23
REMARK                            x       y       z     vdW  Elec       q    Type
REMARK                         _______ _______ _______ _____ _____    ______ ____
ROOT
ATOM      1  O   UNL     1      -7.855 -11.678  18.171  0.00  0.00    -0.275 OA
ATOM      5  N   UNL     1      -6.264 -10.565  16.895  0.00  0.00    -0.301 N 
ATOM      7  C   UNL     1      -4.590 -10.502  15.060  0.00  0.00    +0.011 C 
ATOM      8  C   UNL     1      -3.471 -10.586  16.128  0.00  0.00    +0.006 C 
ATOM      9  C   UNL     1      -5.851  -9.865  15.673  0.00  0.00    +0.111 C 
ATOM     11  C   UNL     1      -3.962 -11.282  17.409  0.00  0.00    +0.023 C 
ATOM     12  C   UNL     1      -5.239 -10.633  17.937  0.00  0.00    +0.108 C 
ATOM     19  C   UNL     1      -7.525 -11.116  17.124  0.00  0.00    +0.220 C 
ENDROOT
BRANCH   7  10
ATOM     10  C   UNL     1      -4.938 -11.848  14.413  0.00  0.00    +0.020 C 
BRANCH  10  13
ATOM     13  C   UNL     1      -5.416 -11.655  12.981  0.00  0.00    +0.085 C 
BRANCH  13   6
ATOM      6  N   UNL     1      -4.641 -10.596  12.336  0.00  0.00    -0.302 NA
ATOM     15  C   UNL     1      -5.476  -9.858  11.379  0.00  0.00    +0.084 C 
ATOM     16  C   UNL     1      -3.450 -11.156  11.681  0.00  0.00    +0.084 C 
ATOM     17  C   UNL     1      -4.694  -8.714  10.731  0.00  0.00    +0.015 C 
ATOM     18  C   UNL     1      -2.602 -10.054  11.043  0.00  0.00    +0.015 C 
ATOM     20  C   UNL     1      -3.421  -9.220  10.064  0.00  0.00    +0.002 C 
ENDBRANCH  13   6
ENDBRANCH  10  13
ENDBRANCH   7  10
BRANCH   8  14
ATOM     14  C   UNL     1      -2.195 -11.251  15.609  0.00  0.00    +0.124 C 
BRANCH  14  21
ATOM      3  O   UNL     1      -1.227  -9.480  14.242  0.00  0.00    -0.251 OA
ATOM     21  C   UNL     1      -1.166 -10.233  15.202  0.00  0.00    +0.305 C 
BRANCH  21   2
ATOM      2  O   UNL     1      -0.125 -10.262  16.073  0.00  0.00    -0.481 OA
ATOM     30  H   UNL     1      -0.428 -10.239  17.006  0.00  0.00    +0.295 HD
ENDBRANCH  21   2
ENDBRANCH  14  21
ENDBRANCH   8  14
BRANCH  19  22
ATOM     22  C   UNL     1      -8.524 -11.008  16.000  0.00  0.00    +0.131 C 
BRANCH  22  23
ATOM     23  C   UNL     1      -9.246  -9.698  16.061  0.00  0.00    -0.038 A 
ATOM     24  C   UNL     1      -9.303  -8.989  17.261  0.00  0.00    +0.007 A 
ATOM     25  C   UNL     1      -9.861  -9.187  14.918  0.00  0.00    +0.007 A 
ATOM     26  C   UNL     1      -9.974  -7.767  17.318  0.00  0.00    +0.046 A 
ATOM     27  C   UNL     1     -10.532  -7.966  14.975  0.00  0.00    +0.046 A 
ATOM     28  C   UNL     1     -10.589  -7.256  16.175  0.00  0.00    +0.120 A 
BRANCH  28   4
ATOM      4  O   UNL     1     -11.243  -6.064  16.229  0.00  0.00    -0.495 OA
ATOM     29  C   UNL     1     -12.366  -5.899  15.364  0.00  0.00    +0.277 C 
ENDBRANCH  28   4
ENDBRANCH  22  23
ENDBRANCH  19  22
TORSDOF 9
ENDMDL
MODEL 4
REMARK VINA RESULT:      -5.9     15.578     17.777
REMARK  Name = 28959709
REMARK  10 active torsions:
REMARK  status: ('A' for Active; 'I' for Inactive)
REMARK    1  A    between atoms: O_2  and  C_21
REMARK    2  A    between atoms: O_4  and  C_28
REMARK    3  A    between atoms: O_4  and  C_29
REMARK    4  A    between atoms: N_6  and  C_13
REMARK    5  A    between atoms: C_7  and  C_10
REMARK    6  A    between atoms: C_8  and  C_14
REMARK    7  A    between atoms: C_10  and  C_13
REMARK    8  A    between atoms: C_14  and  C_21
REMARK    9  A    between atoms: C_19  and  C_22
REMARK   10  A    between atoms: C_22  and  C_23
REMARK                            x       y       z     vdW  Elec       q    Type
REMARK                         _______ _______ _______ _____ _____    ______ ____
ROOT
ATOM      1  O   UNL     1      12.973   7.866   4.924  0.00  0.00    -0.275 OA
ATOM      5  N   UNL     1      11.506   6.252   5.723  0.00  0.00    -0.301 N 
ATOM      7  C   UNL     1       9.291   5.562   6.612  0.00  0.00    +0.011 C 
ATOM      8  C   UNL     1       9.923   5.486   8.025  0.00  0.00    +0.006 C 
ATOM      9  C   UNL     1      10.374   5.334   5.542  0.00  0.00    +0.111 C 
ATOM     11  C   UNL     1      11.134   6.426   8.154  0.00  0.00    +0.023 C 
ATOM     12  C   UNL     1      12.146   6.182   7.037  0.00  0.00    +0.108 C 
ATOM     19  C   UNL     1      12.003   7.123   4.754  0.00  0.00    +0.220 C 
ENDROOT
BRANCH   7  10
ATOM     10  C   UNL     1       8.537   6.868   6.335  0.00  0.00    +0.020 C 
BRANCH  10  13
ATOM     13  C   UNL     1       8.068   6.928   4.888  0.00  0.00    +0.085 C 
BRANCH  13   6
ATOM      6  N   UNL     1       7.821   8.317   4.503  0.00  0.00    -0.302 NA
ATOM     15  C   UNL     1       7.954   8.479   3.049  0.00  0.00    +0.084 C 
ATOM     16  C   UNL     1       8.731   9.220   5.223  0.00  0.00    +0.084 C 
ATOM     17  C   UNL     1       7.651   9.916   2.622  0.00  0.00    +0.015 C 
ATOM     18  C   UNL     1       8.454  10.682   4.868  0.00  0.00    +0.015 C 
ATOM     20  C   UNL     1       8.536  10.913   3.363  0.00  0.00    +0.002 C 
ENDBRANCH  13   6
ENDBRANCH  10  13
ENDBRANCH   7  10
BRANCH   8  14
ATOM     14  C   UNL     1       8.917   5.747   9.147  0.00  0.00    +0.124 C 
BRANCH  14  21
ATOM      3  O   UNL     1      10.162   4.260  10.624  0.00  0.00    -0.251 OA
ATOM     21  C   UNL     1       9.116   4.803  10.300  0.00  0.00    +0.305 C 
BRANCH  21   2
ATOM      2  O   UNL     1       7.940   4.628  10.956  0.00  0.00    -0.481 OA
ATOM     30  H   UNL     1       7.541   3.753  10.764  0.00  0.00    +0.295 HD
ENDBRANCH  21   2
ENDBRANCH  14  21
ENDBRANCH   8  14
BRANCH  19  22
ATOM     22  C   UNL     1      11.287   7.138   3.428  0.00  0.00    +0.131 C 
BRANCH  22  23
ATOM     23  C   UNL     1      11.891   6.140   2.490  0.00  0.00    -0.038 A 
ATOM     24  C   UNL     1      13.150   6.374   1.938  0.00  0.00    +0.007 A 
ATOM     25  C   UNL     1      11.195   4.973   2.171  0.00  0.00    +0.007 A 
ATOM     26  C   UNL     1      13.714   5.442   1.067  0.00  0.00    +0.046 A 
ATOM     27  C   UNL     1      11.759   4.042   1.299  0.00  0.00    +0.046 A 
ATOM     28  C   UNL     1      13.018   4.276   0.747  0.00  0.00    +0.120 A 
BRANCH  28   4
ATOM      4  O   UNL     1      13.568   3.367  -0.102  0.00  0.00    -0.495 OA
ATOM     29  C   UNL     1      13.527   3.671  -1.496  0.00  0.00    +0.277 C 
ENDBRANCH  28   4
ENDBRANCH  22  23
ENDBRANCH  19  22
TORSDOF 9
ENDMDL
MODEL 5
REMARK VINA RESULT:      -5.8     17.270     19.840
REMARK  Name = 28959709
REMARK  10 active torsions:
REMARK  status: ('A' for Active; 'I' for Inactive)
REMARK    1  A    between atoms: O_2  and  C_21
REMARK    2  A    between atoms: O_4  and  C_28
REMARK    3  A    between atoms: O_4  and  C_29
REMARK    4  A    between atoms: N_6  and  C_13
REMARK    5  A    between atoms: C_7  and  C_10
REMARK    6  A    between atoms: C_8  and  C_14
REMARK    7  A    between atoms: C_10  and  C_13
REMARK    8  A    between atoms: C_14  and  C_21
REMARK    9  A    between atoms: C_19  and  C_22
REMARK   10  A    between atoms: C_22  and  C_23
REMARK                            x       y       z     vdW  Elec       q    Type
REMARK                         _______ _______ _______ _____ _____    ______ ____
ROOT
ATOM      1  O   UNL     1       9.526   9.675   5.129  0.00  0.00    -0.275 OA
ATOM      5  N   UNL     1       9.525   8.873   2.949  0.00  0.00    -0.301 N 
ATOM      7  C   UNL     1      10.194   7.202   1.236  0.00  0.00    +0.011 C 
ATOM      8  C   UNL     1      11.247   8.212   0.715  0.00  0.00    +0.006 C 
ATOM      9  C   UNL     1       9.034   7.957   1.911  0.00  0.00    +0.111 C 
ATOM     11  C   UNL     1      11.695   9.183   1.821  0.00  0.00    +0.023 C 
ATOM     12  C   UNL     1      10.497   9.861   2.482  0.00  0.00    +0.108 C 
ATOM     19  C   UNL     1       9.117   8.877   4.282  0.00  0.00    +0.220 C 
ENDROOT
BRANCH   7  10
ATOM     10  C   UNL     1      10.763   6.142   2.187  0.00  0.00    +0.020 C 
BRANCH  10  13
ATOM     13  C   UNL     1      10.304   4.748   1.784  0.00  0.00    +0.085 C 
BRANCH  13   6
ATOM      6  N   UNL     1      11.441   3.976   1.284  0.00  0.00    -0.302 NA
ATOM     15  C   UNL     1      12.689   4.436   1.908  0.00  0.00    +0.084 C 
ATOM     16  C   UNL     1      11.517   4.061  -0.181  0.00  0.00    +0.084 C 
ATOM     17  C   UNL     1      13.883   3.606   1.434  0.00  0.00    +0.015 C 
ATOM     18  C   UNL     1      12.672   3.218  -0.724  0.00  0.00    +0.015 C 
ATOM     20  C   UNL     1      13.998   3.618  -0.086  0.00  0.00    +0.002 C 
ENDBRANCH  13   6
ENDBRANCH  10  13
ENDBRANCH   7  10
BRANCH   8  14
ATOM     14  C   UNL     1      12.457   7.538   0.067  0.00  0.00    +0.124 C 
BRANCH  14  21
ATOM      3  O   UNL     1      11.393   7.894  -2.097  0.00  0.00    -0.251 OA
ATOM     21  C   UNL     1      12.289   7.410  -1.422  0.00  0.00    +0.305 C 
BRANCH  21   2
ATOM      2  O   UNL     1      13.300   6.661  -1.933  0.00  0.00    -0.481 OA
ATOM     30  H   UNL     1      13.845   6.252  -1.226  0.00  0.00    +0.295 HD
ENDBRANCH  21   2
ENDBRANCH  14  21
ENDBRANCH   8  14
BRANCH  19  22
ATOM     22  C   UNL     1       8.114   7.825   4.685  0.00  0.00    +0.131 C 
BRANCH  22  23
ATOM     23  C   UNL     1       8.649   6.989   5.805  0.00  0.00    -0.038 A 
ATOM     24  C   UNL     1       9.277   5.774   5.529  0.00  0.00    +0.007 A 
ATOM     25  C   UNL     1       8.521   7.425   7.124  0.00  0.00    +0.007 A 
ATOM     26  C   UNL     1       9.778   4.995   6.573  0.00  0.00    +0.046 A 
ATOM     27  C   UNL     1       9.022   6.646   8.167  0.00  0.00    +0.046 A 
ATOM     28  C   UNL     1       9.650   5.431   7.892  0.00  0.00    +0.120 A 
BRANCH  28   4
ATOM      4  O   UNL     1      10.139   4.672   8.910  0.00  0.00    -0.495 OA
ATOM     29  C   UNL     1       9.315   4.527  10.065  0.00  0.00    +0.277 C 
ENDBRANCH  28   4
ENDBRANCH  22  23
ENDBRANCH  19  22
TORSDOF 9
ENDMDL
MODEL 6
REMARK VINA RESULT:      -5.6     18.483     21.111
REMARK  Name = 28959709
REMARK  10 active torsions:
REMARK  status: ('A' for Active; 'I' for Inactive)
REMARK    1  A    between atoms: O_2  and  C_21
REMARK    2  A    between atoms: O_4  and  C_28
REMARK    3  A    between atoms: O_4  and  C_29
REMARK    4  A    between atoms: N_6  and  C_13
REMARK    5  A    between atoms: C_7  and  C_10
REMARK    6  A    between atoms: C_8  and  C_14
REMARK    7  A    between atoms: C_10  and  C_13
REMARK    8  A    between atoms: C_14  and  C_21
REMARK    9  A    between atoms: C_19  and  C_22
REMARK   10  A    between atoms: C_22  and  C_23
REMARK                            x       y       z     vdW  Elec       q    Type
REMARK                         _______ _______ _______ _____ _____    ______ ____
ROOT
ATOM      1  O   UNL     1      10.234   7.234   2.309  0.00  0.00    -0.275 OA
ATOM      5  N   UNL     1      10.918   5.115   1.647  0.00  0.00    -0.301 N 
ATOM      7  C   UNL     1      12.532   3.589   0.534  0.00  0.00    +0.011 C 
ATOM      8  C   UNL     1      11.561   3.499  -0.670  0.00  0.00    +0.006 C 
ATOM      9  C   UNL     1      11.746   3.915   1.817  0.00  0.00    +0.111 C 
ATOM     11  C   UNL     1      10.679   4.754  -0.780  0.00  0.00    +0.023 C 
ATOM     12  C   UNL     1       9.967   5.049   0.537  0.00  0.00    +0.108 C 
ATOM     19  C   UNL     1      10.960   6.248   2.458  0.00  0.00    +0.220 C 
ENDROOT
BRANCH   7  10
ATOM     10  C   UNL     1      13.674   4.595   0.341  0.00  0.00    +0.020 C 
BRANCH  10  13
ATOM     13  C   UNL     1      15.004   3.998   0.778  0.00  0.00    +0.085 C 
BRANCH  13   6
ATOM      6  N   UNL     1      16.094   4.598   0.009  0.00  0.00    -0.302 NA
ATOM     15  C   UNL     1      16.138   6.051   0.228  0.00  0.00    +0.084 C 
ATOM     16  C   UNL     1      15.953   4.280  -1.419  0.00  0.00    +0.084 C 
ATOM     17  C   UNL     1      17.303   6.689  -0.530  0.00  0.00    +0.015 C 
ATOM     18  C   UNL     1      17.113   4.860  -2.230  0.00  0.00    +0.015 C 
ATOM     20  C   UNL     1      17.242   6.365  -2.018  0.00  0.00    +0.002 C 
ENDBRANCH  13   6
ENDBRANCH  10  13
ENDBRANCH   7  10
BRANCH   8  14
ATOM     14  C   UNL     1      12.272   3.222  -1.995  0.00  0.00    +0.124 C 
BRANCH  14  21
ATOM      3  O   UNL     1      11.221   3.187  -4.195  0.00  0.00    -0.251 OA
ATOM     21  C   UNL     1      11.310   2.758  -3.054  0.00  0.00    +0.305 C 
BRANCH  21   2
ATOM      2  O   UNL     1      10.527   1.765  -2.557  0.00  0.00    -0.481 OA
ATOM     30  H   UNL     1      10.969   0.891  -2.610  0.00  0.00    +0.295 HD
ENDBRANCH  21   2
ENDBRANCH  14  21
ENDBRANCH   8  14
BRANCH  19  22
ATOM     22  C   UNL     1      11.970   6.239   3.578  0.00  0.00    +0.131 C 
BRANCH  22  23
ATOM     23  C   UNL     1      11.288   6.088   4.902  0.00  0.00    -0.038 A 
ATOM     24  C   UNL     1      11.609   6.947   5.954  0.00  0.00    +0.007 A 
ATOM     25  C   UNL     1      10.331   5.090   5.084  0.00  0.00    +0.007 A 
ATOM     26  C   UNL     1      10.972   6.808   7.186  0.00  0.00    +0.046 A 
ATOM     27  C   UNL     1       9.694   4.951   6.317  0.00  0.00    +0.046 A 
ATOM     28  C   UNL     1      10.015   5.810   7.368  0.00  0.00    +0.120 A 
BRANCH  28   4
ATOM      4  O   UNL     1       9.392   5.675   8.571  0.00  0.00    -0.495 OA
ATOM     29  C   UNL     1       9.446   4.390   9.189  0.00  0.00    +0.277 C 
ENDBRANCH  28   4
ENDBRANCH  22  23
ENDBRANCH  19  22
TORSDOF 9
ENDMDL
MODEL 7
REMARK VINA RESULT:      -5.5      5.573     11.172
REMARK  Name = 28959709
REMARK  10 active torsions:
REMARK  status: ('A' for Active; 'I' for Inactive)
REMARK    1  A    between atoms: O_2  and  C_21
REMARK    2  A    between atoms: O_4  and  C_28
REMARK    3  A    between atoms: O_4  and  C_29
REMARK    4  A    between atoms: N_6  and  C_13
REMARK    5  A    between atoms: C_7  and  C_10
REMARK    6  A    between atoms: C_8  and  C_14
REMARK    7  A    between atoms: C_10  and  C_13
REMARK    8  A    between atoms: C_14  and  C_21
REMARK    9  A    between atoms: C_19  and  C_22
REMARK   10  A    between atoms: C_22  and  C_23
REMARK                            x       y       z     vdW  Elec       q    Type
REMARK                         _______ _______ _______ _____ _____    ______ ____
ROOT
ATOM      1  O   UNL     1      20.634   8.628  21.639  0.00  0.00    -0.275 OA
ATOM      5  N   UNL     1      21.521   6.727  20.643  0.00  0.00    -0.301 N 
ATOM      7  C   UNL     1      22.738   4.564  20.763  0.00  0.00    +0.011 C 
ATOM      8  C   UNL     1      23.988   5.277  20.189  0.00  0.00    +0.006 C 
ATOM      9  C   UNL     1      21.463   5.298  20.310  0.00  0.00    +0.111 C 
ATOM     11  C   UNL     1      23.983   6.779  20.519  0.00  0.00    +0.023 C 
ATOM     12  C   UNL     1      22.674   7.437  20.089  0.00  0.00    +0.108 C 
ATOM     19  C   UNL     1      20.574   7.420  21.395  0.00  0.00    +0.220 C 
ENDROOT
BRANCH   7  10
ATOM     10  C   UNL     1      22.751   4.414  22.289  0.00  0.00    +0.020 C 
BRANCH  10  13
ATOM     13  C   UNL     1      22.300   3.020  22.702  0.00  0.00    +0.085 C 
BRANCH  13   6
ATOM      6  N   UNL     1      23.466   2.175  22.956  0.00  0.00    -0.302 NA
ATOM     15  C   UNL     1      24.561   2.969  23.531  0.00  0.00    +0.084 C 
ATOM     16  C   UNL     1      23.891   1.500  21.721  0.00  0.00    +0.084 C 
ATOM     17  C   UNL     1      25.772   2.091  23.849  0.00  0.00    +0.015 C 
ATOM     18  C   UNL     1      25.081   0.574  21.980  0.00  0.00    +0.015 C 
ATOM     20  C   UNL     1      26.244   1.328  22.617  0.00  0.00    +0.002 C 
ENDBRANCH  13   6
ENDBRANCH  10  13
ENDBRANCH   7  10
BRANCH   8  14
ATOM     14  C   UNL     1      25.303   4.633  20.631  0.00  0.00    +0.124 C 
BRANCH  14  21
ATOM      3  O   UNL     1      26.942   3.203  19.530  0.00  0.00    -0.251 OA
ATOM     21  C   UNL     1      25.806   3.645  19.614  0.00  0.00    +0.305 C 
BRANCH  21   2
ATOM      2  O   UNL     1      24.796   3.299  18.775  0.00  0.00    -0.481 OA
ATOM     30  H   UNL     1      24.192   4.052  18.599  0.00  0.00    +0.295 HD
ENDBRANCH  21   2
ENDBRANCH  14  21
ENDBRANCH   8  14
BRANCH  19  22
ATOM     22  C   UNL     1      19.418   6.616  21.934  0.00  0.00    +0.131 C 
BRANCH  22  23
ATOM     23  C   UNL     1      18.171   6.897  21.154  0.00  0.00    -0.038 A 
ATOM     24  C   UNL     1      17.367   7.986  21.493  0.00  0.00    +0.007 A 
ATOM     25  C   UNL     1      17.815   6.071  20.088  0.00  0.00    +0.007 A 
ATOM     26  C   UNL     1      16.207   8.249  20.764  0.00  0.00    +0.046 A 
ATOM     27  C   UNL     1      16.655   6.334  19.361  0.00  0.00    +0.046 A 
ATOM     28  C   UNL     1      15.851   7.423  19.698  0.00  0.00    +0.120 A 
BRANCH  28   4
ATOM      4  O   UNL     1      14.719   7.679  18.987  0.00  0.00    -0.495 OA
ATOM     29  C   UNL     1      13.546   6.953  19.349  0.00  0.00    +0.277 C 
ENDBRANCH  28   4
ENDBRANCH  22  23
ENDBRANCH  19  22
TORSDOF 9
ENDMDL
MODEL 8
REMARK VINA RESULT:      -5.5     17.559     20.305
REMARK  Name = 28959709
REMARK  10 active torsions:
REMARK  status: ('A' for Active; 'I' for Inactive)
REMARK    1  A    between atoms: O_2  and  C_21
REMARK    2  A    between atoms: O_4  and  C_28
REMARK    3  A    between atoms: O_4  and  C_29
REMARK    4  A    between atoms: N_6  and  C_13
REMARK    5  A    between atoms: C_7  and  C_10
REMARK    6  A    between atoms: C_8  and  C_14
REMARK    7  A    between atoms: C_10  and  C_13
REMARK    8  A    between atoms: C_14  and  C_21
REMARK    9  A    between atoms: C_19  and  C_22
REMARK   10  A    between atoms: C_22  and  C_23
REMARK                            x       y       z     vdW  Elec       q    Type
REMARK                         _______ _______ _______ _____ _____    ______ ____
ROOT
ATOM      1  O   UNL     1       9.788   3.957   1.134  0.00  0.00    -0.275 OA
ATOM      5  N   UNL     1      12.096   3.705   1.061  0.00  0.00    -0.301 N 
ATOM      7  C   UNL     1      14.397   4.644   1.052  0.00  0.00    +0.011 C 
ATOM      8  C   UNL     1      14.460   4.379  -0.473  0.00  0.00    +0.006 C 
ATOM      9  C   UNL     1      13.411   3.664   1.714  0.00  0.00    +0.111 C 
ATOM     11  C   UNL     1      13.058   4.381  -1.106  0.00  0.00    +0.023 C 
ATOM     12  C   UNL     1      12.118   3.426  -0.375  0.00  0.00    +0.108 C 
ATOM     19  C   UNL     1      10.883   3.953   1.702  0.00  0.00    +0.220 C 
ENDROOT
BRANCH   7  10
ATOM     10  C   UNL     1      14.036   6.089   1.419  0.00  0.00    +0.020 C 
BRANCH  10  13
ATOM     13  C   UNL     1      15.136   6.729   2.254  0.00  0.00    +0.085 C 
BRANCH  13   6
ATOM      6  N   UNL     1      14.716   6.808   3.653  0.00  0.00    -0.302 NA
ATOM     15  C   UNL     1      13.338   7.313   3.748  0.00  0.00    +0.084 C 
ATOM     16  C   UNL     1      15.644   7.650   4.421  0.00  0.00    +0.084 C 
ATOM     17  C   UNL     1      12.865   7.356   5.202  0.00  0.00    +0.015 C 
ATOM     18  C   UNL     1      15.246   7.705   5.897  0.00  0.00    +0.015 C 
ATOM     20  C   UNL     1      13.808   8.183   6.068  0.00  0.00    +0.002 C 
ENDBRANCH  13   6
ENDBRANCH  10  13
ENDBRANCH   7  10
BRANCH   8  14
ATOM     14  C   UNL     1      15.387   5.343  -1.213  0.00  0.00    +0.124 C 
BRANCH  14  21
ATOM      3  O   UNL     1      17.389   3.954  -1.287  0.00  0.00    -0.251 OA
ATOM     21  C   UNL     1      16.835   5.002  -0.990  0.00  0.00    +0.305 C 
BRANCH  21   2
ATOM      2  O   UNL     1      17.465   6.047  -0.395  0.00  0.00    -0.481 OA
ATOM     30  H   UNL     1      18.423   6.065  -0.607  0.00  0.00    +0.295 HD
ENDBRANCH  21   2
ENDBRANCH  14  21
ENDBRANCH   8  14
BRANCH  19  22
ATOM     22  C   UNL     1      10.946   4.236   3.181  0.00  0.00    +0.131 C 
BRANCH  22  23
ATOM     23  C   UNL     1      10.101   5.421   3.529  0.00  0.00    -0.038 A 
ATOM     24  C   UNL     1       9.424   5.462   4.748  0.00  0.00    +0.007 A 
ATOM     25  C   UNL     1       9.992   6.486   2.635  0.00  0.00    +0.007 A 
ATOM     26  C   UNL     1       8.639   6.568   5.073  0.00  0.00    +0.046 A 
ATOM     27  C   UNL     1       9.206   7.592   2.960  0.00  0.00    +0.046 A 
ATOM     28  C   UNL     1       8.530   7.633   4.179  0.00  0.00    +0.120 A 
BRANCH  28   4
ATOM      4  O   UNL     1       7.765   8.712   4.496  0.00  0.00    -0.495 OA
ATOM     29  C   UNL     1       8.294   9.624   5.457  0.00  0.00    +0.277 C 
ENDBRANCH  28   4
ENDBRANCH  22  23
ENDBRANCH  19  22
TORSDOF 9
ENDMDL
MODEL 9
REMARK VINA RESULT:      -5.4      3.511      6.855
REMARK  Name = 28959709
REMARK  10 active torsions:
REMARK  status: ('A' for Active; 'I' for Inactive)
REMARK    1  A    between atoms: O_2  and  C_21
REMARK    2  A    between atoms: O_4  and  C_28
REMARK    3  A    between atoms: O_4  and  C_29
REMARK    4  A    between atoms: N_6  and  C_13
REMARK    5  A    between atoms: C_7  and  C_10
REMARK    6  A    between atoms: C_8  and  C_14
REMARK    7  A    between atoms: C_10  and  C_13
REMARK    8  A    between atoms: C_14  and  C_21
REMARK    9  A    between atoms: C_19  and  C_22
REMARK   10  A    between atoms: C_22  and  C_23
REMARK                            x       y       z     vdW  Elec       q    Type
REMARK                         _______ _______ _______ _____ _____    ______ ____
ROOT
ATOM      1  O   UNL     1      21.597   7.403  20.220  0.00  0.00    -0.275 OA
ATOM      5  N   UNL     1      19.604   7.741  21.364  0.00  0.00    -0.301 N 
ATOM      7  C   UNL     1      17.128   7.940  21.427  0.00  0.00    +0.011 C 
ATOM      8  C   UNL     1      17.291   9.477  21.540  0.00  0.00    +0.006 C 
ATOM      9  C   UNL     1      18.376   7.239  21.993  0.00  0.00    +0.111 C 
ATOM     11  C   UNL     1      18.612   9.953  20.914  0.00  0.00    +0.023 C 
ATOM     12  C   UNL     1      19.803   9.186  21.482  0.00  0.00    +0.108 C 
ATOM     19  C   UNL     1      20.560   6.958  20.718  0.00  0.00    +0.220 C 
ENDROOT
BRANCH   7  10
ATOM     10  C   UNL     1      16.841   7.447  20.003  0.00  0.00    +0.020 C 
BRANCH  10  13
ATOM     13  C   UNL     1      15.818   6.319  20.014  0.00  0.00    +0.085 C 
BRANCH  13   6
ATOM      6  N   UNL     1      14.531   6.811  19.525  0.00  0.00    -0.302 NA
ATOM     15  C   UNL     1      14.730   7.909  18.569  0.00  0.00    +0.084 C 
ATOM     16  C   UNL     1      13.681   7.233  20.648  0.00  0.00    +0.084 C 
ATOM     17  C   UNL     1      13.395   8.404  18.010  0.00  0.00    +0.015 C 
ATOM     18  C   UNL     1      12.312   7.705  20.156  0.00  0.00    +0.015 C 
ATOM     20  C   UNL     1      12.446   8.821  19.127  0.00  0.00    +0.002 C 
ENDBRANCH  13   6
ENDBRANCH  10  13
ENDBRANCH   7  10
BRANCH   8  14
ATOM     14  C   UNL     1      16.108  10.251  20.956  0.00  0.00    +0.124 C 
BRANCH  14  21
ATOM      3  O   UNL     1      13.859  10.670  21.798  0.00  0.00    -0.251 OA
ATOM     21  C   UNL     1      15.056  10.523  21.996  0.00  0.00    +0.305 C 
BRANCH  21   2
ATOM      2  O   UNL     1      15.632  10.584  23.224  0.00  0.00    -0.481 OA
ATOM     30  H   UNL     1      15.400  11.413  23.695  0.00  0.00    +0.295 HD
ENDBRANCH  21   2
ENDBRANCH  14  21
ENDBRANCH   8  14
BRANCH  19  22
ATOM     22  C   UNL     1      20.279   5.480  20.636  0.00  0.00    +0.131 C 
BRANCH  22  23
ATOM     23  C   UNL     1      21.298   4.705  21.411  0.00  0.00    -0.038 A 
ATOM     24  C   UNL     1      21.680   5.133  22.683  0.00  0.00    +0.007 A 
ATOM     25  C   UNL     1      21.864   3.554  20.863  0.00  0.00    +0.007 A 
ATOM     26  C   UNL     1      22.627   4.409  23.407  0.00  0.00    +0.046 A 
ATOM     27  C   UNL     1      22.812   2.831  21.587  0.00  0.00    +0.046 A 
ATOM     28  C   UNL     1      23.193   3.258  22.858  0.00  0.00    +0.120 A 
BRANCH  28   4
ATOM      4  O   UNL     1      24.118   2.552  23.565  0.00  0.00    -0.495 OA
ATOM     29  C   UNL     1      23.701   1.301  24.111  0.00  0.00    +0.277 C 
ENDBRANCH  28   4
ENDBRANCH  22  23
ENDBRANCH  19  22
TORSDOF 9
ENDMDL
MODEL 10
REMARK VINA RESULT:      -5.4     22.632     25.378
REMARK  Name = 28959709
REMARK  10 active torsions:
REMARK  status: ('A' for Active; 'I' for Inactive)
REMARK    1  A    between atoms: O_2  and  C_21
REMARK    2  A    between atoms: O_4  and  C_28
REMARK    3  A    between atoms: O_4  and  C_29
REMARK    4  A    between atoms: N_6  and  C_13
REMARK    5  A    between atoms: C_7  and  C_10
REMARK    6  A    between atoms: C_8  and  C_14
REMARK    7  A    between atoms: C_10  and  C_13
REMARK    8  A    between atoms: C_14  and  C_21
REMARK    9  A    between atoms: C_19  and  C_22
REMARK   10  A    between atoms: C_22  and  C_23
REMARK                            x       y       z     vdW  Elec       q    Type
REMARK                         _______ _______ _______ _____ _____    ______ ____
ROOT
ATOM      1  O   UNL     1      -0.490  12.201   3.086  0.00  0.00    -0.275 OA
ATOM      5  N   UNL     1      -0.966  10.837   4.905  0.00  0.00    -0.301 N 
ATOM      7  C   UNL     1      -2.475   9.306   6.152  0.00  0.00    +0.011 C 
ATOM      8  C   UNL     1      -2.796  10.472   7.121  0.00  0.00    +0.006 C 
ATOM      9  C   UNL     1      -1.082   9.513   5.529  0.00  0.00    +0.111 C 
ATOM     11  C   UNL     1      -2.613  11.839   6.441  0.00  0.00    +0.023 C 
ATOM     12  C   UNL     1      -1.232  11.961   5.803  0.00  0.00    +0.108 C 
ATOM     19  C   UNL     1      -0.606  11.076   3.580  0.00  0.00    +0.220 C 
ENDROOT
BRANCH   7  10
ATOM     10  C   UNL     1      -3.524   9.103   5.052  0.00  0.00    +0.020 C 
BRANCH  10  13
ATOM     13  C   UNL     1      -4.047   7.674   5.057  0.00  0.00    +0.085 C 
BRANCH  13   6
ATOM      6  N   UNL     1      -5.505   7.678   4.951  0.00  0.00    -0.302 NA
ATOM     15  C   UNL     1      -6.008   6.317   4.715  0.00  0.00    +0.084 C 
ATOM     16  C   UNL     1      -5.941   8.596   3.889  0.00  0.00    +0.084 C 
ATOM     17  C   UNL     1      -7.536   6.295   4.649  0.00  0.00    +0.015 C 
ATOM     18  C   UNL     1      -7.467   8.649   3.797  0.00  0.00    +0.015 C 
ATOM     20  C   UNL     1      -8.060   7.259   3.592  0.00  0.00    +0.002 C 
ENDBRANCH  13   6
ENDBRANCH  10  13
ENDBRANCH   7  10
BRANCH   8  14
ATOM     14  C   UNL     1      -4.186  10.365   7.750  0.00  0.00    +0.124 C 
BRANCH  14  21
ATOM      3  O   UNL     1      -4.083  11.860   9.672  0.00  0.00    -0.251 OA
ATOM     21  C   UNL     1      -4.165  10.733   9.208  0.00  0.00    +0.305 C 
BRANCH  21   2
ATOM      2  O   UNL     1      -4.252   9.609   9.964  0.00  0.00    -0.481 OA
ATOM     30  H   UNL     1      -4.982   9.665  10.618  0.00  0.00    +0.295 HD
ENDBRANCH  21   2
ENDBRANCH  14  21
ENDBRANCH   8  14
BRANCH  19  22
ATOM     22  C   UNL     1      -0.352   9.865   2.718  0.00  0.00    +0.131 C 
BRANCH  22  23
ATOM     23  C   UNL     1      -1.325   9.812   1.582  0.00  0.00    -0.038 A 
ATOM     24  C   UNL     1      -2.687  10.000   1.821  0.00  0.00    +0.007 A 
ATOM     25  C   UNL     1      -0.870   9.578   0.285  0.00  0.00    +0.007 A 
ATOM     26  C   UNL     1      -3.593   9.953   0.762  0.00  0.00    +0.046 A 
ATOM     27  C   UNL     1      -1.777   9.531  -0.774  0.00  0.00    +0.046 A 
ATOM     28  C   UNL     1      -3.138   9.719  -0.535  0.00  0.00    +0.120 A 
BRANCH  28   4
ATOM      4  O   UNL     1      -4.022   9.674  -1.569  0.00  0.00    -0.495 OA
ATOM     29  C   UNL     1      -4.583  10.913  -1.998  0.00  0.00    +0.277 C 
ENDBRANCH  28   4
ENDBRANCH  22  23
ENDBRANCH  19  22
TORSDOF 9
ENDMDL
