MODEL 1
REMARK VINA RESULT:      -7.2      0.000      0.000
REMARK  Name = 7144103
REMARK  4 active torsions:
REMARK  status: ('A' for Active; 'I' for Inactive)
REMARK    1  A    between atoms: O_3  and  C_27
REMARK    2  A    between atoms: O_3  and  C_30
REMARK    3  A    between atoms: C_15  and  C_20
REMARK    4  A    between atoms: C_17  and  C_21
REMARK                            x       y       z     vdW  Elec       q    Type
REMARK                         _______ _______ _______ _____ _____    ______ ____
ROOT
ATOM      1  O   UNL     1      10.220   9.211  22.332  0.00  0.00    -0.268 OA
ATOM      2  O   UNL     1      12.417  12.787  19.480  0.00  0.00    -0.268 OA
ATOM      4  N   UNL     1      12.542   9.486  22.188  0.00  0.00    -0.311 N 
ATOM      5  N   UNL     1      14.137  11.755  20.679  0.00  0.00    -0.295 N 
ATOM      8  C   UNL     1      13.706  11.575  23.117  0.00  0.00    +0.027 C 
ATOM      9  C   UNL     1      15.022   9.833  21.985  0.00  0.00    +0.054 C 
ATOM     10  C   UNL     1      14.911  10.659  23.265  0.00  0.00    +0.018 C 
ATOM     11  C   UNL     1      12.450  10.709  22.999  0.00  0.00    +0.130 C 
ATOM     12  C   UNL     1      13.880  12.507  21.906  0.00  0.00    +0.113 C 
ATOM     13  C   UNL     1      15.229  10.775  20.778  0.00  0.00    +0.117 C 
ATOM     14  C   UNL     1      13.781   8.966  21.763  0.00  0.00    +0.034 A 
ATOM     15  C   UNL     1      13.833   7.753  21.153  0.00  0.00    +0.002 A 
ATOM     16  C   UNL     1      11.328   8.810  21.972  0.00  0.00    +0.252 A 
ATOM     17  C   UNL     1      13.330  11.967  19.560  0.00  0.00    +0.266 C 
ATOM     18  C   UNL     1      12.599   7.030  20.909  0.00  0.00    +0.015 A 
ATOM     19  C   UNL     1      11.410   7.510  21.269  0.00  0.00    +0.071 A 
ENDROOT
BRANCH  17  21
ATOM      6  N   UNL     1      12.947   9.942  18.350  0.00  0.00    -0.247 NA
ATOM      7  N   UNL     1      14.581  10.823  16.248  0.00  0.00    -0.259 NA
ATOM     21  C   UNL     1      13.560  11.138  18.370  0.00  0.00    +0.144 A 
ATOM     24  C   UNL     1      14.362  11.575  17.345  0.00  0.00    +0.143 A 
ATOM     28  C   UNL     1      13.166   9.190  17.253  0.00  0.00    +0.131 A 
ATOM     29  C   UNL     1      13.969   9.623  16.221  0.00  0.00    +0.130 A 
ENDBRANCH  17  21
BRANCH  15  20
ATOM     20  C   UNL     1      15.114   7.157  20.713  0.00  0.00    -0.016 A 
ATOM     22  C   UNL     1      15.274   6.765  19.387  0.00  0.00    +0.012 A 
ATOM     23  C   UNL     1      16.148   6.990  21.628  0.00  0.00    +0.012 A 
ATOM     25  C   UNL     1      16.481   6.203  18.973  0.00  0.00    +0.046 A 
ATOM     26  C   UNL     1      17.356   6.428  21.213  0.00  0.00    +0.046 A 
ATOM     27  C   UNL     1      17.522   6.034  19.886  0.00  0.00    +0.120 A 
BRANCH  27   3
ATOM      3  O   UNL     1      18.699   5.484  19.481  0.00  0.00    -0.495 OA
ATOM     30  C   UNL     1      19.757   5.435  20.439  0.00  0.00    +0.277 C 
ENDBRANCH  27   3
ENDBRANCH  15  20
TORSDOF 3
ENDMDL
MODEL 2
REMARK VINA RESULT:      -7.2     13.638     16.659
REMARK  Name = 7144103
REMARK  4 active torsions:
REMARK  status: ('A' for Active; 'I' for Inactive)
REMARK    1  A    between atoms: O_3  and  C_27
REMARK    2  A    between atoms: O_3  and  C_30
REMARK    3  A    between atoms: C_15  and  C_20
REMARK    4  A    between atoms: C_17  and  C_21
REMARK                            x       y       z     vdW  Elec       q    Type
REMARK                         _______ _______ _______ _____ _____    ______ ____
ROOT
ATOM      1  O   UNL     1       7.169   9.236   4.621  0.00  0.00    -0.268 OA
ATOM      2  O   UNL     1      11.298  10.067   7.451  0.00  0.00    -0.268 OA
ATOM      4  N   UNL     1       8.725   7.562   5.138  0.00  0.00    -0.311 N 
ATOM      5  N   UNL     1      11.231   7.766   7.048  0.00  0.00    -0.295 N 
ATOM      8  C   UNL     1       9.036   6.716   7.541  0.00  0.00    +0.027 C 
ATOM      9  C   UNL     1      10.433   5.816   5.727  0.00  0.00    +0.054 C 
ATOM     10  C   UNL     1       9.498   5.431   6.872  0.00  0.00    +0.018 C 
ATOM     11  C   UNL     1       8.232   7.530   6.524  0.00  0.00    +0.130 C 
ATOM     12  C   UNL     1      10.237   7.504   8.089  0.00  0.00    +0.113 C 
ATOM     13  C   UNL     1      11.653   6.578   6.291  0.00  0.00    +0.117 C 
ATOM     14  C   UNL     1       9.719   6.675   4.681  0.00  0.00    +0.034 A 
ATOM     15  C   UNL     1      10.032   6.632   3.360  0.00  0.00    +0.002 A 
ATOM     16  C   UNL     1       8.053   8.449   4.279  0.00  0.00    +0.252 A 
ATOM     17  C   UNL     1      11.654   9.076   6.816  0.00  0.00    +0.266 C 
ATOM     18  C   UNL     1       9.364   7.537   2.444  0.00  0.00    +0.015 A 
ATOM     19  C   UNL     1       8.443   8.409   2.851  0.00  0.00    +0.071 A 
ENDROOT
BRANCH  17  21
ATOM      6  N   UNL     1      12.043   9.482   4.493  0.00  0.00    -0.247 NA
ATOM      7  N   UNL     1      14.813   9.590   4.918  0.00  0.00    -0.259 NA
ATOM     21  C   UNL     1      12.589   9.318   5.710  0.00  0.00    +0.144 A 
ATOM     24  C   UNL     1      13.944   9.369   5.925  0.00  0.00    +0.143 A 
ATOM     28  C   UNL     1      12.912   9.703   3.486  0.00  0.00    +0.131 A 
ATOM     29  C   UNL     1      14.272   9.755   3.695  0.00  0.00    +0.130 A 
ENDBRANCH  17  21
BRANCH  15  20
ATOM     20  C   UNL     1      11.051   5.698   2.831  0.00  0.00    -0.016 A 
ATOM     22  C   UNL     1      12.342   6.155   2.580  0.00  0.00    +0.012 A 
ATOM     23  C   UNL     1      10.712   4.372   2.586  0.00  0.00    +0.012 A 
ATOM     25  C   UNL     1      13.303   5.275   2.082  0.00  0.00    +0.046 A 
ATOM     26  C   UNL     1      11.674   3.492   2.088  0.00  0.00    +0.046 A 
ATOM     27  C   UNL     1      12.968   3.944   1.835  0.00  0.00    +0.120 A 
BRANCH  27   3
ATOM      3  O   UNL     1      13.906   3.086   1.348  0.00  0.00    -0.495 OA
ATOM     30  C   UNL     1      15.241   3.578   1.239  0.00  0.00    +0.277 C 
ENDBRANCH  27   3
ENDBRANCH  15  20
TORSDOF 3
ENDMDL
MODEL 3
REMARK VINA RESULT:      -6.7     27.690     29.635
REMARK  Name = 7144103
REMARK  4 active torsions:
REMARK  status: ('A' for Active; 'I' for Inactive)
REMARK    1  A    between atoms: O_3  and  C_27
REMARK    2  A    between atoms: O_3  and  C_30
REMARK    3  A    between atoms: C_15  and  C_20
REMARK    4  A    between atoms: C_17  and  C_21
REMARK                            x       y       z     vdW  Elec       q    Type
REMARK                         _______ _______ _______ _____ _____    ______ ____
ROOT
ATOM      1  O   UNL     1      -6.811 -15.055  17.029  0.00  0.00    -0.268 OA
ATOM      2  O   UNL     1      -8.287 -10.624  19.012  0.00  0.00    -0.268 OA
ATOM      4  N   UNL     1      -5.747 -13.023  16.554  0.00  0.00    -0.311 N 
ATOM      5  N   UNL     1      -6.323 -10.189  17.822  0.00  0.00    -0.295 N 
ATOM      8  C   UNL     1      -4.454 -11.732  18.355  0.00  0.00    +0.027 C 
ATOM      9  C   UNL     1      -4.656 -10.808  16.085  0.00  0.00    +0.054 C 
ATOM     10  C   UNL     1      -3.660 -11.180  17.182  0.00  0.00    +0.018 C 
ATOM     11  C   UNL     1      -5.162 -13.011  17.903  0.00  0.00    +0.130 C 
ATOM     12  C   UNL     1      -5.444 -10.681  18.882  0.00  0.00    +0.113 C 
ATOM     13  C   UNL     1      -5.626  -9.728  16.612  0.00  0.00    +0.117 C 
ATOM     14  C   UNL     1      -5.445 -12.028  15.603  0.00  0.00    +0.034 A 
ATOM     15  C   UNL     1      -5.880 -12.161  14.323  0.00  0.00    +0.002 A 
ATOM     16  C   UNL     1      -6.526 -14.151  16.242  0.00  0.00    +0.252 A 
ATOM     17  C   UNL     1      -7.708 -10.237  17.998  0.00  0.00    +0.266 C 
ATOM     18  C   UNL     1      -6.691 -13.309  13.966  0.00  0.00    +0.015 A 
ATOM     19  C   UNL     1      -7.021 -14.249  14.851  0.00  0.00    +0.071 A 
ENDROOT
BRANCH  17  21
ATOM      6  N   UNL     1      -8.858 -10.753  15.969  0.00  0.00    -0.247 NA
ATOM      7  N   UNL     1      -9.818  -8.124  15.779  0.00  0.00    -0.259 NA
ATOM     21  C   UNL     1      -8.565  -9.814  16.884  0.00  0.00    +0.144 A 
ATOM     24  C   UNL     1      -9.030  -8.525  16.797  0.00  0.00    +0.143 A 
ATOM     28  C   UNL     1      -9.646 -10.352  14.951  0.00  0.00    +0.131 A 
ATOM     29  C   UNL     1     -10.117  -9.061  14.858  0.00  0.00    +0.130 A 
ENDBRANCH  17  21
BRANCH  15  20
ATOM     20  C   UNL     1      -5.565 -11.154  13.285  0.00  0.00    -0.016 A 
ATOM     22  C   UNL     1      -6.456 -10.113  13.039  0.00  0.00    +0.012 A 
ATOM     23  C   UNL     1      -4.381 -11.256  12.561  0.00  0.00    +0.012 A 
ATOM     25  C   UNL     1      -6.158  -9.165  12.061  0.00  0.00    +0.046 A 
ATOM     26  C   UNL     1      -4.084 -10.307  11.582  0.00  0.00    +0.046 A 
ATOM     27  C   UNL     1      -4.973  -9.262  11.332  0.00  0.00    +0.120 A 
BRANCH  27   3
ATOM      3  O   UNL     1      -4.684  -8.337  10.377  0.00  0.00    -0.495 OA
ATOM     30  C   UNL     1      -4.145  -8.820   9.146  0.00  0.00    +0.277 C 
ENDBRANCH  27   3
ENDBRANCH  15  20
TORSDOF 3
ENDMDL
MODEL 4
REMARK VINA RESULT:      -6.6     13.980     17.168
REMARK  Name = 7144103
REMARK  4 active torsions:
REMARK  status: ('A' for Active; 'I' for Inactive)
REMARK    1  A    between atoms: O_3  and  C_27
REMARK    2  A    between atoms: O_3  and  C_30
REMARK    3  A    between atoms: C_15  and  C_20
REMARK    4  A    between atoms: C_17  and  C_21
REMARK                            x       y       z     vdW  Elec       q    Type
REMARK                         _______ _______ _______ _____ _____    ______ ____
ROOT
ATOM      1  O   UNL     1      10.638   6.009   8.457  0.00  0.00    -0.268 OA
ATOM      2  O   UNL     1      10.498  10.615   6.332  0.00  0.00    -0.268 OA
ATOM      4  N   UNL     1      11.684   6.512   6.423  0.00  0.00    -0.311 N 
ATOM      5  N   UNL     1      11.936   9.327   5.014  0.00  0.00    -0.295 N 
ATOM      8  C   UNL     1      13.681   8.119   6.302  0.00  0.00    +0.027 C 
ATOM      9  C   UNL     1      12.779   7.118   4.243  0.00  0.00    +0.054 C 
ATOM     10  C   UNL     1      14.054   7.328   5.058  0.00  0.00    +0.018 C 
ATOM     11  C   UNL     1      12.715   7.278   7.139  0.00  0.00    +0.130 C 
ATOM     12  C   UNL     1      13.075   9.479   5.917  0.00  0.00    +0.113 C 
ATOM     13  C   UNL     1      12.196   8.489   3.834  0.00  0.00    +0.117 C 
ATOM     14  C   UNL     1      11.735   6.320   5.027  0.00  0.00    +0.034 A 
ATOM     15  C   UNL     1      10.854   5.478   4.428  0.00  0.00    +0.002 A 
ATOM     16  C   UNL     1      10.721   5.887   7.234  0.00  0.00    +0.252 A 
ATOM     17  C   UNL     1      10.713   9.915   5.344  0.00  0.00    +0.266 C 
ATOM     18  C   UNL     1       9.843   4.820   5.233  0.00  0.00    +0.015 A 
ATOM     19  C   UNL     1       9.749   5.007   6.548  0.00  0.00    +0.071 A 
ENDROOT
BRANCH  17  21
ATOM      6  N   UNL     1       8.859   8.556   4.692  0.00  0.00    -0.247 NA
ATOM      7  N   UNL     1       8.197  10.345   2.637  0.00  0.00    -0.259 NA
ATOM     21  C   UNL     1       9.566   9.674   4.460  0.00  0.00    +0.144 A 
ATOM     24  C   UNL     1       9.248  10.554   3.455  0.00  0.00    +0.143 A 
ATOM     28  C   UNL     1       7.808   8.346   3.874  0.00  0.00    +0.131 A 
ATOM     29  C   UNL     1       7.484   9.225   2.865  0.00  0.00    +0.130 A 
ENDBRANCH  17  21
BRANCH  15  20
ATOM     20  C   UNL     1      10.886   5.226   2.970  0.00  0.00    -0.016 A 
ATOM     22  C   UNL     1      11.668   4.191   2.465  0.00  0.00    +0.012 A 
ATOM     23  C   UNL     1      10.137   6.027   2.114  0.00  0.00    +0.012 A 
ATOM     25  C   UNL     1      11.697   3.953   1.091  0.00  0.00    +0.046 A 
ATOM     26  C   UNL     1      10.168   5.789   0.739  0.00  0.00    +0.046 A 
ATOM     27  C   UNL     1      10.948   4.753   0.228  0.00  0.00    +0.120 A 
BRANCH  27   3
ATOM      3  O   UNL     1      10.979   4.522  -1.113  0.00  0.00    -0.495 OA
ATOM     30  C   UNL     1      11.722   3.387  -1.559  0.00  0.00    +0.277 C 
ENDBRANCH  27   3
ENDBRANCH  15  20
TORSDOF 3
ENDMDL
MODEL 5
REMARK VINA RESULT:      -6.6     13.581     17.224
REMARK  Name = 7144103
REMARK  4 active torsions:
REMARK  status: ('A' for Active; 'I' for Inactive)
REMARK    1  A    between atoms: O_3  and  C_27
REMARK    2  A    between atoms: O_3  and  C_30
REMARK    3  A    between atoms: C_15  and  C_20
REMARK    4  A    between atoms: C_17  and  C_21
REMARK                            x       y       z     vdW  Elec       q    Type
REMARK                         _______ _______ _______ _____ _____    ______ ____
ROOT
ATOM      1  O   UNL     1       9.069  10.350   1.641  0.00  0.00    -0.268 OA
ATOM      2  O   UNL     1      13.300   7.687   0.773  0.00  0.00    -0.268 OA
ATOM      4  N   UNL     1      10.410   9.484   3.355  0.00  0.00    -0.311 N 
ATOM      5  N   UNL     1      13.186   8.003   3.086  0.00  0.00    -0.295 N 
ATOM      8  C   UNL     1      12.788  10.356   3.769  0.00  0.00    +0.027 C 
ATOM      9  C   UNL     1      11.891   8.524   5.144  0.00  0.00    +0.054 C 
ATOM     10  C   UNL     1      12.547   9.902   5.200  0.00  0.00    +0.018 C 
ATOM     11  C   UNL     1      11.433  10.502   3.072  0.00  0.00    +0.130 C 
ATOM     12  C   UNL     1      13.708   9.367   3.035  0.00  0.00    +0.113 C 
ATOM     13  C   UNL     1      12.837   7.530   4.434  0.00  0.00    +0.117 C 
ATOM     14  C   UNL     1      10.544   8.570   4.419  0.00  0.00    +0.034 A 
ATOM     15  C   UNL     1       9.509   7.752   4.743  0.00  0.00    +0.002 A 
ATOM     16  C   UNL     1       9.244   9.564   2.573  0.00  0.00    +0.252 A 
ATOM     17  C   UNL     1      13.008   7.289   1.899  0.00  0.00    +0.266 C 
ATOM     18  C   UNL     1       8.292   7.804   3.955  0.00  0.00    +0.015 A 
ATOM     19  C   UNL     1       8.148   8.633   2.922  0.00  0.00    +0.071 A 
ENDROOT
BRANCH  17  21
ATOM      6  N   UNL     1      11.070   5.911   2.140  0.00  0.00    -0.247 NA
ATOM      7  N   UNL     1      12.630   3.587   1.954  0.00  0.00    -0.259 NA
ATOM     21  C   UNL     1      12.403   5.953   1.976  0.00  0.00    +0.144 A 
ATOM     24  C   UNL     1      13.173   4.820   1.885  0.00  0.00    +0.143 A 
ATOM     28  C   UNL     1      10.527   4.679   2.209  0.00  0.00    +0.131 A 
ATOM     29  C   UNL     1      11.293   3.538   2.118  0.00  0.00    +0.130 A 
ENDBRANCH  17  21
BRANCH  15  20
ATOM     20  C   UNL     1       9.595   6.796   5.869  0.00  0.00    -0.016 A 
ATOM     22  C   UNL     1       9.828   5.447   5.613  0.00  0.00    +0.012 A 
ATOM     23  C   UNL     1       9.440   7.250   7.175  0.00  0.00    +0.012 A 
ATOM     25  C   UNL     1       9.909   4.546   6.674  0.00  0.00    +0.046 A 
ATOM     26  C   UNL     1       9.522   6.348   8.236  0.00  0.00    +0.046 A 
ATOM     27  C   UNL     1       9.755   4.996   7.985  0.00  0.00    +0.120 A 
BRANCH  27   3
ATOM      3  O   UNL     1       9.834   4.115   9.020  0.00  0.00    -0.495 OA
ATOM     30  C   UNL     1       9.125   4.450  10.213  0.00  0.00    +0.277 C 
ENDBRANCH  27   3
ENDBRANCH  15  20
TORSDOF 3
ENDMDL
MODEL 6
REMARK VINA RESULT:      -6.5     25.358     28.078
REMARK  Name = 7144103
REMARK  4 active torsions:
REMARK  status: ('A' for Active; 'I' for Inactive)
REMARK    1  A    between atoms: O_3  and  C_27
REMARK    2  A    between atoms: O_3  and  C_30
REMARK    3  A    between atoms: C_15  and  C_20
REMARK    4  A    between atoms: C_17  and  C_21
REMARK                            x       y       z     vdW  Elec       q    Type
REMARK                         _______ _______ _______ _____ _____    ______ ____
ROOT
ATOM      1  O   UNL     1     -10.832  12.809  18.589  0.00  0.00    -0.268 OA
ATOM      2  O   UNL     1     -14.025  11.112  15.029  0.00  0.00    -0.268 OA
ATOM      4  N   UNL     1     -11.233  10.532  18.210  0.00  0.00    -0.311 N 
ATOM      5  N   UNL     1     -12.982   9.224  15.929  0.00  0.00    -0.295 N 
ATOM      8  C   UNL     1     -10.507   9.386  16.032  0.00  0.00    +0.027 C 
ATOM      9  C   UNL     1     -11.713   8.108  17.753  0.00  0.00    +0.054 C 
ATOM     10  C   UNL     1     -10.457   8.127  16.883  0.00  0.00    +0.018 C 
ATOM     11  C   UNL     1     -10.460  10.602  16.961  0.00  0.00    +0.130 C 
ATOM     12  C   UNL     1     -11.761   9.390  15.142  0.00  0.00    +0.113 C 
ATOM     13  C   UNL     1     -12.966   8.078  16.851  0.00  0.00    +0.117 C 
ATOM     14  C   UNL     1     -11.770   9.320  18.687  0.00  0.00    +0.034 A 
ATOM     15  C   UNL     1     -12.340   9.270  19.919  0.00  0.00    +0.002 A 
ATOM     16  C   UNL     1     -11.295  11.726  18.951  0.00  0.00    +0.252 A 
ATOM     17  C   UNL     1     -14.015  10.154  15.801  0.00  0.00    +0.266 C 
ATOM     18  C   UNL     1     -12.426  10.483  20.709  0.00  0.00    +0.015 A 
ATOM     19  C   UNL     1     -11.957  11.651  20.272  0.00  0.00    +0.071 A 
ENDROOT
BRANCH  17  21
ATOM      6  N   UNL     1     -15.120  10.588  17.874  0.00  0.00    -0.247 NA
ATOM      7  N   UNL     1     -17.387   9.171  17.028  0.00  0.00    -0.259 NA
ATOM     21  C   UNL     1     -15.193  10.008  16.664  0.00  0.00    +0.144 A 
ATOM     24  C   UNL     1     -16.299   9.312  16.244  0.00  0.00    +0.143 A 
ATOM     28  C   UNL     1     -16.208  10.447  18.659  0.00  0.00    +0.131 A 
ATOM     29  C   UNL     1     -17.320   9.751  18.242  0.00  0.00    +0.130 A 
ENDBRANCH  17  21
BRANCH  15  20
ATOM     20  C   UNL     1     -12.894   8.013  20.470  0.00  0.00    -0.016 A 
ATOM     22  C   UNL     1     -14.262   7.769  20.394  0.00  0.00    +0.012 A 
ATOM     23  C   UNL     1     -12.043   7.086  21.063  0.00  0.00    +0.012 A 
ATOM     25  C   UNL     1     -14.783   6.584  20.913  0.00  0.00    +0.046 A 
ATOM     26  C   UNL     1     -12.566   5.901  21.583  0.00  0.00    +0.046 A 
ATOM     27  C   UNL     1     -13.935   5.651  21.509  0.00  0.00    +0.120 A 
BRANCH  27   3
ATOM      3  O   UNL     1     -14.445   4.496  22.016  0.00  0.00    -0.495 OA
ATOM     30  C   UNL     1     -15.265   4.604  23.180  0.00  0.00    +0.277 C 
ENDBRANCH  27   3
ENDBRANCH  15  20
TORSDOF 3
ENDMDL
MODEL 7
REMARK VINA RESULT:      -6.3     12.833     15.724
REMARK  Name = 7144103
REMARK  4 active torsions:
REMARK  status: ('A' for Active; 'I' for Inactive)
REMARK    1  A    between atoms: O_3  and  C_27
REMARK    2  A    between atoms: O_3  and  C_30
REMARK    3  A    between atoms: C_15  and  C_20
REMARK    4  A    between atoms: C_17  and  C_21
REMARK                            x       y       z     vdW  Elec       q    Type
REMARK                         _______ _______ _______ _____ _____    ______ ____
ROOT
ATOM      1  O   UNL     1      13.646   6.966   6.560  0.00  0.00    -0.268 OA
ATOM      2  O   UNL     1       9.709   6.563   3.385  0.00  0.00    -0.268 OA
ATOM      4  N   UNL     1      11.451   7.514   7.168  0.00  0.00    -0.311 N 
ATOM      5  N   UNL     1       8.817   7.140   5.467  0.00  0.00    -0.295 N 
ATOM      8  C   UNL     1       9.621   5.724   7.341  0.00  0.00    +0.027 C 
ATOM      9  C   UNL     1       9.075   8.087   7.752  0.00  0.00    +0.054 C 
ATOM     10  C   UNL     1       8.985   6.679   8.339  0.00  0.00    +0.018 C 
ATOM     11  C   UNL     1      11.101   6.086   7.197  0.00  0.00    +0.130 C 
ATOM     12  C   UNL     1       8.882   5.777   5.993  0.00  0.00    +0.113 C 
ATOM     13  C   UNL     1       8.303   8.139   6.415  0.00  0.00    +0.117 C 
ATOM     14  C   UNL     1      10.528   8.514   7.532  0.00  0.00    +0.034 A 
ATOM     15  C   UNL     1      10.937   9.805   7.642  0.00  0.00    +0.002 A 
ATOM     16  C   UNL     1      12.795   7.801   6.871  0.00  0.00    +0.252 A 
ATOM     17  C   UNL     1       9.279   7.401   4.175  0.00  0.00    +0.266 C 
ATOM     18  C   UNL     1      12.316  10.139   7.339  0.00  0.00    +0.015 A 
ATOM     19  C   UNL     1      13.203   9.221   6.960  0.00  0.00    +0.071 A 
ENDROOT
BRANCH  17  21
ATOM      6  N   UNL     1       8.188   9.192   3.031  0.00  0.00    -0.247 NA
ATOM      7  N   UNL     1      10.356  10.902   3.524  0.00  0.00    -0.259 NA
ATOM     21  C   UNL     1       9.278   8.792   3.706  0.00  0.00    +0.144 A 
ATOM     24  C   UNL     1      10.344   9.623   3.950  0.00  0.00    +0.143 A 
ATOM     28  C   UNL     1       8.200  10.472   2.605  0.00  0.00    +0.131 A 
ATOM     29  C   UNL     1       9.264  11.311   2.847  0.00  0.00    +0.130 A 
ENDBRANCH  17  21
BRANCH  15  20
ATOM     20  C   UNL     1      10.009  10.884   8.047  0.00  0.00    -0.016 A 
ATOM     22  C   UNL     1       9.718  11.076   9.394  0.00  0.00    +0.012 A 
ATOM     23  C   UNL     1       9.433  11.698   7.077  0.00  0.00    +0.012 A 
ATOM     25  C   UNL     1       8.844  12.093   9.775  0.00  0.00    +0.046 A 
ATOM     26  C   UNL     1       8.558  12.716   7.459  0.00  0.00    +0.046 A 
ATOM     27  C   UNL     1       8.263  12.913   8.807  0.00  0.00    +0.120 A 
BRANCH  27   3
ATOM      3  O   UNL     1       7.409  13.905   9.180  0.00  0.00    -0.495 OA
ATOM     30  C   UNL     1       6.394  13.567  10.125  0.00  0.00    +0.277 C 
ENDBRANCH  27   3
ENDBRANCH  15  20
TORSDOF 3
ENDMDL
MODEL 8
REMARK VINA RESULT:      -6.0     12.438     15.943
REMARK  Name = 7144103
REMARK  4 active torsions:
REMARK  status: ('A' for Active; 'I' for Inactive)
REMARK    1  A    between atoms: O_3  and  C_27
REMARK    2  A    between atoms: O_3  and  C_30
REMARK    3  A    between atoms: C_15  and  C_20
REMARK    4  A    between atoms: C_17  and  C_21
REMARK                            x       y       z     vdW  Elec       q    Type
REMARK                         _______ _______ _______ _____ _____    ______ ____
ROOT
ATOM      1  O   UNL     1      19.940  -5.061  21.671  0.00  0.00    -0.268 OA
ATOM      2  O   UNL     1      20.674  -1.131  24.796  0.00  0.00    -0.268 OA
ATOM      4  N   UNL     1      18.324  -4.320  23.198  0.00  0.00    -0.311 N 
ATOM      5  N   UNL     1      18.447  -1.784  25.074  0.00  0.00    -0.295 N 
ATOM      8  C   UNL     1      17.191  -2.032  22.947  0.00  0.00    +0.027 C 
ATOM      9  C   UNL     1      16.639  -3.477  24.860  0.00  0.00    +0.054 C 
ATOM     10  C   UNL     1      16.041  -2.683  23.700  0.00  0.00    +0.018 C 
ATOM     11  C   UNL     1      18.075  -3.136  22.362  0.00  0.00    +0.130 C 
ATOM     12  C   UNL     1      17.981  -1.092  23.873  0.00  0.00    +0.113 C 
ATOM     13  C   UNL     1      17.402  -2.520  25.802  0.00  0.00    +0.117 C 
ATOM     14  C   UNL     1      17.577  -4.580  24.364  0.00  0.00    +0.034 A 
ATOM     15  C   UNL     1      17.731  -5.760  25.018  0.00  0.00    +0.002 A 
ATOM     16  C   UNL     1      19.269  -5.230  22.691  0.00  0.00    +0.252 A 
ATOM     17  C   UNL     1      19.803  -1.747  25.407  0.00  0.00    +0.266 C 
ATOM     18  C   UNL     1      18.700  -6.721  24.527  0.00  0.00    +0.015 A 
ATOM     19  C   UNL     1      19.445  -6.491  23.447  0.00  0.00    +0.071 A 
ENDROOT
BRANCH  17  21
ATOM      6  N   UNL     1      20.556  -3.810  26.349  0.00  0.00    -0.247 NA
ATOM      7  N   UNL     1      20.763  -2.639  28.889  0.00  0.00    -0.259 NA
ATOM     21  C   UNL     1      20.253  -2.520  26.571  0.00  0.00    +0.144 A 
ATOM     24  C   UNL     1      20.351  -1.941  27.812  0.00  0.00    +0.143 A 
ATOM     28  C   UNL     1      20.969  -4.509  27.426  0.00  0.00    +0.131 A 
ATOM     29  C   UNL     1      21.070  -3.933  28.673  0.00  0.00    +0.130 A 
ENDBRANCH  17  21
BRANCH  15  20
ATOM     20  C   UNL     1      16.949  -6.086  26.231  0.00  0.00    -0.016 A 
ATOM     22  C   UNL     1      17.378  -5.627  27.474  0.00  0.00    +0.012 A 
ATOM     23  C   UNL     1      15.791  -6.850  26.122  0.00  0.00    +0.012 A 
ATOM     25  C   UNL     1      16.640  -5.934  28.617  0.00  0.00    +0.046 A 
ATOM     26  C   UNL     1      15.054  -7.157  27.267  0.00  0.00    +0.046 A 
ATOM     27  C   UNL     1      15.479  -6.700  28.513  0.00  0.00    +0.120 A 
BRANCH  27   3
ATOM      3  O   UNL     1      14.761  -7.000  29.630  0.00  0.00    -0.495 OA
ATOM     30  C   UNL     1      14.174  -5.908  30.337  0.00  0.00    +0.277 C 
ENDBRANCH  27   3
ENDBRANCH  15  20
TORSDOF 3
ENDMDL
MODEL 9
REMARK VINA RESULT:      -6.0     25.442     28.365
REMARK  Name = 7144103
REMARK  4 active torsions:
REMARK  status: ('A' for Active; 'I' for Inactive)
REMARK    1  A    between atoms: O_3  and  C_27
REMARK    2  A    between atoms: O_3  and  C_30
REMARK    3  A    between atoms: C_15  and  C_20
REMARK    4  A    between atoms: C_17  and  C_21
REMARK                            x       y       z     vdW  Elec       q    Type
REMARK                         _______ _______ _______ _____ _____    ______ ____
ROOT
ATOM      1  O   UNL     1     -12.712  13.020  19.329  0.00  0.00    -0.268 OA
ATOM      2  O   UNL     1     -12.248   9.999  15.279  0.00  0.00    -0.268 OA
ATOM      4  N   UNL     1     -12.294  10.721  19.489  0.00  0.00    -0.311 N 
ATOM      5  N   UNL     1     -11.742   8.682  17.142  0.00  0.00    -0.295 N 
ATOM      8  C   UNL     1     -10.082   9.700  18.682  0.00  0.00    +0.027 C 
ATOM      9  C   UNL     1     -11.850   8.250  19.588  0.00  0.00    +0.054 C 
ATOM     10  C   UNL     1     -10.373   8.621  19.713  0.00  0.00    +0.018 C 
ATOM     11  C   UNL     1     -10.915  10.937  19.026  0.00  0.00    +0.130 C 
ATOM     12  C   UNL     1     -10.375   9.186  17.262  0.00  0.00    +0.113 C 
ATOM     13  C   UNL     1     -12.128   7.703  18.170  0.00  0.00    +0.117 C 
ATOM     14  C   UNL     1     -12.759   9.447  19.873  0.00  0.00    +0.034 A 
ATOM     15  C   UNL     1     -13.985   9.318  20.442  0.00  0.00    +0.002 A 
ATOM     16  C   UNL     1     -13.072  11.883  19.636  0.00  0.00    +0.252 A 
ATOM     17  C   UNL     1     -12.573   9.180  16.137  0.00  0.00    +0.266 C 
ATOM     18  C   UNL     1     -14.818  10.495  20.605  0.00  0.00    +0.015 A 
ATOM     19  C   UNL     1     -14.420  11.706  20.221  0.00  0.00    +0.071 A 
ENDROOT
BRANCH  17  21
ATOM      6  N   UNL     1     -14.234   7.717  15.237  0.00  0.00    -0.247 NA
ATOM      7  N   UNL     1     -16.210   8.870  16.859  0.00  0.00    -0.259 NA
ATOM     21  C   UNL     1     -13.965   8.717  16.093  0.00  0.00    +0.144 A 
ATOM     24  C   UNL     1     -14.928   9.286  16.890  0.00  0.00    +0.143 A 
ATOM     28  C   UNL     1     -15.516   7.300  15.206  0.00  0.00    +0.131 A 
ATOM     29  C   UNL     1     -16.486   7.867  16.003  0.00  0.00    +0.130 A 
ENDBRANCH  17  21
BRANCH  15  20
ATOM     20  C   UNL     1     -14.504   8.005  20.885  0.00  0.00    -0.016 A 
ATOM     22  C   UNL     1     -15.343   7.275  20.047  0.00  0.00    +0.012 A 
ATOM     23  C   UNL     1     -14.152   7.509  22.136  0.00  0.00    +0.012 A 
ATOM     25  C   UNL     1     -15.831   6.038  20.464  0.00  0.00    +0.046 A 
ATOM     26  C   UNL     1     -14.641   6.270  22.552  0.00  0.00    +0.046 A 
ATOM     27  C   UNL     1     -15.481   5.536  21.717  0.00  0.00    +0.120 A 
BRANCH  27   3
ATOM      3  O   UNL     1     -15.959   4.328  22.123  0.00  0.00    -0.495 OA
ATOM     30  C   UNL     1     -15.739   3.968  23.487  0.00  0.00    +0.277 C 
ENDBRANCH  27   3
ENDBRANCH  15  20
TORSDOF 3
ENDMDL
MODEL 10
REMARK VINA RESULT:      -6.0     21.203     24.212
REMARK  Name = 7144103
REMARK  4 active torsions:
REMARK  status: ('A' for Active; 'I' for Inactive)
REMARK    1  A    between atoms: O_3  and  C_27
REMARK    2  A    between atoms: O_3  and  C_30
REMARK    3  A    between atoms: C_15  and  C_20
REMARK    4  A    between atoms: C_17  and  C_21
REMARK                            x       y       z     vdW  Elec       q    Type
REMARK                         _______ _______ _______ _____ _____    ______ ____
ROOT
ATOM      1  O   UNL     1       0.635  11.802   6.528  0.00  0.00    -0.268 OA
ATOM      2  O   UNL     1      -2.296  14.483   3.371  0.00  0.00    -0.268 OA
ATOM      4  N   UNL     1      -0.691  10.818   4.867  0.00  0.00    -0.311 N 
ATOM      5  N   UNL     1      -2.412  12.263   2.649  0.00  0.00    -0.295 N 
ATOM      8  C   UNL     1      -0.200  11.171   2.374  0.00  0.00    +0.027 C 
ATOM      9  C   UNL     1      -2.140   9.827   3.069  0.00  0.00    +0.054 C 
ATOM     10  C   UNL     1      -0.884   9.824   2.199  0.00  0.00    +0.018 C 
ATOM     11  C   UNL     1       0.234  11.308   3.835  0.00  0.00    +0.130 C 
ATOM     12  C   UNL     1      -1.134  12.313   1.941  0.00  0.00    +0.113 C 
ATOM     13  C   UNL     1      -3.086  10.957   2.606  0.00  0.00    +0.117 C 
ATOM     14  C   UNL     1      -1.799  10.007   4.550  0.00  0.00    +0.034 A 
ATOM     15  C   UNL     1      -2.535   9.447   5.545  0.00  0.00    +0.002 A 
ATOM     16  C   UNL     1      -0.328  11.111   6.194  0.00  0.00    +0.252 A 
ATOM     17  C   UNL     1      -2.863  13.392   3.336  0.00  0.00    +0.266 C 
ATOM     18  C   UNL     1      -2.193   9.732   6.925  0.00  0.00    +0.015 A 
ATOM     19  C   UNL     1      -1.172  10.521   7.257  0.00  0.00    +0.071 A 
ENDROOT
BRANCH  17  21
ATOM      6  N   UNL     1      -3.996  12.804   5.356  0.00  0.00    -0.247 NA
ATOM      7  N   UNL     1      -6.463  13.566   4.260  0.00  0.00    -0.259 NA
ATOM     21  C   UNL     1      -4.108  13.285   4.106  0.00  0.00    +0.144 A 
ATOM     24  C   UNL     1      -5.312  13.659   3.563  0.00  0.00    +0.143 A 
ATOM     28  C   UNL     1      -5.147  12.711   6.053  0.00  0.00    +0.131 A 
ATOM     29  C   UNL     1      -6.357  13.085   5.514  0.00  0.00    +0.130 A 
ENDBRANCH  17  21
BRANCH  15  20
ATOM     20  C   UNL     1      -3.691   8.568   5.259  0.00  0.00    -0.016 A 
ATOM     22  C   UNL     1      -4.933   9.130   4.978  0.00  0.00    +0.012 A 
ATOM     23  C   UNL     1      -3.528   7.187   5.274  0.00  0.00    +0.012 A 
ATOM     25  C   UNL     1      -6.022   8.302   4.708  0.00  0.00    +0.046 A 
ATOM     26  C   UNL     1      -4.618   6.358   5.003  0.00  0.00    +0.046 A 
ATOM     27  C   UNL     1      -5.865   6.916   4.721  0.00  0.00    +0.120 A 
BRANCH  27   3
ATOM      3  O   UNL     1      -6.928   6.108   4.459  0.00  0.00    -0.495 OA
ATOM     30  C   UNL     1      -7.852   5.884   5.524  0.00  0.00    +0.277 C 
ENDBRANCH  27   3
ENDBRANCH  15  20
TORSDOF 3
ENDMDL
