MODEL 1
REMARK VINA RESULT:      -7.5      0.000      0.000
REMARK  Name = 51137101
REMARK  6 active torsions:
REMARK  status: ('A' for Active; 'I' for Inactive)
REMARK    1  A    between atoms: N_2  and  C_11
REMARK    2  A    between atoms: N_5  and  C_21
REMARK    3  A    between atoms: N_5  and  C_24
REMARK    4  A    between atoms: N_5  and  C_25
REMARK    5  A    between atoms: C_6  and  C_10
REMARK    6  A    between atoms: C_11  and  C_12
REMARK                            x       y       z     vdW  Elec       q    Type
REMARK                         _______ _______ _______ _____ _____    ______ ____
ROOT
ATOM      2  N   UNL     1      11.890   4.254   1.909  0.00  0.00    -0.297 NA
ATOM      6  C   UNL     1      10.395   5.296   3.385  0.00  0.00    +0.070 C 
ATOM      7  C   UNL     1      11.397   6.333   2.849  0.00  0.00    +0.028 C 
ATOM      8  C   UNL     1      11.024   3.938   3.048  0.00  0.00    +0.096 C 
ATOM      9  C   UNL     1      12.541   5.513   2.270  0.00  0.00    +0.085 C 
ENDROOT
BRANCH   6  10
ATOM      1  F   UNL     1       9.237   4.404  10.500  0.00  0.00    -0.205 F 
ATOM      3  N   UNL     1      10.205   4.399   5.721  0.00  0.00    -0.341 N 
ATOM      4  N   UNL     1       9.594   6.518   5.446  0.00  0.00    -0.232 NA
ATOM     10  C   UNL     1      10.053   5.441   4.849  0.00  0.00    +0.113 A 
ATOM     13  C   UNL     1       9.817   4.832   6.963  0.00  0.00    +0.069 A 
ATOM     14  C   UNL     1       9.441   6.158   6.765  0.00  0.00    +0.089 A 
ATOM     17  C   UNL     1       9.766   4.198   8.205  0.00  0.00    +0.066 A 
ATOM     18  C   UNL     1       8.983   6.911   7.860  0.00  0.00    +0.032 A 
ATOM     22  C   UNL     1       9.308   4.962   9.283  0.00  0.00    +0.125 A 
ATOM     23  C   UNL     1       8.923   6.294   9.116  0.00  0.00    +0.040 A 
ATOM     26  H   UNL     1      10.542   3.473   5.494  0.00  0.00    +0.167 HD
ENDBRANCH   6  10
BRANCH   2  11
ATOM     11  C   UNL     1      12.848   3.194   1.630  0.00  0.00    +0.119 C 
BRANCH  11  12
ATOM     12  C   UNL     1      13.829   3.594   0.560  0.00  0.00    -0.033 A 
ATOM     15  C   UNL     1      13.401   3.742  -0.759  0.00  0.00    +0.007 A 
ATOM     16  C   UNL     1      15.166   3.816   0.888  0.00  0.00    +0.007 A 
ATOM     19  C   UNL     1      14.310   4.112  -1.750  0.00  0.00    +0.023 A 
ATOM     20  C   UNL     1      16.075   4.186  -0.103  0.00  0.00    +0.023 A 
ATOM     21  C   UNL     1      15.647   4.334  -1.422  0.00  0.00    +0.029 A 
BRANCH  21   5
ATOM      5  N   UNL     1      16.567   4.709  -2.423  0.00  0.00    -0.336 N 
ATOM     24  C   UNL     1      17.990   4.527  -2.219  0.00  0.00    +0.129 C 
ATOM     25  C   UNL     1      16.101   5.289  -3.667  0.00  0.00    +0.129 C 
ENDBRANCH  21   5
ENDBRANCH  11  12
ENDBRANCH   2  11
TORSDOF 4
ENDMDL
MODEL 2
REMARK VINA RESULT:      -6.9     28.276     33.598
REMARK  Name = 51137101
REMARK  6 active torsions:
REMARK  status: ('A' for Active; 'I' for Inactive)
REMARK    1  A    between atoms: N_2  and  C_11
REMARK    2  A    between atoms: N_5  and  C_21
REMARK    3  A    between atoms: N_5  and  C_24
REMARK    4  A    between atoms: N_5  and  C_25
REMARK    5  A    between atoms: C_6  and  C_10
REMARK    6  A    between atoms: C_11  and  C_12
REMARK                            x       y       z     vdW  Elec       q    Type
REMARK                         _______ _______ _______ _____ _____    ______ ____
ROOT
ATOM      2  N   UNL     1     -14.863   5.844  22.140  0.00  0.00    -0.297 NA
ATOM      6  C   UNL     1     -15.731   3.941  23.199  0.00  0.00    +0.070 C 
ATOM      7  C   UNL     1     -16.885   4.790  22.640  0.00  0.00    +0.028 C 
ATOM      8  C   UNL     1     -14.516   4.878  23.185  0.00  0.00    +0.096 C 
ATOM      9  C   UNL     1     -16.273   6.158  22.370  0.00  0.00    +0.085 C 
ENDROOT
BRANCH   6  10
ATOM      1  F   UNL     1     -16.507   2.510  30.279  0.00  0.00    -0.205 F 
ATOM      3  N   UNL     1     -15.801   4.049  25.706  0.00  0.00    -0.341 N 
ATOM      4  N   UNL     1     -16.407   2.110  24.805  0.00  0.00    -0.232 NA
ATOM     10  C   UNL     1     -15.990   3.332  24.558  0.00  0.00    +0.113 A 
ATOM     13  C   UNL     1     -16.117   3.235  26.765  0.00  0.00    +0.069 A 
ATOM     14  C   UNL     1     -16.492   2.031  26.175  0.00  0.00    +0.089 A 
ATOM     17  C   UNL     1     -16.106   3.443  28.144  0.00  0.00    +0.066 A 
ATOM     18  C   UNL     1     -16.883   0.960  26.996  0.00  0.00    +0.032 A 
ATOM     22  C   UNL     1     -16.498   2.367  28.946  0.00  0.00    +0.125 A 
ATOM     23  C   UNL     1     -16.880   1.147  28.385  0.00  0.00    +0.040 A 
ATOM     26  H   UNL     1     -15.486   5.008  25.768  0.00  0.00    +0.167 HD
ENDBRANCH   6  10
BRANCH   2  11
ATOM     11  C   UNL     1     -14.018   7.029  22.177  0.00  0.00    +0.119 C 
BRANCH  11  12
ATOM     12  C   UNL     1     -13.453   7.357  20.820  0.00  0.00    -0.033 A 
ATOM     15  C   UNL     1     -14.297   7.800  19.802  0.00  0.00    +0.007 A 
ATOM     16  C   UNL     1     -12.086   7.217  20.581  0.00  0.00    +0.007 A 
ATOM     19  C   UNL     1     -13.774   8.103  18.546  0.00  0.00    +0.023 A 
ATOM     20  C   UNL     1     -11.563   7.520  19.325  0.00  0.00    +0.023 A 
ATOM     21  C   UNL     1     -12.407   7.963  18.307  0.00  0.00    +0.029 A 
BRANCH  21   5
ATOM      5  N   UNL     1     -11.877   8.271  17.037  0.00  0.00    -0.336 N 
ATOM     24  C   UNL     1     -12.758   8.570  15.926  0.00  0.00    +0.129 C 
ATOM     25  C   UNL     1     -10.443   8.286  16.824  0.00  0.00    +0.129 C 
ENDBRANCH  21   5
ENDBRANCH  11  12
ENDBRANCH   2  11
TORSDOF 4
ENDMDL
MODEL 3
REMARK VINA RESULT:      -6.9     23.233     25.668
REMARK  Name = 51137101
REMARK  6 active torsions:
REMARK  status: ('A' for Active; 'I' for Inactive)
REMARK    1  A    between atoms: N_2  and  C_11
REMARK    2  A    between atoms: N_5  and  C_21
REMARK    3  A    between atoms: N_5  and  C_24
REMARK    4  A    between atoms: N_5  and  C_25
REMARK    5  A    between atoms: C_6  and  C_10
REMARK    6  A    between atoms: C_11  and  C_12
REMARK                            x       y       z     vdW  Elec       q    Type
REMARK                         _______ _______ _______ _____ _____    ______ ____
ROOT
ATOM      2  N   UNL     1      -1.955 -10.942  13.741  0.00  0.00    -0.297 NA
ATOM      6  C   UNL     1      -3.027 -10.185  15.684  0.00  0.00    +0.070 C 
ATOM      7  C   UNL     1      -1.643 -10.748  16.046  0.00  0.00    +0.028 C 
ATOM      8  C   UNL     1      -3.302 -10.710  14.268  0.00  0.00    +0.096 C 
ATOM      9  C   UNL     1      -1.226 -11.577  14.839  0.00  0.00    +0.085 C 
ENDROOT
BRANCH   6  10
ATOM      1  F   UNL     1      -9.172 -10.686  19.525  0.00  0.00    -0.205 F 
ATOM      3  N   UNL     1      -5.348  -9.912  16.601  0.00  0.00    -0.341 N 
ATOM      4  N   UNL     1      -4.066 -11.401  17.641  0.00  0.00    -0.232 NA
ATOM     10  C   UNL     1      -4.128 -10.525  16.662  0.00  0.00    +0.113 A 
ATOM     13  C   UNL     1      -6.126 -10.426  17.607  0.00  0.00    +0.069 A 
ATOM     14  C   UNL     1      -5.303 -11.353  18.241  0.00  0.00    +0.089 A 
ATOM     17  C   UNL     1      -7.437 -10.168  18.005  0.00  0.00    +0.066 A 
ATOM     18  C   UNL     1      -5.802 -12.074  19.339  0.00  0.00    +0.032 A 
ATOM     22  C   UNL     1      -7.918 -10.894  19.099  0.00  0.00    +0.125 A 
ATOM     23  C   UNL     1      -7.117 -11.830  19.756  0.00  0.00    +0.040 A 
ATOM     26  H   UNL     1      -5.631  -9.206  15.934  0.00  0.00    +0.167 HD
ENDBRANCH   6  10
BRANCH   2  11
ATOM     11  C   UNL     1      -1.965 -11.760  12.537  0.00  0.00    +0.119 C 
BRANCH  11  12
ATOM     12  C   UNL     1      -2.881 -11.194  11.484  0.00  0.00    -0.033 A 
ATOM     15  C   UNL     1      -3.962 -11.945  11.022  0.00  0.00    +0.007 A 
ATOM     16  C   UNL     1      -2.648  -9.918  10.970  0.00  0.00    +0.007 A 
ATOM     19  C   UNL     1      -4.809 -11.421  10.047  0.00  0.00    +0.023 A 
ATOM     20  C   UNL     1      -3.496  -9.394   9.994  0.00  0.00    +0.023 A 
ATOM     21  C   UNL     1      -4.577 -10.145   9.533  0.00  0.00    +0.029 A 
BRANCH  21   5
ATOM      5  N   UNL     1      -5.434  -9.613   8.548  0.00  0.00    -0.336 N 
ATOM     24  C   UNL     1      -6.410  -8.599   8.892  0.00  0.00    +0.129 C 
ATOM     25  C   UNL     1      -5.356 -10.081   7.178  0.00  0.00    +0.129 C 
ENDBRANCH  21   5
ENDBRANCH  11  12
ENDBRANCH   2  11
TORSDOF 4
ENDMDL
MODEL 4
REMARK VINA RESULT:      -6.7      2.387      3.116
REMARK  Name = 51137101
REMARK  6 active torsions:
REMARK  status: ('A' for Active; 'I' for Inactive)
REMARK    1  A    between atoms: N_2  and  C_11
REMARK    2  A    between atoms: N_5  and  C_21
REMARK    3  A    between atoms: N_5  and  C_24
REMARK    4  A    between atoms: N_5  and  C_25
REMARK    5  A    between atoms: C_6  and  C_10
REMARK    6  A    between atoms: C_11  and  C_12
REMARK                            x       y       z     vdW  Elec       q    Type
REMARK                         _______ _______ _______ _____ _____    ______ ____
ROOT
ATOM      2  N   UNL     1      11.485   5.081   1.555  0.00  0.00    -0.297 NA
ATOM      6  C   UNL     1      10.285   6.092   3.297  0.00  0.00    +0.070 C 
ATOM      7  C   UNL     1      11.497   6.966   2.933  0.00  0.00    +0.028 C 
ATOM      8  C   UNL     1      10.577   4.732   2.651  0.00  0.00    +0.096 C 
ATOM      9  C   UNL     1      12.414   6.052   2.132  0.00  0.00    +0.085 C 
ENDROOT
BRANCH   6  10
ATOM      1  F   UNL     1       9.485   4.068  10.228  0.00  0.00    -0.205 F 
ATOM      3  N   UNL     1      10.250   4.844   5.475  0.00  0.00    -0.341 N 
ATOM      4  N   UNL     1       9.494   6.933   5.546  0.00  0.00    -0.232 NA
ATOM     10  C   UNL     1       9.996   5.992   4.777  0.00  0.00    +0.113 A 
ATOM     13  C   UNL     1       9.888   5.059   6.781  0.00  0.00    +0.069 A 
ATOM     14  C   UNL     1       9.420   6.370   6.798  0.00  0.00    +0.089 A 
ATOM     17  C   UNL     1       9.929   4.245   7.912  0.00  0.00    +0.066 A 
ATOM     18  C   UNL     1       8.961   6.917   8.009  0.00  0.00    +0.032 A 
ATOM     22  C   UNL     1       9.469   4.805   9.108  0.00  0.00    +0.125 A 
ATOM     23  C   UNL     1       8.993   6.117   9.158  0.00  0.00    +0.040 A 
ATOM     26  H   UNL     1      10.636   3.988   5.100  0.00  0.00    +0.167 HD
ENDBRANCH   6  10
BRANCH   2  11
ATOM     11  C   UNL     1      12.167   3.917   1.009  0.00  0.00    +0.119 C 
BRANCH  11  12
ATOM     12  C   UNL     1      11.862   3.725  -0.454  0.00  0.00    -0.033 A 
ATOM     15  C   UNL     1      12.642   2.861  -1.221  0.00  0.00    +0.007 A 
ATOM     16  C   UNL     1      10.798   4.411  -1.040  0.00  0.00    +0.007 A 
ATOM     19  C   UNL     1      12.359   2.684  -2.575  0.00  0.00    +0.023 A 
ATOM     20  C   UNL     1      10.516   4.234  -2.394  0.00  0.00    +0.023 A 
ATOM     21  C   UNL     1      11.296   3.370  -3.161  0.00  0.00    +0.029 A 
BRANCH  21   5
ATOM      5  N   UNL     1      11.008   3.190  -4.531  0.00  0.00    -0.336 N 
ATOM     24  C   UNL     1       9.639   3.037  -4.980  0.00  0.00    +0.129 C 
ATOM     25  C   UNL     1      12.080   3.149  -5.506  0.00  0.00    +0.129 C 
ENDBRANCH  21   5
ENDBRANCH  11  12
ENDBRANCH   2  11
TORSDOF 4
ENDMDL
MODEL 5
REMARK VINA RESULT:      -6.7     18.487     19.681
REMARK  Name = 51137101
REMARK  6 active torsions:
REMARK  status: ('A' for Active; 'I' for Inactive)
REMARK    1  A    between atoms: N_2  and  C_11
REMARK    2  A    between atoms: N_5  and  C_21
REMARK    3  A    between atoms: N_5  and  C_24
REMARK    4  A    between atoms: N_5  and  C_25
REMARK    5  A    between atoms: C_6  and  C_10
REMARK    6  A    between atoms: C_11  and  C_12
REMARK                            x       y       z     vdW  Elec       q    Type
REMARK                         _______ _______ _______ _____ _____    ______ ____
ROOT
ATOM      2  N   UNL     1      18.965   7.255  21.596  0.00  0.00    -0.297 NA
ATOM      6  C   UNL     1      16.883   7.691  20.610  0.00  0.00    +0.070 C 
ATOM      7  C   UNL     1      17.595   9.019  20.915  0.00  0.00    +0.028 C 
ATOM      8  C   UNL     1      17.644   6.643  21.432  0.00  0.00    +0.096 C 
ATOM      9  C   UNL     1      18.693   8.658  21.907  0.00  0.00    +0.085 C 
ENDROOT
BRANCH   6  10
ATOM      1  F   UNL     1      10.030   9.231  22.462  0.00  0.00    -0.205 F 
ATOM      3  N   UNL     1      14.771   8.782  21.416  0.00  0.00    -0.341 N 
ATOM      4  N   UNL     1      14.557   6.703  20.661  0.00  0.00    -0.232 NA
ATOM     10  C   UNL     1      15.397   7.690  20.884  0.00  0.00    +0.113 A 
ATOM     13  C   UNL     1      13.439   8.480  21.546  0.00  0.00    +0.069 A 
ATOM     14  C   UNL     1      13.332   7.177  21.068  0.00  0.00    +0.089 A 
ATOM     17  C   UNL     1      12.353   9.212  22.027  0.00  0.00    +0.066 A 
ATOM     18  C   UNL     1      12.073   6.552  21.061  0.00  0.00    +0.032 A 
ATOM     22  C   UNL     1      11.109   8.575  22.012  0.00  0.00    +0.125 A 
ATOM     23  C   UNL     1      10.969   7.269  21.539  0.00  0.00    +0.040 A 
ATOM     26  H   UNL     1      15.208   9.658  21.670  0.00  0.00    +0.167 HD
ENDBRANCH   6  10
BRANCH   2  11
ATOM     11  C   UNL     1      19.754   6.601  22.629  0.00  0.00    +0.119 C 
BRANCH  11  12
ATOM     12  C   UNL     1      20.913   5.834  22.047  0.00  0.00    -0.033 A 
ATOM     15  C   UNL     1      21.230   5.969  20.696  0.00  0.00    +0.007 A 
ATOM     16  C   UNL     1      21.668   4.989  22.860  0.00  0.00    +0.007 A 
ATOM     19  C   UNL     1      22.302   5.259  20.157  0.00  0.00    +0.023 A 
ATOM     20  C   UNL     1      22.741   4.279  22.322  0.00  0.00    +0.023 A 
ATOM     21  C   UNL     1      23.058   4.414  20.970  0.00  0.00    +0.029 A 
BRANCH  21   5
ATOM      5  N   UNL     1      24.144   3.696  20.427  0.00  0.00    -0.336 N 
ATOM     24  C   UNL     1      24.252   2.265  20.625  0.00  0.00    +0.129 C 
ATOM     25  C   UNL     1      25.170   4.383  19.668  0.00  0.00    +0.129 C 
ENDBRANCH  21   5
ENDBRANCH  11  12
ENDBRANCH   2  11
TORSDOF 4
ENDMDL
MODEL 6
REMARK VINA RESULT:      -6.6      5.652      6.348
REMARK  Name = 51137101
REMARK  6 active torsions:
REMARK  status: ('A' for Active; 'I' for Inactive)
REMARK    1  A    between atoms: N_2  and  C_11
REMARK    2  A    between atoms: N_5  and  C_21
REMARK    3  A    between atoms: N_5  and  C_24
REMARK    4  A    between atoms: N_5  and  C_25
REMARK    5  A    between atoms: C_6  and  C_10
REMARK    6  A    between atoms: C_11  and  C_12
REMARK                            x       y       z     vdW  Elec       q    Type
REMARK                         _______ _______ _______ _____ _____    ______ ____
ROOT
ATOM      2  N   UNL     1      15.943   8.611   5.422  0.00  0.00    -0.297 NA
ATOM      6  C   UNL     1      13.853   7.554   5.325  0.00  0.00    +0.070 C 
ATOM      7  C   UNL     1      13.822   8.833   4.473  0.00  0.00    +0.028 C 
ATOM      8  C   UNL     1      15.102   7.701   6.203  0.00  0.00    +0.096 C 
ATOM      9  C   UNL     1      15.028   9.641   4.931  0.00  0.00    +0.085 C 
ENDROOT
BRANCH   6  10
ATOM      1  F   UNL     1       8.662   4.970   9.701  0.00  0.00    -0.205 F 
ATOM      3  N   UNL     1      12.491   6.206   6.948  0.00  0.00    -0.341 N 
ATOM      4  N   UNL     1      11.507   8.027   6.139  0.00  0.00    -0.232 NA
ATOM     10  C   UNL     1      12.597   7.293   6.125  0.00  0.00    +0.113 A 
ATOM     13  C   UNL     1      11.250   6.242   7.531  0.00  0.00    +0.069 A 
ATOM     14  C   UNL     1      10.656   7.388   7.010  0.00  0.00    +0.089 A 
ATOM     17  C   UNL     1      10.616   5.396   8.441  0.00  0.00    +0.066 A 
ATOM     18  C   UNL     1       9.352   7.725   7.410  0.00  0.00    +0.032 A 
ATOM     22  C   UNL     1       9.320   5.747   8.829  0.00  0.00    +0.125 A 
ATOM     23  C   UNL     1       8.696   6.890   8.323  0.00  0.00    +0.040 A 
ATOM     26  H   UNL     1      13.199   5.500   7.102  0.00  0.00    +0.167 HD
ENDBRANCH   6  10
BRANCH   2  11
ATOM     11  C   UNL     1      17.036   9.167   6.206  0.00  0.00    +0.119 C 
BRANCH  11  12
ATOM     12  C   UNL     1      18.375   8.657   5.742  0.00  0.00    -0.033 A 
ATOM     15  C   UNL     1      19.450   8.614   6.628  0.00  0.00    +0.007 A 
ATOM     16  C   UNL     1      18.539   8.229   4.424  0.00  0.00    +0.007 A 
ATOM     19  C   UNL     1      20.690   8.142   6.197  0.00  0.00    +0.023 A 
ATOM     20  C   UNL     1      19.778   7.758   3.993  0.00  0.00    +0.023 A 
ATOM     21  C   UNL     1      20.854   7.714   4.880  0.00  0.00    +0.029 A 
BRANCH  21   5
ATOM      5  N   UNL     1      22.107   7.235   4.444  0.00  0.00    -0.336 N 
ATOM     24  C   UNL     1      23.329   7.895   4.856  0.00  0.00    +0.129 C 
ATOM     25  C   UNL     1      22.188   6.081   3.571  0.00  0.00    +0.129 C 
ENDBRANCH  21   5
ENDBRANCH  11  12
ENDBRANCH   2  11
TORSDOF 4
ENDMDL
MODEL 7
REMARK VINA RESULT:      -6.5     23.659     25.487
REMARK  Name = 51137101
REMARK  6 active torsions:
REMARK  status: ('A' for Active; 'I' for Inactive)
REMARK    1  A    between atoms: N_2  and  C_11
REMARK    2  A    between atoms: N_5  and  C_21
REMARK    3  A    between atoms: N_5  and  C_24
REMARK    4  A    between atoms: N_5  and  C_25
REMARK    5  A    between atoms: C_6  and  C_10
REMARK    6  A    between atoms: C_11  and  C_12
REMARK                            x       y       z     vdW  Elec       q    Type
REMARK                         _______ _______ _______ _____ _____    ______ ____
ROOT
ATOM      2  N   UNL     1      -2.809 -11.639  12.021  0.00  0.00    -0.297 NA
ATOM      6  C   UNL     1      -2.986 -10.698  14.162  0.00  0.00    +0.070 C 
ATOM      7  C   UNL     1      -1.839 -11.723  14.143  0.00  0.00    +0.028 C 
ATOM      8  C   UNL     1      -3.796 -10.998  12.894  0.00  0.00    +0.096 C 
ATOM      9  C   UNL     1      -2.078 -12.558  12.893  0.00  0.00    +0.085 C 
ENDROOT
BRANCH   6  10
ATOM      1  F   UNL     1      -5.744 -11.589  20.823  0.00  0.00    -0.205 F 
ATOM      3  N   UNL     1      -3.387 -11.308  16.564  0.00  0.00    -0.341 N 
ATOM      4  N   UNL     1      -5.022 -10.180  15.566  0.00  0.00    -0.232 NA
ATOM     10  C   UNL     1      -3.828 -10.710  15.416  0.00  0.00    +0.113 A 
ATOM     13  C   UNL     1      -4.361 -11.154  17.517  0.00  0.00    +0.069 A 
ATOM     14  C   UNL     1      -5.370 -10.447  16.870  0.00  0.00    +0.089 A 
ATOM     17  C   UNL     1      -4.442 -11.560  18.849  0.00  0.00    +0.066 A 
ATOM     18  C   UNL     1      -6.538 -10.118  17.579  0.00  0.00    +0.032 A 
ATOM     22  C   UNL     1      -5.610 -11.223  19.540  0.00  0.00    +0.125 A 
ATOM     23  C   UNL     1      -6.641 -10.516  18.918  0.00  0.00    +0.040 A 
ATOM     26  H   UNL     1      -2.501 -11.779  16.690  0.00  0.00    +0.167 HD
ENDBRANCH   6  10
BRANCH   2  11
ATOM     11  C   UNL     1      -3.426 -12.319  10.892  0.00  0.00    +0.119 C 
BRANCH  11  12
ATOM     12  C   UNL     1      -4.334 -11.401  10.115  0.00  0.00    -0.033 A 
ATOM     15  C   UNL     1      -5.666 -11.754   9.901  0.00  0.00    +0.007 A 
ATOM     16  C   UNL     1      -3.841 -10.199   9.608  0.00  0.00    +0.007 A 
ATOM     19  C   UNL     1      -6.505 -10.905   9.181  0.00  0.00    +0.023 A 
ATOM     20  C   UNL     1      -4.680  -9.350   8.888  0.00  0.00    +0.023 A 
ATOM     21  C   UNL     1      -6.012  -9.703   8.674  0.00  0.00    +0.029 A 
BRANCH  21   5
ATOM      5  N   UNL     1      -6.861  -8.842   7.947  0.00  0.00    -0.336 N 
ATOM     24  C   UNL     1      -7.507  -7.722   8.601  0.00  0.00    +0.129 C 
ATOM     25  C   UNL     1      -7.104  -9.071   6.537  0.00  0.00    +0.129 C 
ENDBRANCH  21   5
ENDBRANCH  11  12
ENDBRANCH   2  11
TORSDOF 4
ENDMDL
MODEL 8
REMARK VINA RESULT:      -6.4      4.347      9.877
REMARK  Name = 51137101
REMARK  6 active torsions:
REMARK  status: ('A' for Active; 'I' for Inactive)
REMARK    1  A    between atoms: N_2  and  C_11
REMARK    2  A    between atoms: N_5  and  C_21
REMARK    3  A    between atoms: N_5  and  C_24
REMARK    4  A    between atoms: N_5  and  C_25
REMARK    5  A    between atoms: C_6  and  C_10
REMARK    6  A    between atoms: C_11  and  C_12
REMARK                            x       y       z     vdW  Elec       q    Type
REMARK                         _______ _______ _______ _____ _____    ______ ____
ROOT
ATOM      2  N   UNL     1      12.277   4.822   1.956  0.00  0.00    -0.297 NA
ATOM      6  C   UNL     1      12.208   3.324   0.153  0.00  0.00    +0.070 C 
ATOM      7  C   UNL     1      13.671   3.581   0.553  0.00  0.00    +0.028 C 
ATOM      8  C   UNL     1      11.416   4.451   0.830  0.00  0.00    +0.096 C 
ATOM      9  C   UNL     1      13.631   4.844   1.402  0.00  0.00    +0.085 C 
ENDROOT
BRANCH   6  10
ATOM      1  F   UNL     1       9.425   2.890  -6.543  0.00  0.00    -0.205 F 
ATOM      3  N   UNL     1      10.694   3.168  -1.843  0.00  0.00    -0.341 N 
ATOM      4  N   UNL     1      12.872   3.232  -2.284  0.00  0.00    -0.232 NA
ATOM     10  C   UNL     1      11.961   3.242  -1.335  0.00  0.00    +0.113 A 
ATOM     13  C   UNL     1      10.794   3.106  -3.210  0.00  0.00    +0.069 A 
ATOM     14  C   UNL     1      12.163   3.148  -3.459  0.00  0.00    +0.089 A 
ATOM     17  C   UNL     1       9.833   3.019  -4.218  0.00  0.00    +0.066 A 
ATOM     18  C   UNL     1      12.618   3.102  -4.788  0.00  0.00    +0.032 A 
ATOM     22  C   UNL     1      10.304   2.974  -5.533  0.00  0.00    +0.125 A 
ATOM     23  C   UNL     1      11.671   3.014  -5.816  0.00  0.00    +0.040 A 
ATOM     26  H   UNL     1       9.835   3.160  -1.309  0.00  0.00    +0.167 HD
ENDBRANCH   6  10
BRANCH   2  11
ATOM     11  C   UNL     1      11.899   6.098   2.545  0.00  0.00    +0.119 C 
BRANCH  11  12
ATOM     12  C   UNL     1      11.318   5.927   3.925  0.00  0.00    -0.033 A 
ATOM     15  C   UNL     1      10.379   4.925   4.166  0.00  0.00    +0.007 A 
ATOM     16  C   UNL     1      11.720   6.771   4.960  0.00  0.00    +0.007 A 
ATOM     19  C   UNL     1       9.841   4.767   5.443  0.00  0.00    +0.023 A 
ATOM     20  C   UNL     1      11.182   6.613   6.237  0.00  0.00    +0.023 A 
ATOM     21  C   UNL     1      10.243   5.611   6.479  0.00  0.00    +0.029 A 
BRANCH  21   5
ATOM      5  N   UNL     1       9.701   5.451   7.771  0.00  0.00    -0.336 N 
ATOM     24  C   UNL     1       9.089   6.573   8.455  0.00  0.00    +0.129 C 
ATOM     25  C   UNL     1       9.755   4.164   8.435  0.00  0.00    +0.129 C 
ENDBRANCH  21   5
ENDBRANCH  11  12
ENDBRANCH   2  11
TORSDOF 4
ENDMDL
MODEL 9
REMARK VINA RESULT:      -6.3     14.284     17.084
REMARK  Name = 51137101
REMARK  6 active torsions:
REMARK  status: ('A' for Active; 'I' for Inactive)
REMARK    1  A    between atoms: N_2  and  C_11
REMARK    2  A    between atoms: N_5  and  C_21
REMARK    3  A    between atoms: N_5  and  C_24
REMARK    4  A    between atoms: N_5  and  C_25
REMARK    5  A    between atoms: C_6  and  C_10
REMARK    6  A    between atoms: C_11  and  C_12
REMARK                            x       y       z     vdW  Elec       q    Type
REMARK                         _______ _______ _______ _____ _____    ______ ____
ROOT
ATOM      2  N   UNL     1      -2.269   9.492   5.313  0.00  0.00    -0.297 NA
ATOM      6  C   UNL     1      -1.366  11.470   6.192  0.00  0.00    +0.070 C 
ATOM      7  C   UNL     1      -0.705  11.159   4.838  0.00  0.00    +0.028 C 
ATOM      8  C   UNL     1      -2.052  10.159   6.600  0.00  0.00    +0.096 C 
ATOM      9  C   UNL     1      -1.026   9.695   4.570  0.00  0.00    +0.085 C 
ENDROOT
BRANCH   6  10
ATOM      1  F   UNL     1       4.324  13.449  10.251  0.00  0.00    -0.205 F 
ATOM      3  N   UNL     1       0.930  11.896   7.113  0.00  0.00    -0.341 N 
ATOM      4  N   UNL     1      -0.763  12.589   8.376  0.00  0.00    -0.232 NA
ATOM     10  C   UNL     1      -0.427  11.998   7.251  0.00  0.00    +0.113 A 
ATOM     13  C   UNL     1       1.507  12.460   8.223  0.00  0.00    +0.069 A 
ATOM     14  C   UNL     1       0.429  12.884   8.995  0.00  0.00    +0.089 A 
ATOM     17  C   UNL     1       2.837  12.628   8.606  0.00  0.00    +0.066 A 
ATOM     18  C   UNL     1       0.675  13.517  10.226  0.00  0.00    +0.032 A 
ATOM     22  C   UNL     1       3.065  13.260   9.832  0.00  0.00    +0.125 A 
ATOM     23  C   UNL     1       2.005  13.697  10.630  0.00  0.00    +0.040 A 
ATOM     26  H   UNL     1       1.423  11.482   6.334  0.00  0.00    +0.167 HD
ENDBRANCH   6  10
BRANCH   2  11
ATOM     11  C   UNL     1      -2.598   8.083   5.468  0.00  0.00    +0.119 C 
BRANCH  11  12
ATOM     12  C   UNL     1      -4.006   7.785   5.024  0.00  0.00    -0.033 A 
ATOM     15  C   UNL     1      -4.802   8.802   4.500  0.00  0.00    +0.007 A 
ATOM     16  C   UNL     1      -4.513   6.490   5.137  0.00  0.00    +0.007 A 
ATOM     19  C   UNL     1      -6.106   8.526   4.089  0.00  0.00    +0.023 A 
ATOM     20  C   UNL     1      -5.817   6.214   4.726  0.00  0.00    +0.023 A 
ATOM     21  C   UNL     1      -6.613   7.232   4.202  0.00  0.00    +0.029 A 
BRANCH  21   5
ATOM      5  N   UNL     1      -7.931   6.951   3.785  0.00  0.00    -0.336 N 
ATOM     24  C   UNL     1      -8.536   5.667   4.078  0.00  0.00    +0.129 C 
ATOM     25  C   UNL     1      -8.695   7.941   3.052  0.00  0.00    +0.129 C 
ENDBRANCH  21   5
ENDBRANCH  11  12
ENDBRANCH   2  11
TORSDOF 4
ENDMDL
MODEL 10
REMARK VINA RESULT:      -6.3     17.126     19.484
REMARK  Name = 51137101
REMARK  6 active torsions:
REMARK  status: ('A' for Active; 'I' for Inactive)
REMARK    1  A    between atoms: N_2  and  C_11
REMARK    2  A    between atoms: N_5  and  C_21
REMARK    3  A    between atoms: N_5  and  C_24
REMARK    4  A    between atoms: N_5  and  C_25
REMARK    5  A    between atoms: C_6  and  C_10
REMARK    6  A    between atoms: C_11  and  C_12
REMARK                            x       y       z     vdW  Elec       q    Type
REMARK                         _______ _______ _______ _____ _____    ______ ____
ROOT
ATOM      2  N   UNL     1      19.289   6.083  20.412  0.00  0.00    -0.297 NA
ATOM      6  C   UNL     1      17.493   7.588  20.324  0.00  0.00    +0.070 C 
ATOM      7  C   UNL     1      18.211   7.721  21.678  0.00  0.00    +0.028 C 
ATOM      8  C   UNL     1      17.996   6.257  19.747  0.00  0.00    +0.096 C 
ATOM      9  C   UNL     1      19.050   6.457  21.806  0.00  0.00    +0.085 C 
ENDROOT
BRANCH   6  10
ATOM      1  F   UNL     1      10.403   8.626  19.133  0.00  0.00    -0.205 F 
ATOM      3  N   UNL     1      15.253   8.173  19.355  0.00  0.00    -0.341 N 
ATOM      4  N   UNL     1      15.224   7.290  21.395  0.00  0.00    -0.232 NA
ATOM     10  C   UNL     1      15.986   7.669  20.393  0.00  0.00    +0.113 A 
ATOM     13  C   UNL     1      13.929   8.116  19.711  0.00  0.00    +0.069 A 
ATOM     14  C   UNL     1      13.938   7.561  20.988  0.00  0.00    +0.089 A 
ATOM     17  C   UNL     1      12.762   8.491  19.046  0.00  0.00    +0.066 A 
ATOM     18  C   UNL     1      12.718   7.361  21.655  0.00  0.00    +0.032 A 
ATOM     22  C   UNL     1      11.557   8.284  19.724  0.00  0.00    +0.125 A 
ATOM     23  C   UNL     1      11.533   7.730  21.006  0.00  0.00    +0.040 A 
ATOM     26  H   UNL     1      15.618   8.526  18.480  0.00  0.00    +0.167 HD
ENDBRANCH   6  10
BRANCH   2  11
ATOM     11  C   UNL     1      19.800   4.726  20.282  0.00  0.00    +0.119 C 
BRANCH  11  12
ATOM     12  C   UNL     1      21.241   4.627  20.710  0.00  0.00    -0.033 A 
ATOM     15  C   UNL     1      22.144   5.629  20.355  0.00  0.00    +0.007 A 
ATOM     16  C   UNL     1      21.672   3.533  21.460  0.00  0.00    +0.007 A 
ATOM     19  C   UNL     1      23.478   5.536  20.750  0.00  0.00    +0.023 A 
ATOM     20  C   UNL     1      23.006   3.441  21.855  0.00  0.00    +0.023 A 
ATOM     21  C   UNL     1      23.909   4.442  21.500  0.00  0.00    +0.029 A 
BRANCH  21   5
ATOM      5  N   UNL     1      25.258   4.349  21.902  0.00  0.00    -0.336 N 
ATOM     24  C   UNL     1      26.325   4.620  20.960  0.00  0.00    +0.129 C 
ATOM     25  C   UNL     1      25.594   3.974  23.261  0.00  0.00    +0.129 C 
ENDBRANCH  21   5
ENDBRANCH  11  12
ENDBRANCH   2  11
TORSDOF 4
ENDMDL
