MODEL 1
REMARK VINA RESULT:      -7.9      0.000      0.000
REMARK  Name = 51137052
REMARK  5 active torsions:
REMARK  status: ('A' for Active; 'I' for Inactive)
REMARK    1  A    between atoms: N_5  and  C_11
REMARK    2  A    between atoms: C_7  and  C_12
REMARK    3  A    between atoms: C_11  and  C_13
REMARK    4  A    between atoms: C_22  and  C_25
REMARK    5  A    between atoms: C_23  and  C_26
REMARK                            x       y       z     vdW  Elec       q    Type
REMARK                         _______ _______ _______ _____ _____    ______ ____
ROOT
ATOM      5  N   UNL     1      13.106   8.077  19.844  0.00  0.00    -0.297 NA
ATOM      7  C   UNL     1      11.891   8.963  21.644  0.00  0.00    +0.090 C 
ATOM      8  C   UNL     1      10.919   8.493  20.548  0.00  0.00    +0.029 C 
ATOM      9  C   UNL     1      13.258   9.027  20.949  0.00  0.00    +0.097 C 
ATOM     10  C   UNL     1      11.775   8.344  19.298  0.00  0.00    +0.085 C 
ENDROOT
BRANCH   7  12
ATOM      4  O   UNL     1      11.461  10.236  23.676  0.00  0.00    -0.439 OA
ATOM      6  N   UNL     1      11.222  11.417  21.756  0.00  0.00    -0.213 NA
ATOM     12  C   UNL     1      11.512  10.263  22.315  0.00  0.00    +0.201 A 
ATOM     14  C   UNL     1      10.955  12.230  22.832  0.00  0.00    +0.110 A 
ATOM     15  C   UNL     1      11.101  11.512  24.008  0.00  0.00    +0.155 A 
ATOM     18  C   UNL     1      10.587  13.582  22.903  0.00  0.00    +0.035 A 
ATOM     19  C   UNL     1      10.907  12.031  25.282  0.00  0.00    +0.049 A 
ATOM     22  C   UNL     1      10.382  14.142  24.173  0.00  0.00    -0.048 A 
ATOM     24  C   UNL     1      10.539  13.380  25.337  0.00  0.00    +0.007 A 
ATOM     25  C   UNL     1       9.988  15.578  24.283  0.00  0.00    +0.044 C 
ENDBRANCH   7  12
BRANCH   5  11
ATOM     11  C   UNL     1      14.154   8.216  18.843  0.00  0.00    +0.119 C 
BRANCH  11  13
ATOM     13  C   UNL     1      15.477   7.701  19.342  0.00  0.00    -0.033 A 
ATOM     16  C   UNL     1      15.974   6.486  18.871  0.00  0.00    +0.005 A 
ATOM     17  C   UNL     1      16.206   8.437  20.276  0.00  0.00    +0.005 A 
ATOM     20  C   UNL     1      17.201   6.008  19.333  0.00  0.00    +0.012 A 
ATOM     21  C   UNL     1      17.432   7.960  20.738  0.00  0.00    +0.012 A 
ATOM     23  C   UNL     1      17.930   6.745  20.266  0.00  0.00    +0.055 A 
BRANCH  23  26
ATOM      1  F   UNL     1      19.354   6.237  22.119  0.00  0.00    -0.166 F 
ATOM      2  F   UNL     1      20.296   6.975  20.305  0.00  0.00    -0.166 F 
ATOM      3  F   UNL     1      19.507   4.951  20.380  0.00  0.00    -0.166 F 
ATOM     26  C   UNL     1      19.242   6.236  20.758  0.00  0.00    +0.417 C 
ENDBRANCH  23  26
ENDBRANCH  11  13
ENDBRANCH   5  11
TORSDOF 4
ENDMDL
MODEL 2
REMARK VINA RESULT:      -7.5     17.700     19.922
REMARK  Name = 51137052
REMARK  5 active torsions:
REMARK  status: ('A' for Active; 'I' for Inactive)
REMARK    1  A    between atoms: N_5  and  C_11
REMARK    2  A    between atoms: C_7  and  C_12
REMARK    3  A    between atoms: C_11  and  C_13
REMARK    4  A    between atoms: C_22  and  C_25
REMARK    5  A    between atoms: C_23  and  C_26
REMARK                            x       y       z     vdW  Elec       q    Type
REMARK                         _______ _______ _______ _____ _____    ______ ____
ROOT
ATOM      5  N   UNL     1      12.146   4.184   1.648  0.00  0.00    -0.297 NA
ATOM      7  C   UNL     1      10.592   5.098   3.150  0.00  0.00    +0.090 C 
ATOM      8  C   UNL     1      11.552   6.200   2.667  0.00  0.00    +0.029 C 
ATOM      9  C   UNL     1      11.286   3.783   2.764  0.00  0.00    +0.097 C 
ATOM     10  C   UNL     1      12.737   5.456   2.065  0.00  0.00    +0.085 C 
ENDROOT
BRANCH   7  12
ATOM      4  O   UNL     1       9.883   6.395   5.086  0.00  0.00    -0.439 OA
ATOM      6  N   UNL     1      10.217   4.191   5.499  0.00  0.00    -0.213 NA
ATOM     12  C   UNL     1      10.233   5.165   4.616  0.00  0.00    +0.201 A 
ATOM     14  C   UNL     1       9.822   4.820   6.656  0.00  0.00    +0.110 A 
ATOM     15  C   UNL     1       9.617   6.168   6.407  0.00  0.00    +0.155 A 
ATOM     18  C   UNL     1       9.612   4.330   7.953  0.00  0.00    +0.035 A 
ATOM     19  C   UNL     1       9.211   7.096   7.358  0.00  0.00    +0.049 A 
ATOM     22  C   UNL     1       9.202   5.238   8.941  0.00  0.00    -0.048 A 
ATOM     24  C   UNL     1       9.007   6.592   8.648  0.00  0.00    +0.007 A 
ATOM     25  C   UNL     1       8.971   4.747  10.333  0.00  0.00    +0.044 C 
ENDBRANCH   7  12
BRANCH   5  11
ATOM     11  C   UNL     1      13.153   3.181   1.335  0.00  0.00    +0.119 C 
BRANCH  11  13
ATOM     13  C   UNL     1      14.086   3.644   0.249  0.00  0.00    -0.033 A 
ATOM     16  C   UNL     1      15.440   3.835   0.527  0.00  0.00    +0.005 A 
ATOM     17  C   UNL     1      13.598   3.883  -1.036  0.00  0.00    +0.005 A 
ATOM     20  C   UNL     1      16.305   4.264  -0.479  0.00  0.00    +0.012 A 
ATOM     21  C   UNL     1      14.463   4.312  -2.042  0.00  0.00    +0.012 A 
ATOM     23  C   UNL     1      15.817   4.501  -1.764  0.00  0.00    +0.055 A 
BRANCH  23  26
ATOM      1  F   UNL     1      16.218   4.845  -4.096  0.00  0.00    -0.166 F 
ATOM      2  F   UNL     1      17.908   4.247  -2.867  0.00  0.00    -0.166 F 
ATOM      3  F   UNL     1      17.115   6.266  -2.725  0.00  0.00    -0.166 F 
ATOM     26  C   UNL     1      16.743   4.957  -2.841  0.00  0.00    +0.417 C 
ENDBRANCH  23  26
ENDBRANCH  11  13
ENDBRANCH   5  11
TORSDOF 4
ENDMDL
MODEL 3
REMARK VINA RESULT:      -7.4     19.084     22.323
REMARK  Name = 51137052
REMARK  5 active torsions:
REMARK  status: ('A' for Active; 'I' for Inactive)
REMARK    1  A    between atoms: N_5  and  C_11
REMARK    2  A    between atoms: C_7  and  C_12
REMARK    3  A    between atoms: C_11  and  C_13
REMARK    4  A    between atoms: C_22  and  C_25
REMARK    5  A    between atoms: C_23  and  C_26
REMARK                            x       y       z     vdW  Elec       q    Type
REMARK                         _______ _______ _______ _____ _____    ______ ____
ROOT
ATOM      5  N   UNL     1      12.179   4.949   2.405  0.00  0.00    -0.297 NA
ATOM      7  C   UNL     1      12.337   3.468   0.593  0.00  0.00    +0.090 C 
ATOM      8  C   UNL     1      13.748   3.893   1.036  0.00  0.00    +0.029 C 
ATOM      9  C   UNL     1      11.399   4.487   1.253  0.00  0.00    +0.097 C 
ATOM     10  C   UNL     1      13.536   5.135   1.891  0.00  0.00    +0.085 C 
ENDROOT
BRANCH   7  12
ATOM      4  O   UNL     1      10.851   3.300  -1.331  0.00  0.00    -0.439 OA
ATOM      6  N   UNL     1      13.058   3.345  -1.846  0.00  0.00    -0.213 NA
ATOM     12  C   UNL     1      12.142   3.371  -0.903  0.00  0.00    +0.201 A 
ATOM     14  C   UNL     1      12.319   3.249  -3.001  0.00  0.00    +0.110 A 
ATOM     15  C   UNL     1      10.969   3.223  -2.690  0.00  0.00    +0.155 A 
ATOM     18  C   UNL     1      12.707   3.181  -4.347  0.00  0.00    +0.035 A 
ATOM     19  C   UNL     1       9.943   3.131  -3.623  0.00  0.00    +0.049 A 
ATOM     22  C   UNL     1      11.699   3.089  -5.318  0.00  0.00    -0.048 A 
ATOM     24  C   UNL     1      10.346   3.064  -4.961  0.00  0.00    +0.007 A 
ATOM     25  C   UNL     1      12.079   3.014  -6.761  0.00  0.00    +0.044 C 
ENDBRANCH   7  12
BRANCH   5  11
ATOM     11  C   UNL     1      11.636   6.165   2.991  0.00  0.00    +0.119 C 
BRANCH  11  13
ATOM     13  C   UNL     1      11.149   5.941   4.397  0.00  0.00    -0.033 A 
ATOM     16  C   UNL     1      10.192   4.960   4.655  0.00  0.00    +0.005 A 
ATOM     17  C   UNL     1      11.655   6.713   5.443  0.00  0.00    +0.005 A 
ATOM     20  C   UNL     1       9.740   4.751   5.958  0.00  0.00    +0.012 A 
ATOM     21  C   UNL     1      11.203   6.505   6.746  0.00  0.00    +0.012 A 
ATOM     23  C   UNL     1      10.246   5.523   7.004  0.00  0.00    +0.055 A 
BRANCH  23  26
ATOM      1  F   UNL     1       9.364   4.015   8.637  0.00  0.00    -0.166 F 
ATOM      2  F   UNL     1       8.695   6.082   8.716  0.00  0.00    -0.166 F 
ATOM      3  F   UNL     1      10.708   5.560   9.350  0.00  0.00    -0.166 F 
ATOM     26  C   UNL     1       9.766   5.298   8.398  0.00  0.00    +0.417 C 
ENDBRANCH  23  26
ENDBRANCH  11  13
ENDBRANCH   5  11
TORSDOF 4
ENDMDL
MODEL 4
REMARK VINA RESULT:      -7.3     18.825     22.028
REMARK  Name = 51137052
REMARK  5 active torsions:
REMARK  status: ('A' for Active; 'I' for Inactive)
REMARK    1  A    between atoms: N_5  and  C_11
REMARK    2  A    between atoms: C_7  and  C_12
REMARK    3  A    between atoms: C_11  and  C_13
REMARK    4  A    between atoms: C_22  and  C_25
REMARK    5  A    between atoms: C_23  and  C_26
REMARK                            x       y       z     vdW  Elec       q    Type
REMARK                         _______ _______ _______ _____ _____    ______ ____
ROOT
ATOM      5  N   UNL     1      11.920   5.067   2.709  0.00  0.00    -0.297 NA
ATOM      7  C   UNL     1      12.004   3.609   0.873  0.00  0.00    +0.090 C 
ATOM      8  C   UNL     1      13.422   4.111   1.198  0.00  0.00    +0.029 C 
ATOM      9  C   UNL     1      11.071   4.570   1.623  0.00  0.00    +0.097 C 
ATOM     10  C   UNL     1      13.216   5.333   2.083  0.00  0.00    +0.085 C 
ENDROOT
BRANCH   7  12
ATOM      4  O   UNL     1      12.720   3.145  -1.409  0.00  0.00    -0.439 OA
ATOM      6  N   UNL     1      10.541   3.736  -1.207  0.00  0.00    -0.213 NA
ATOM     12  C   UNL     1      11.687   3.511  -0.601  0.00  0.00    +0.201 A 
ATOM     14  C   UNL     1      10.832   3.500  -2.529  0.00  0.00    +0.110 A 
ATOM     15  C   UNL     1      12.164   3.137  -2.657  0.00  0.00    +0.155 A 
ATOM     18  C   UNL     1      10.034   3.567  -3.681  0.00  0.00    +0.035 A 
ATOM     19  C   UNL     1      12.789   2.828  -3.858  0.00  0.00    +0.049 A 
ATOM     22  C   UNL     1      10.631   3.262  -4.913  0.00  0.00    -0.048 A 
ATOM     24  C   UNL     1      11.980   2.900  -4.998  0.00  0.00    +0.007 A 
ATOM     25  C   UNL     1       9.807   3.325  -6.158  0.00  0.00    +0.044 C 
ENDBRANCH   7  12
BRANCH   5  11
ATOM     11  C   UNL     1      11.363   6.247   3.353  0.00  0.00    +0.119 C 
BRANCH  11  13
ATOM     13  C   UNL     1      10.944   5.966   4.771  0.00  0.00    -0.033 A 
ATOM     16  C   UNL     1       9.889   5.090   5.025  0.00  0.00    +0.005 A 
ATOM     17  C   UNL     1      11.610   6.581   5.831  0.00  0.00    +0.005 A 
ATOM     20  C   UNL     1       9.499   4.828   6.339  0.00  0.00    +0.012 A 
ATOM     21  C   UNL     1      11.221   6.320   7.145  0.00  0.00    +0.012 A 
ATOM     23  C   UNL     1      10.166   5.443   7.399  0.00  0.00    +0.055 A 
BRANCH  23  26
ATOM      1  F   UNL     1       8.666   5.882   9.209  0.00  0.00    -0.166 F 
ATOM      2  F   UNL     1      10.736   5.444   9.707  0.00  0.00    -0.166 F 
ATOM      3  F   UNL     1       9.417   3.856   9.025  0.00  0.00    -0.166 F 
ATOM     26  C   UNL     1       9.753   5.161   8.804  0.00  0.00    +0.417 C 
ENDBRANCH  23  26
ENDBRANCH  11  13
ENDBRANCH   5  11
TORSDOF 4
ENDMDL
MODEL 5
REMARK VINA RESULT:      -7.1     20.058     21.642
REMARK  Name = 51137052
REMARK  5 active torsions:
REMARK  status: ('A' for Active; 'I' for Inactive)
REMARK    1  A    between atoms: N_5  and  C_11
REMARK    2  A    between atoms: C_7  and  C_12
REMARK    3  A    between atoms: C_11  and  C_13
REMARK    4  A    between atoms: C_22  and  C_25
REMARK    5  A    between atoms: C_23  and  C_26
REMARK                            x       y       z     vdW  Elec       q    Type
REMARK                         _______ _______ _______ _____ _____    ______ ____
ROOT
ATOM      5  N   UNL     1       7.605  -6.788  33.725  0.00  0.00    -0.297 NA
ATOM      7  C   UNL     1       9.922  -6.464  33.904  0.00  0.00    +0.090 C 
ATOM      8  C   UNL     1       9.184  -5.260  34.515  0.00  0.00    +0.029 C 
ATOM      9  C   UNL     1       8.855  -7.193  33.076  0.00  0.00    +0.097 C 
ATOM     10  C   UNL     1       7.761  -5.356  33.982  0.00  0.00    +0.085 C 
ENDROOT
BRANCH   7  12
ATOM      4  O   UNL     1      11.374  -6.873  31.991  0.00  0.00    -0.439 OA
ATOM      6  N   UNL     1      12.042  -5.174  33.334  0.00  0.00    -0.213 NA
ATOM     12  C   UNL     1      11.153  -6.115  33.101  0.00  0.00    +0.201 A 
ATOM     14  C   UNL     1      12.930  -5.314  32.295  0.00  0.00    +0.110 A 
ATOM     15  C   UNL     1      12.525  -6.352  31.471  0.00  0.00    +0.155 A 
ATOM     18  C   UNL     1      14.099  -4.608  31.973  0.00  0.00    +0.035 A 
ATOM     19  C   UNL     1      13.196  -6.762  30.326  0.00  0.00    +0.049 A 
ATOM     22  C   UNL     1      14.804  -4.994  30.823  0.00  0.00    -0.048 A 
ATOM     24  C   UNL     1      14.360  -6.049  30.018  0.00  0.00    +0.007 A 
ATOM     25  C   UNL     1      16.053  -4.262  30.453  0.00  0.00    +0.044 C 
ENDBRANCH   7  12
BRANCH   5  11
ATOM     11  C   UNL     1       6.436  -7.082  32.910  0.00  0.00    +0.119 C 
BRANCH  11  13
ATOM     13  C   UNL     1       6.549  -8.419  32.229  0.00  0.00    -0.033 A 
ATOM     16  C   UNL     1       6.515  -9.591  32.984  0.00  0.00    +0.005 A 
ATOM     17  C   UNL     1       6.688  -8.486  30.842  0.00  0.00    +0.005 A 
ATOM     20  C   UNL     1       6.619 -10.831  32.353  0.00  0.00    +0.012 A 
ATOM     21  C   UNL     1       6.793  -9.725  30.211  0.00  0.00    +0.012 A 
ATOM     23  C   UNL     1       6.757 -10.898  30.966  0.00  0.00    +0.055 A 
BRANCH  23  26
ATOM      1  F   UNL     1       7.343 -13.212  31.102  0.00  0.00    -0.166 F 
ATOM      2  F   UNL     1       7.705 -12.196  29.215  0.00  0.00    -0.166 F 
ATOM      3  F   UNL     1       5.676 -12.695  29.816  0.00  0.00    -0.166 F 
ATOM     26  C   UNL     1       6.866 -12.223  30.291  0.00  0.00    +0.417 C 
ENDBRANCH  23  26
ENDBRANCH  11  13
ENDBRANCH   5  11
TORSDOF 4
ENDMDL
MODEL 6
REMARK VINA RESULT:      -7.0     20.753     22.942
REMARK  Name = 51137052
REMARK  5 active torsions:
REMARK  status: ('A' for Active; 'I' for Inactive)
REMARK    1  A    between atoms: N_5  and  C_11
REMARK    2  A    between atoms: C_7  and  C_12
REMARK    3  A    between atoms: C_11  and  C_13
REMARK    4  A    between atoms: C_22  and  C_25
REMARK    5  A    between atoms: C_23  and  C_26
REMARK                            x       y       z     vdW  Elec       q    Type
REMARK                         _______ _______ _______ _____ _____    ______ ____
ROOT
ATOM      5  N   UNL     1      -2.251  10.200   5.490  0.00  0.00    -0.297 NA
ATOM      7  C   UNL     1      -1.428  11.827   6.966  0.00  0.00    +0.090 C 
ATOM      8  C   UNL     1      -1.535  12.422   5.551  0.00  0.00    +0.029 C 
ATOM      9  C   UNL     1      -1.523  10.310   6.757  0.00  0.00    +0.097 C 
ATOM     10  C   UNL     1      -1.656  11.220   4.625  0.00  0.00    +0.085 C 
ENDROOT
BRANCH   7  12
ATOM      4  O   UNL     1      -0.416  12.775   8.970  0.00  0.00    -0.439 OA
ATOM      6  N   UNL     1       1.065  12.149   7.372  0.00  0.00    -0.213 NA
ATOM     12  C   UNL     1      -0.195  12.239   7.737  0.00  0.00    +0.201 A 
ATOM     14  C   UNL     1       1.743  12.667   8.449  0.00  0.00    +0.110 A 
ATOM     15  C   UNL     1       0.841  13.051   9.429  0.00  0.00    +0.155 A 
ATOM     18  C   UNL     1       3.114  12.848   8.682  0.00  0.00    +0.035 A 
ATOM     19  C   UNL     1       1.190  13.613  10.650  0.00  0.00    +0.049 A 
ATOM     22  C   UNL     1       3.506  13.413   9.905  0.00  0.00    -0.048 A 
ATOM     24  C   UNL     1       2.561  13.787  10.867  0.00  0.00    +0.007 A 
ATOM     25  C   UNL     1       4.959  13.619  10.183  0.00  0.00    +0.044 C 
ENDBRANCH   7  12
BRANCH   5  11
ATOM     11  C   UNL     1      -2.166   8.866   4.914  0.00  0.00    +0.119 C 
BRANCH  11  13
ATOM     13  C   UNL     1      -3.513   8.198   4.849  0.00  0.00    -0.033 A 
ATOM     16  C   UNL     1      -3.646   6.861   5.221  0.00  0.00    +0.005 A 
ATOM     17  C   UNL     1      -4.627   8.916   4.415  0.00  0.00    +0.005 A 
ATOM     20  C   UNL     1      -4.894   6.240   5.161  0.00  0.00    +0.012 A 
ATOM     21  C   UNL     1      -5.876   8.296   4.354  0.00  0.00    +0.012 A 
ATOM     23  C   UNL     1      -6.009   6.959   4.728  0.00  0.00    +0.055 A 
BRANCH  23  26
ATOM      1  F   UNL     1      -7.569   5.628   3.497  0.00  0.00    -0.166 F 
ATOM      2  F   UNL     1      -8.375   7.184   4.784  0.00  0.00    -0.166 F 
ATOM      3  F   UNL     1      -7.543   5.372   5.650  0.00  0.00    -0.166 F 
ATOM     26  C   UNL     1      -7.344   6.297   4.666  0.00  0.00    +0.417 C 
ENDBRANCH  23  26
ENDBRANCH  11  13
ENDBRANCH   5  11
TORSDOF 4
ENDMDL
MODEL 7
REMARK VINA RESULT:      -7.0     17.983     21.194
REMARK  Name = 51137052
REMARK  5 active torsions:
REMARK  status: ('A' for Active; 'I' for Inactive)
REMARK    1  A    between atoms: N_5  and  C_11
REMARK    2  A    between atoms: C_7  and  C_12
REMARK    3  A    between atoms: C_11  and  C_13
REMARK    4  A    between atoms: C_22  and  C_25
REMARK    5  A    between atoms: C_23  and  C_26
REMARK                            x       y       z     vdW  Elec       q    Type
REMARK                         _______ _______ _______ _____ _____    ______ ____
ROOT
ATOM      5  N   UNL     1      10.201   7.143   3.300  0.00  0.00    -0.297 NA
ATOM      7  C   UNL     1      11.347   6.087   1.545  0.00  0.00    +0.090 C 
ATOM      8  C   UNL     1      11.470   7.614   1.397  0.00  0.00    +0.029 C 
ATOM      9  C   UNL     1      10.200   5.886   2.546  0.00  0.00    +0.097 C 
ATOM     10  C   UNL     1      10.379   8.188   2.291  0.00  0.00    +0.085 C 
ENDROOT
BRANCH   7  12
ATOM      4  O   UNL     1      11.978   4.291   0.026  0.00  0.00    -0.439 OA
ATOM      6  N   UNL     1      10.245   5.565  -0.690  0.00  0.00    -0.213 NA
ATOM     12  C   UNL     1      11.136   5.338   0.251  0.00  0.00    +0.201 A 
ATOM     14  C   UNL     1      10.513   4.590  -1.621  0.00  0.00    +0.110 A 
ATOM     15  C   UNL     1      11.572   3.808  -1.186  0.00  0.00    +0.155 A 
ATOM     18  C   UNL     1       9.913   4.295  -2.853  0.00  0.00    +0.035 A 
ATOM     19  C   UNL     1      12.101   2.731  -1.887  0.00  0.00    +0.049 A 
ATOM     22  C   UNL     1      10.420   3.214  -3.590  0.00  0.00    -0.048 A 
ATOM     24  C   UNL     1      11.492   2.450  -3.115  0.00  0.00    +0.007 A 
ATOM     25  C   UNL     1       9.802   2.874  -4.907  0.00  0.00    +0.044 C 
ENDBRANCH   7  12
BRANCH   5  11
ATOM     11  C   UNL     1       8.985   7.324   4.078  0.00  0.00    +0.119 C 
BRANCH  11  13
ATOM     13  C   UNL     1       9.104   6.720   5.452  0.00  0.00    -0.033 A 
ATOM     16  C   UNL     1       8.727   7.459   6.573  0.00  0.00    +0.005 A 
ATOM     17  C   UNL     1       9.591   5.422   5.603  0.00  0.00    +0.005 A 
ATOM     20  C   UNL     1       8.837   6.900   7.846  0.00  0.00    +0.012 A 
ATOM     21  C   UNL     1       9.701   4.862   6.876  0.00  0.00    +0.012 A 
ATOM     23  C   UNL     1       9.323   5.601   7.998  0.00  0.00    +0.055 A 
BRANCH  23  26
ATOM      1  F   UNL     1       8.401   5.323  10.187  0.00  0.00    -0.166 F 
ATOM      2  F   UNL     1      10.566   5.400  10.014  0.00  0.00    -0.166 F 
ATOM      3  F   UNL     1       9.479   3.636   9.353  0.00  0.00    -0.166 F 
ATOM     26  C   UNL     1       9.437   5.001   9.359  0.00  0.00    +0.417 C 
ENDBRANCH  23  26
ENDBRANCH  11  13
ENDBRANCH   5  11
TORSDOF 4
ENDMDL
MODEL 8
REMARK VINA RESULT:      -6.9     14.990     16.713
REMARK  Name = 51137052
REMARK  5 active torsions:
REMARK  status: ('A' for Active; 'I' for Inactive)
REMARK    1  A    between atoms: N_5  and  C_11
REMARK    2  A    between atoms: C_7  and  C_12
REMARK    3  A    between atoms: C_11  and  C_13
REMARK    4  A    between atoms: C_22  and  C_25
REMARK    5  A    between atoms: C_23  and  C_26
REMARK                            x       y       z     vdW  Elec       q    Type
REMARK                         _______ _______ _______ _____ _____    ______ ____
ROOT
ATOM      5  N   UNL     1      16.226   9.258   5.316  0.00  0.00    -0.297 NA
ATOM      7  C   UNL     1      14.221   8.079   5.010  0.00  0.00    +0.090 C 
ATOM      8  C   UNL     1      13.970   9.584   4.808  0.00  0.00    +0.029 C 
ATOM      9  C   UNL     1      15.582   8.004   5.716  0.00  0.00    +0.097 C 
ATOM     10  C   UNL     1      15.178  10.273   5.429  0.00  0.00    +0.085 C 
ENDROOT
BRANCH   7  12
ATOM      4  O   UNL     1      12.145   6.805   4.987  0.00  0.00    -0.439 OA
ATOM      6  N   UNL     1      13.006   7.167   7.053  0.00  0.00    -0.213 NA
ATOM     12  C   UNL     1      13.130   7.348   5.756  0.00  0.00    +0.201 A 
ATOM     14  C   UNL     1      11.842   6.445   7.161  0.00  0.00    +0.110 A 
ATOM     15  C   UNL     1      11.313   6.220   5.900  0.00  0.00    +0.155 A 
ATOM     18  C   UNL     1      11.166   5.938   8.280  0.00  0.00    +0.035 A 
ATOM     19  C   UNL     1      10.140   5.520   5.646  0.00  0.00    +0.049 A 
ATOM     22  C   UNL     1       9.977   5.225   8.064  0.00  0.00    -0.048 A 
ATOM     24  C   UNL     1       9.476   5.022   6.773  0.00  0.00    +0.007 A 
ATOM     25  C   UNL     1       9.233   4.673   9.236  0.00  0.00    +0.044 C 
ENDBRANCH   7  12
BRANCH   5  11
ATOM     11  C   UNL     1      17.390   9.570   6.133  0.00  0.00    +0.119 C 
BRANCH  11  13
ATOM     13  C   UNL     1      18.636   8.909   5.607  0.00  0.00    -0.033 A 
ATOM     16  C   UNL     1      18.824   8.771   4.233  0.00  0.00    +0.005 A 
ATOM     17  C   UNL     1      19.602   8.436   6.495  0.00  0.00    +0.005 A 
ATOM     20  C   UNL     1      19.979   8.159   3.744  0.00  0.00    +0.012 A 
ATOM     21  C   UNL     1      20.757   7.824   6.007  0.00  0.00    +0.012 A 
ATOM     23  C   UNL     1      20.946   7.686   4.632  0.00  0.00    +0.055 A 
BRANCH  23  26
ATOM      1  F   UNL     1      22.119   5.671   4.102  0.00  0.00    -0.166 F 
ATOM      2  F   UNL     1      23.289   7.345   4.847  0.00  0.00    -0.166 F 
ATOM      3  F   UNL     1      22.487   7.386   2.827  0.00  0.00    -0.166 F 
ATOM     26  C   UNL     1      22.182   7.035   4.111  0.00  0.00    +0.417 C 
ENDBRANCH  23  26
ENDBRANCH  11  13
ENDBRANCH   5  11
TORSDOF 4
ENDMDL
MODEL 9
REMARK VINA RESULT:      -6.8     17.195     20.394
REMARK  Name = 51137052
REMARK  5 active torsions:
REMARK  status: ('A' for Active; 'I' for Inactive)
REMARK    1  A    between atoms: N_5  and  C_11
REMARK    2  A    between atoms: C_7  and  C_12
REMARK    3  A    between atoms: C_11  and  C_13
REMARK    4  A    between atoms: C_22  and  C_25
REMARK    5  A    between atoms: C_23  and  C_26
REMARK                            x       y       z     vdW  Elec       q    Type
REMARK                         _______ _______ _______ _____ _____    ______ ____
ROOT
ATOM      5  N   UNL     1      12.221   7.041   4.221  0.00  0.00    -0.297 NA
ATOM      7  C   UNL     1      12.604   5.595   2.415  0.00  0.00    +0.090 C 
ATOM      8  C   UNL     1      13.558   6.799   2.322  0.00  0.00    +0.029 C 
ATOM      9  C   UNL     1      11.529   6.027   3.421  0.00  0.00    +0.097 C 
ATOM     10  C   UNL     1      12.960   7.848   3.250  0.00  0.00    +0.085 C 
ENDROOT
BRANCH   7  12
ATOM      4  O   UNL     1      10.937   5.827   0.653  0.00  0.00    -0.439 OA
ATOM      6  N   UNL     1      12.437   4.160   0.318  0.00  0.00    -0.213 NA
ATOM     12  C   UNL     1      12.026   5.138   1.095  0.00  0.00    +0.201 A 
ATOM     14  C   UNL     1      11.550   4.198  -0.731  0.00  0.00    +0.110 A 
ATOM     15  C   UNL     1      10.631   5.217  -0.530  0.00  0.00    +0.155 A 
ATOM     18  C   UNL     1      11.449   3.414  -1.890  0.00  0.00    +0.035 A 
ATOM     19  C   UNL     1       9.595   5.533  -1.400  0.00  0.00    +0.049 A 
ATOM     22  C   UNL     1      10.415   3.703  -2.793  0.00  0.00    -0.048 A 
ATOM     24  C   UNL     1       9.508   4.741  -2.551  0.00  0.00    +0.007 A 
ATOM     25  C   UNL     1      10.281   2.885  -4.036  0.00  0.00    +0.044 C 
ENDBRANCH   7  12
BRANCH   5  11
ATOM     11  C   UNL     1      11.303   7.839   5.021  0.00  0.00    +0.119 C 
BRANCH  11  13
ATOM     13  C   UNL     1      10.796   7.079   6.217  0.00  0.00    -0.033 A 
ATOM     16  C   UNL     1       9.428   7.038   6.488  0.00  0.00    +0.005 A 
ATOM     17  C   UNL     1      11.693   6.416   7.054  0.00  0.00    +0.005 A 
ATOM     20  C   UNL     1       8.957   6.333   7.596  0.00  0.00    +0.012 A 
ATOM     21  C   UNL     1      11.223   5.712   8.162  0.00  0.00    +0.012 A 
ATOM     23  C   UNL     1       9.855   5.669   8.433  0.00  0.00    +0.055 A 
BRANCH  23  26
ATOM      1  F   UNL     1       9.011   3.622   9.335  0.00  0.00    -0.166 F 
ATOM      2  F   UNL     1       8.234   5.477  10.162  0.00  0.00    -0.166 F 
ATOM      3  F   UNL     1      10.255   4.831  10.637  0.00  0.00    -0.166 F 
ATOM     26  C   UNL     1       9.352   4.914   9.616  0.00  0.00    +0.417 C 
ENDBRANCH  23  26
ENDBRANCH  11  13
ENDBRANCH   5  11
TORSDOF 4
ENDMDL
MODEL 10
REMARK VINA RESULT:      -6.6     20.634     22.631
REMARK  Name = 51137052
REMARK  5 active torsions:
REMARK  status: ('A' for Active; 'I' for Inactive)
REMARK    1  A    between atoms: N_5  and  C_11
REMARK    2  A    between atoms: C_7  and  C_12
REMARK    3  A    between atoms: C_11  and  C_13
REMARK    4  A    between atoms: C_22  and  C_25
REMARK    5  A    between atoms: C_23  and  C_26
REMARK                            x       y       z     vdW  Elec       q    Type
REMARK                         _______ _______ _______ _____ _____    ______ ____
ROOT
ATOM      5  N   UNL     1      -1.255  10.917   5.179  0.00  0.00    -0.297 NA
ATOM      7  C   UNL     1      -1.171  12.652   6.757  0.00  0.00    +0.090 C 
ATOM      8  C   UNL     1      -0.106  12.890   5.672  0.00  0.00    +0.029 C 
ATOM      9  C   UNL     1      -1.580  11.182   6.583  0.00  0.00    +0.097 C 
ATOM     10  C   UNL     1       0.049  11.548   4.969  0.00  0.00    +0.085 C 
ENDROOT
BRANCH   7  12
ATOM      4  O   UNL     1      -1.726  13.150   9.076  0.00  0.00    -0.439 OA
ATOM      6  N   UNL     1       0.496  13.116   8.625  0.00  0.00    -0.213 NA
ATOM     12  C   UNL     1      -0.729  12.977   8.165  0.00  0.00    +0.201 A 
ATOM     14  C   UNL     1       0.301  13.407   9.954  0.00  0.00    +0.110 A 
ATOM     15  C   UNL     1      -1.056  13.428  10.235  0.00  0.00    +0.155 A 
ATOM     18  C   UNL     1       1.212  13.663  10.990  0.00  0.00    +0.035 A 
ATOM     19  C   UNL     1      -1.602  13.689  11.485  0.00  0.00    +0.049 A 
ATOM     22  C   UNL     1       0.698  13.931  12.267  0.00  0.00    -0.048 A 
ATOM     24  C   UNL     1      -0.681  13.944  12.507  0.00  0.00    +0.007 A 
ATOM     25  C   UNL     1       1.642  14.210  13.391  0.00  0.00    +0.044 C 
ENDBRANCH   7  12
BRANCH   5  11
ATOM     11  C   UNL     1      -1.238   9.495   4.872  0.00  0.00    +0.119 C 
BRANCH  11  13
ATOM     13  C   UNL     1      -2.628   8.942   4.703  0.00  0.00    -0.033 A 
ATOM     16  C   UNL     1      -2.993   7.764   5.354  0.00  0.00    +0.005 A 
ATOM     17  C   UNL     1      -3.551   9.608   3.897  0.00  0.00    +0.005 A 
ATOM     20  C   UNL     1      -4.281   7.251   5.199  0.00  0.00    +0.012 A 
ATOM     21  C   UNL     1      -4.839   9.096   3.741  0.00  0.00    +0.012 A 
ATOM     23  C   UNL     1      -5.204   7.918   4.393  0.00  0.00    +0.055 A 
BRANCH  23  26
ATOM      1  F   UNL     1      -6.609   6.051   3.884  0.00  0.00    -0.166 F 
ATOM      2  F   UNL     1      -7.290   8.017   3.256  0.00  0.00    -0.166 F 
ATOM      3  F   UNL     1      -7.345   7.462   5.357  0.00  0.00    -0.166 F 
ATOM     26  C   UNL     1      -6.582   7.371   4.228  0.00  0.00    +0.417 C 
ENDBRANCH  23  26
ENDBRANCH  11  13
ENDBRANCH   5  11
TORSDOF 4
ENDMDL
