MODEL 1
REMARK VINA RESULT:      -8.0      0.000      0.000
REMARK  Name = 11913177
REMARK  8 active torsions:
REMARK  status: ('A' for Active; 'I' for Inactive)
REMARK    1  A    between atoms: N_7  and  C_19
REMARK    2  A    between atoms: N_8  and  C_20
REMARK    3  A    between atoms: C_9  and  C_15
REMARK    4  A    between atoms: C_10  and  C_14
REMARK    5  A    between atoms: C_14  and  C_16
REMARK    6  A    between atoms: C_15  and  C_17
REMARK    7  A    between atoms: C_19  and  C_21
REMARK    8  A    between atoms: C_27  and  C_34
REMARK                            x       y       z     vdW  Elec       q    Type
REMARK                         _______ _______ _______ _____ _____    ______ ____
ROOT
ATOM      5  O   UNL     1      -8.086 -14.024  17.063  0.00  0.00    -0.252 OA
ATOM      6  N   UNL     1      -5.996 -13.315  17.747  0.00  0.00    -0.285 N 
ATOM      8  N   UNL     1      -7.826 -13.249  19.234  0.00  0.00    -0.269 N 
ATOM      9  C   UNL     1      -3.763 -11.697  16.869  0.00  0.00    +0.004 C 
ATOM     10  C   UNL     1      -4.402 -11.488  18.268  0.00  0.00    +0.010 C 
ATOM     11  C   UNL     1      -4.758 -12.318  15.872  0.00  0.00    +0.023 C 
ATOM     12  C   UNL     1      -5.040 -12.804  18.742  0.00  0.00    +0.113 C 
ATOM     13  C   UNL     1      -5.401 -13.584  16.437  0.00  0.00    +0.109 C 
ATOM     18  C   UNL     1      -7.366 -13.574  17.958  0.00  0.00    +0.306 C 
ATOM     38  H   UNL     1      -7.175 -13.299  20.009  0.00  0.00    +0.156 HD
ENDROOT
BRANCH   8  20
ATOM     20  C   UNL     1      -9.130 -12.830  19.597  0.00  0.00    +0.035 A 
ATOM     23  C   UNL     1      -9.647 -11.640  19.085  0.00  0.00    +0.035 A 
ATOM     24  C   UNL     1      -9.896 -13.607  20.465  0.00  0.00    +0.023 A 
ATOM     27  C   UNL     1     -10.931 -11.227  19.442  0.00  0.00    +0.057 A 
ATOM     28  C   UNL     1     -11.179 -13.195  20.822  0.00  0.00    +0.002 A 
ATOM     32  C   UNL     1     -11.698 -12.005  20.311  0.00  0.00    +0.012 A 
BRANCH  27  34
ATOM      1  F   UNL     1     -12.248 -10.126  17.776  0.00  0.00    -0.166 F 
ATOM      2  F   UNL     1     -12.289  -9.288  19.775  0.00  0.00    -0.166 F 
ATOM      3  F   UNL     1     -10.511  -9.067  18.543  0.00  0.00    -0.166 F 
ATOM     34  C   UNL     1     -11.485  -9.956  18.896  0.00  0.00    +0.417 C 
ENDBRANCH  27  34
ENDBRANCH   8  20
BRANCH  10  14
ATOM     14  C   UNL     1      -5.423 -10.347  18.324  0.00  0.00    +0.002 C 
ATOM     16  C   UNL     1      -6.127 -10.308  19.665  0.00  0.00    +0.004 C 
ENDBRANCH  10  14
BRANCH   9  15
ATOM     15  C   UNL     1      -3.149 -10.420  16.294  0.00  0.00    +0.099 C 
BRANCH  15  17
ATOM      4  O   UNL     1      -1.129 -11.290  15.286  0.00  0.00    -0.276 OA
ATOM      7  N   UNL     1      -2.702 -10.221  13.950  0.00  0.00    -0.311 N 
ATOM     17  C   UNL     1      -2.201 -10.706  15.150  0.00  0.00    +0.214 C 
ATOM     37  H   UNL     1      -3.603  -9.752  13.931  0.00  0.00    +0.149 HD
BRANCH   7  19
ATOM     19  C   UNL     1      -2.004 -10.352  12.692  0.00  0.00    +0.140 C 
BRANCH  19  21
ATOM     21  C   UNL     1      -2.738 -11.245  11.733  0.00  0.00    -0.023 A 
ATOM     22  C   UNL     1      -3.403 -10.739  10.604  0.00  0.00    -0.013 A 
ATOM     25  C   UNL     1      -2.739 -12.614  12.005  0.00  0.00    +0.006 A 
ATOM     26  C   UNL     1      -4.077 -11.633   9.739  0.00  0.00    -0.018 A 
ATOM     29  C   UNL     1      -3.414  -9.364  10.315  0.00  0.00    +0.009 A 
ATOM     30  C   UNL     1      -3.401 -13.494  11.154  0.00  0.00    +0.001 A 
ATOM     31  C   UNL     1      -4.066 -13.008  10.028  0.00  0.00    +0.008 A 
ATOM     33  C   UNL     1      -4.742 -11.127   8.610  0.00  0.00    +0.008 A 
ATOM     35  C   UNL     1      -4.079  -8.879   9.189  0.00  0.00    +0.001 A 
ATOM     36  C   UNL     1      -4.742  -9.759   8.338  0.00  0.00    +0.001 A 
ENDBRANCH  19  21
ENDBRANCH   7  19
ENDBRANCH  15  17
ENDBRANCH   9  15
TORSDOF 7
ENDMDL
MODEL 2
REMARK VINA RESULT:      -7.8     20.094     23.096
REMARK  Name = 11913177
REMARK  8 active torsions:
REMARK  status: ('A' for Active; 'I' for Inactive)
REMARK    1  A    between atoms: N_7  and  C_19
REMARK    2  A    between atoms: N_8  and  C_20
REMARK    3  A    between atoms: C_9  and  C_15
REMARK    4  A    between atoms: C_10  and  C_14
REMARK    5  A    between atoms: C_14  and  C_16
REMARK    6  A    between atoms: C_15  and  C_17
REMARK    7  A    between atoms: C_19  and  C_21
REMARK    8  A    between atoms: C_27  and  C_34
REMARK                            x       y       z     vdW  Elec       q    Type
REMARK                         _______ _______ _______ _____ _____    ______ ____
ROOT
ATOM      5  O   UNL     1     -16.973   4.673  19.480  0.00  0.00    -0.252 OA
ATOM      6  N   UNL     1     -17.425   4.949  21.730  0.00  0.00    -0.285 N 
ATOM      8  N   UNL     1     -16.434   6.692  20.487  0.00  0.00    -0.269 N 
ATOM      9  C   UNL     1     -17.170   3.579  24.266  0.00  0.00    +0.004 C 
ATOM     10  C   UNL     1     -16.662   5.035  24.088  0.00  0.00    +0.010 C 
ATOM     11  C   UNL     1     -17.200   2.815  22.930  0.00  0.00    +0.023 C 
ATOM     12  C   UNL     1     -17.470   5.727  22.977  0.00  0.00    +0.113 C 
ATOM     13  C   UNL     1     -17.961   3.593  21.857  0.00  0.00    +0.109 C 
ATOM     18  C   UNL     1     -16.950   5.396  20.479  0.00  0.00    +0.306 C 
ATOM     38  H   UNL     1     -16.807   7.356  21.156  0.00  0.00    +0.156 HD
ENDROOT
BRANCH   8  20
ATOM     20  C   UNL     1     -15.409   7.214  19.660  0.00  0.00    +0.035 A 
ATOM     23  C   UNL     1     -14.075   7.118  20.058  0.00  0.00    +0.035 A 
ATOM     24  C   UNL     1     -15.732   7.824  18.449  0.00  0.00    +0.023 A 
ATOM     27  C   UNL     1     -13.065   7.632  19.244  0.00  0.00    +0.057 A 
ATOM     28  C   UNL     1     -14.724   8.337  17.635  0.00  0.00    +0.002 A 
ATOM     32  C   UNL     1     -13.390   8.242  18.032  0.00  0.00    +0.012 A 
BRANCH  27  34
ATOM      1  F   UNL     1     -11.031   8.741  19.837  0.00  0.00    -0.166 F 
ATOM      2  F   UNL     1     -11.468   6.877  20.855  0.00  0.00    -0.166 F 
ATOM      3  F   UNL     1     -10.870   6.857  18.765  0.00  0.00    -0.166 F 
ATOM     34  C   UNL     1     -11.641   7.530  19.668  0.00  0.00    +0.417 C 
ENDBRANCH  27  34
ENDBRANCH   8  20
BRANCH  10  14
ATOM     14  C   UNL     1     -15.160   5.143  23.804  0.00  0.00    +0.002 C 
ATOM     16  C   UNL     1     -14.774   6.558  23.428  0.00  0.00    +0.004 C 
ENDBRANCH  10  14
BRANCH   9  15
ATOM     15  C   UNL     1     -16.385   2.795  25.318  0.00  0.00    +0.099 C 
BRANCH  15  17
ATOM      4  O   UNL     1     -17.929   3.368  27.089  0.00  0.00    -0.276 OA
ATOM      7  N   UNL     1     -15.649   3.306  27.538  0.00  0.00    -0.311 N 
ATOM     17  C   UNL     1     -16.770   3.185  26.728  0.00  0.00    +0.214 C 
ATOM     37  H   UNL     1     -14.725   3.131  27.154  0.00  0.00    +0.149 HD
BRANCH   7  19
ATOM     19  C   UNL     1     -15.720   3.670  28.935  0.00  0.00    +0.140 C 
BRANCH  19  21
ATOM     21  C   UNL     1     -15.435   2.502  29.834  0.00  0.00    -0.023 A 
ATOM     22  C   UNL     1     -15.159   2.665  31.202  0.00  0.00    -0.013 A 
ATOM     25  C   UNL     1     -15.454   1.231  29.258  0.00  0.00    +0.006 A 
ATOM     26  C   UNL     1     -14.899   1.523  31.996  0.00  0.00    -0.018 A 
ATOM     29  C   UNL     1     -15.136   3.936  31.799  0.00  0.00    +0.009 A 
ATOM     30  C   UNL     1     -15.198   0.108  30.039  0.00  0.00    +0.001 A 
ATOM     31  C   UNL     1     -14.923   0.251  31.399  0.00  0.00    +0.008 A 
ATOM     33  C   UNL     1     -14.624   1.685  33.364  0.00  0.00    +0.008 A 
ATOM     35  C   UNL     1     -14.861   4.079  33.159  0.00  0.00    +0.001 A 
ATOM     36  C   UNL     1     -14.604   2.956  33.940  0.00  0.00    +0.001 A 
ENDBRANCH  19  21
ENDBRANCH   7  19
ENDBRANCH  15  17
ENDBRANCH   9  15
TORSDOF 7
ENDMDL
MODEL 3
REMARK VINA RESULT:      -7.6     20.018     23.205
REMARK  Name = 11913177
REMARK  8 active torsions:
REMARK  status: ('A' for Active; 'I' for Inactive)
REMARK    1  A    between atoms: N_7  and  C_19
REMARK    2  A    between atoms: N_8  and  C_20
REMARK    3  A    between atoms: C_9  and  C_15
REMARK    4  A    between atoms: C_10  and  C_14
REMARK    5  A    between atoms: C_14  and  C_16
REMARK    6  A    between atoms: C_15  and  C_17
REMARK    7  A    between atoms: C_19  and  C_21
REMARK    8  A    between atoms: C_27  and  C_34
REMARK                            x       y       z     vdW  Elec       q    Type
REMARK                         _______ _______ _______ _____ _____    ______ ____
ROOT
ATOM      5  O   UNL     1     -16.705   6.852  18.503  0.00  0.00    -0.252 OA
ATOM      6  N   UNL     1     -15.967   7.156  20.671  0.00  0.00    -0.285 N 
ATOM      8  N   UNL     1     -14.921   8.285  18.883  0.00  0.00    -0.269 N 
ATOM      9  C   UNL     1     -15.318   5.663  23.063  0.00  0.00    +0.004 C 
ATOM     10  C   UNL     1     -14.326   6.700  22.474  0.00  0.00    +0.010 C 
ATOM     11  C   UNL     1     -16.267   5.102  21.988  0.00  0.00    +0.023 C 
ATOM     12  C   UNL     1     -15.108   7.771  21.694  0.00  0.00    +0.113 C 
ATOM     13  C   UNL     1     -16.956   6.222  21.211  0.00  0.00    +0.109 C 
ATOM     18  C   UNL     1     -15.926   7.404  19.283  0.00  0.00    +0.306 C 
ATOM     38  H   UNL     1     -14.617   8.999  19.535  0.00  0.00    +0.156 HD
ENDROOT
BRANCH   8  20
ATOM     20  C   UNL     1     -14.237   8.303  17.642  0.00  0.00    +0.035 A 
ATOM     23  C   UNL     1     -12.845   8.377  17.615  0.00  0.00    +0.035 A 
ATOM     24  C   UNL     1     -14.956   8.246  16.449  0.00  0.00    +0.023 A 
ATOM     27  C   UNL     1     -12.171   8.394  16.394  0.00  0.00    +0.057 A 
ATOM     28  C   UNL     1     -14.283   8.264  15.228  0.00  0.00    +0.002 A 
ATOM     32  C   UNL     1     -12.891   8.337  15.199  0.00  0.00    +0.012 A 
BRANCH  27  34
ATOM      1  F   UNL     1     -10.206   9.639  15.835  0.00  0.00    -0.166 F 
ATOM      2  F   UNL     1     -10.104   8.379  17.597  0.00  0.00    -0.166 F 
ATOM      3  F   UNL     1     -10.119   7.478  15.618  0.00  0.00    -0.166 F 
ATOM     34  C   UNL     1     -10.683   8.473  16.363  0.00  0.00    +0.417 C 
ENDBRANCH  27  34
ENDBRANCH   8  20
BRANCH  10  14
ATOM     14  C   UNL     1     -13.231   6.089  21.593  0.00  0.00    +0.002 C 
ATOM     16  C   UNL     1     -12.296   7.155  21.064  0.00  0.00    +0.004 C 
ENDBRANCH  10  14
BRANCH   9  15
ATOM     15  C   UNL     1     -14.622   4.526  23.813  0.00  0.00    +0.099 C 
BRANCH  15  17
ATOM      4  O   UNL     1     -15.910   2.531  24.271  0.00  0.00    -0.276 OA
ATOM      7  N   UNL     1     -16.081   4.353  25.703  0.00  0.00    -0.311 N 
ATOM     17  C   UNL     1     -15.597   3.673  24.594  0.00  0.00    +0.214 C 
ATOM     37  H   UNL     1     -15.763   5.299  25.895  0.00  0.00    +0.149 HD
BRANCH   7  19
ATOM     19  C   UNL     1     -17.031   3.780  26.628  0.00  0.00    +0.140 C 
BRANCH  19  21
ATOM     21  C   UNL     1     -16.681   4.089  28.055  0.00  0.00    -0.023 A 
ATOM     22  C   UNL     1     -16.186   3.108  28.930  0.00  0.00    -0.013 A 
ATOM     25  C   UNL     1     -16.868   5.402  28.490  0.00  0.00    +0.006 A 
ATOM     26  C   UNL     1     -15.875   3.464  30.263  0.00  0.00    -0.018 A 
ATOM     29  C   UNL     1     -15.991   1.782  28.510  0.00  0.00    +0.009 A 
ATOM     30  C   UNL     1     -16.562   5.752  29.802  0.00  0.00    +0.001 A 
ATOM     31  C   UNL     1     -16.068   4.790  30.684  0.00  0.00    +0.008 A 
ATOM     33  C   UNL     1     -15.378   2.484  31.138  0.00  0.00    +0.008 A 
ATOM     35  C   UNL     1     -15.498   0.821  29.392  0.00  0.00    +0.001 A 
ATOM     36  C   UNL     1     -15.192   1.171  30.704  0.00  0.00    +0.001 A 
ENDBRANCH  19  21
ENDBRANCH   7  19
ENDBRANCH  15  17
ENDBRANCH   9  15
TORSDOF 7
ENDMDL
MODEL 4
REMARK VINA RESULT:      -7.6      1.656      2.115
REMARK  Name = 11913177
REMARK  8 active torsions:
REMARK  status: ('A' for Active; 'I' for Inactive)
REMARK    1  A    between atoms: N_7  and  C_19
REMARK    2  A    between atoms: N_8  and  C_20
REMARK    3  A    between atoms: C_9  and  C_15
REMARK    4  A    between atoms: C_10  and  C_14
REMARK    5  A    between atoms: C_14  and  C_16
REMARK    6  A    between atoms: C_15  and  C_17
REMARK    7  A    between atoms: C_19  and  C_21
REMARK    8  A    between atoms: C_27  and  C_34
REMARK                            x       y       z     vdW  Elec       q    Type
REMARK                         _______ _______ _______ _____ _____    ______ ____
ROOT
ATOM      5  O   UNL     1      -8.387 -13.695  16.991  0.00  0.00    -0.252 OA
ATOM      6  N   UNL     1      -6.210 -13.232  17.616  0.00  0.00    -0.285 N 
ATOM      8  N   UNL     1      -7.948 -13.184  19.211  0.00  0.00    -0.269 N 
ATOM      9  C   UNL     1      -3.897 -11.710  16.777  0.00  0.00    +0.004 C 
ATOM     10  C   UNL     1      -4.441 -11.605  18.226  0.00  0.00    +0.010 C 
ATOM     11  C   UNL     1      -4.992 -12.138  15.783  0.00  0.00    +0.023 C 
ATOM     12  C   UNL     1      -5.164 -12.911  18.599  0.00  0.00    +0.113 C 
ATOM     13  C   UNL     1      -5.711 -13.403  16.251  0.00  0.00    +0.109 C 
ATOM     18  C   UNL     1      -7.585 -13.403  17.882  0.00  0.00    +0.306 C 
ATOM     38  H   UNL     1      -7.264 -13.370  19.935  0.00  0.00    +0.156 HD
ENDROOT
BRANCH   8  20
ATOM     20  C   UNL     1      -9.191 -12.705  19.695  0.00  0.00    +0.035 A 
ATOM     23  C   UNL     1     -10.000 -13.530  20.476  0.00  0.00    +0.035 A 
ATOM     24  C   UNL     1      -9.605 -11.409  19.390  0.00  0.00    +0.023 A 
ATOM     27  C   UNL     1     -11.223 -13.059  20.953  0.00  0.00    +0.057 A 
ATOM     28  C   UNL     1     -10.827 -10.937  19.866  0.00  0.00    +0.002 A 
ATOM     32  C   UNL     1     -11.637 -11.761  20.648  0.00  0.00    +0.012 A 
BRANCH  27  34
ATOM      1  F   UNL     1     -11.928 -15.270  21.529  0.00  0.00    -0.166 F 
ATOM      2  F   UNL     1     -11.870 -13.809  23.130  0.00  0.00    -0.166 F 
ATOM      3  F   UNL     1     -13.419 -13.690  21.608  0.00  0.00    -0.166 F 
ATOM     34  C   UNL     1     -12.088 -13.939  21.787  0.00  0.00    +0.417 C 
ENDBRANCH  27  34
ENDBRANCH   8  20
BRANCH  10  14
ATOM     14  C   UNL     1      -5.358 -10.399  18.464  0.00  0.00    +0.002 C 
ATOM     16  C   UNL     1      -5.988 -10.454  19.840  0.00  0.00    +0.004 C 
ENDBRANCH  10  14
BRANCH   9  15
ATOM     15  C   UNL     1      -3.207 -10.431  16.301  0.00  0.00    +0.099 C 
BRANCH  15  17
ATOM      4  O   UNL     1      -1.111 -11.185  15.359  0.00  0.00    -0.276 OA
ATOM      7  N   UNL     1      -2.741 -10.304  13.957  0.00  0.00    -0.311 N 
ATOM     17  C   UNL     1      -2.222 -10.693  15.183  0.00  0.00    +0.214 C 
ATOM     37  H   UNL     1      -3.676  -9.908  13.905  0.00  0.00    +0.149 HD
BRANCH   7  19
ATOM     19  C   UNL     1      -2.016 -10.437  12.714  0.00  0.00    +0.140 C 
BRANCH  19  21
ATOM     21  C   UNL     1      -2.749 -11.298  11.726  0.00  0.00    -0.023 A 
ATOM     22  C   UNL     1      -3.398 -10.758  10.604  0.00  0.00    -0.013 A 
ATOM     25  C   UNL     1      -2.764 -12.674  11.963  0.00  0.00    +0.006 A 
ATOM     26  C   UNL     1      -4.071 -11.623   9.710  0.00  0.00    -0.018 A 
ATOM     29  C   UNL     1      -3.394  -9.376  10.350  0.00  0.00    +0.009 A 
ATOM     30  C   UNL     1      -3.425 -13.526  11.084  0.00  0.00    +0.001 A 
ATOM     31  C   UNL     1      -4.075 -13.005   9.964  0.00  0.00    +0.008 A 
ATOM     33  C   UNL     1      -4.720 -11.083   8.588  0.00  0.00    +0.008 A 
ATOM     35  C   UNL     1      -4.044  -8.857   9.230  0.00  0.00    +0.001 A 
ATOM     36  C   UNL     1      -4.706  -9.709   8.351  0.00  0.00    +0.001 A 
ENDBRANCH  19  21
ENDBRANCH   7  19
ENDBRANCH  15  17
ENDBRANCH   9  15
TORSDOF 7
ENDMDL
MODEL 5
REMARK VINA RESULT:      -7.6      4.104      9.504
REMARK  Name = 11913177
REMARK  8 active torsions:
REMARK  status: ('A' for Active; 'I' for Inactive)
REMARK    1  A    between atoms: N_7  and  C_19
REMARK    2  A    between atoms: N_8  and  C_20
REMARK    3  A    between atoms: C_9  and  C_15
REMARK    4  A    between atoms: C_10  and  C_14
REMARK    5  A    between atoms: C_14  and  C_16
REMARK    6  A    between atoms: C_15  and  C_17
REMARK    7  A    between atoms: C_19  and  C_21
REMARK    8  A    between atoms: C_27  and  C_34
REMARK                            x       y       z     vdW  Elec       q    Type
REMARK                         _______ _______ _______ _____ _____    ______ ____
ROOT
ATOM      5  O   UNL     1      -2.134 -11.327  15.440  0.00  0.00    -0.252 OA
ATOM      6  N   UNL     1      -4.269 -11.909  16.107  0.00  0.00    -0.285 N 
ATOM      8  N   UNL     1      -3.774 -11.600  13.821  0.00  0.00    -0.269 N 
ATOM      9  C   UNL     1      -6.280 -11.233  18.075  0.00  0.00    +0.004 C 
ATOM     10  C   UNL     1      -6.628 -11.295  16.564  0.00  0.00    +0.010 C 
ATOM     11  C   UNL     1      -4.786 -10.943  18.308  0.00  0.00    +0.023 C 
ATOM     12  C   UNL     1      -5.672 -12.271  15.857  0.00  0.00    +0.113 C 
ATOM     13  C   UNL     1      -3.899 -11.909  17.523  0.00  0.00    +0.109 C 
ATOM     18  C   UNL     1      -3.297 -11.600  15.132  0.00  0.00    +0.306 C 
ATOM     38  H   UNL     1      -4.549 -12.210  13.589  0.00  0.00    +0.156 HD
ENDROOT
BRANCH   8  20
ATOM     20  C   UNL     1      -3.304 -10.819  12.736  0.00  0.00    +0.035 A 
ATOM     23  C   UNL     1      -4.211 -10.267  11.831  0.00  0.00    +0.035 A 
ATOM     24  C   UNL     1      -1.937 -10.601  12.574  0.00  0.00    +0.023 A 
ATOM     27  C   UNL     1      -3.749  -9.497  10.763  0.00  0.00    +0.057 A 
ATOM     28  C   UNL     1      -1.475  -9.832  11.506  0.00  0.00    +0.002 A 
ATOM     32  C   UNL     1      -2.380  -9.280  10.600  0.00  0.00    +0.012 A 
BRANCH  27  34
ATOM      1  F   UNL     1      -4.223  -8.795   8.526  0.00  0.00    -0.166 F 
ATOM      2  F   UNL     1      -5.869  -9.629   9.664  0.00  0.00    -0.166 F 
ATOM      3  F   UNL     1      -5.111  -7.649  10.146  0.00  0.00    -0.166 F 
ATOM     34  C   UNL     1      -4.716  -8.908   9.795  0.00  0.00    +0.417 C 
ENDBRANCH  27  34
ENDBRANCH   8  20
BRANCH  10  14
ATOM     14  C   UNL     1      -6.615  -9.932  15.863  0.00  0.00    +0.002 C 
ATOM     16  C   UNL     1      -7.021 -10.060  14.409  0.00  0.00    +0.004 C 
ENDBRANCH  10  14
BRANCH   9  15
ATOM     15  C   UNL     1      -7.149 -10.242  18.849  0.00  0.00    +0.099 C 
BRANCH  15  17
ATOM      4  O   UNL     1      -9.135 -11.609  19.048  0.00  0.00    -0.276 OA
ATOM      7  N   UNL     1      -9.307  -9.470  18.157  0.00  0.00    -0.311 N 
ATOM     17  C   UNL     1      -8.625 -10.544  18.711  0.00  0.00    +0.214 C 
ATOM     37  H   UNL     1      -8.802  -8.623  17.910  0.00  0.00    +0.149 HD
BRANCH   7  19
ATOM     19  C   UNL     1     -10.730  -9.482  17.908  0.00  0.00    +0.140 C 
BRANCH  19  21
ATOM     21  C   UNL     1     -11.157  -8.334  17.039  0.00  0.00    -0.023 A 
ATOM     22  C   UNL     1     -12.504  -8.105  16.715  0.00  0.00    -0.013 A 
ATOM     25  C   UNL     1     -10.156  -7.489  16.556  0.00  0.00    +0.006 A 
ATOM     26  C   UNL     1     -12.841  -7.005  15.891  0.00  0.00    -0.018 A 
ATOM     29  C   UNL     1     -13.525  -8.944  17.192  0.00  0.00    +0.009 A 
ATOM     30  C   UNL     1     -10.487  -6.407  15.746  0.00  0.00    +0.001 A 
ATOM     31  C   UNL     1     -11.820  -6.166  15.415  0.00  0.00    +0.008 A 
ATOM     33  C   UNL     1     -14.189  -6.776  15.568  0.00  0.00    +0.008 A 
ATOM     35  C   UNL     1     -14.858  -8.702  16.860  0.00  0.00    +0.001 A 
ATOM     36  C   UNL     1     -15.190  -7.619  16.050  0.00  0.00    +0.001 A 
ENDBRANCH  19  21
ENDBRANCH   7  19
ENDBRANCH  15  17
ENDBRANCH   9  15
TORSDOF 7
ENDMDL
MODEL 6
REMARK VINA RESULT:      -7.5     26.928     30.912
REMARK  Name = 11913177
REMARK  8 active torsions:
REMARK  status: ('A' for Active; 'I' for Inactive)
REMARK    1  A    between atoms: N_7  and  C_19
REMARK    2  A    between atoms: N_8  and  C_20
REMARK    3  A    between atoms: C_9  and  C_15
REMARK    4  A    between atoms: C_10  and  C_14
REMARK    5  A    between atoms: C_14  and  C_16
REMARK    6  A    between atoms: C_15  and  C_17
REMARK    7  A    between atoms: C_19  and  C_21
REMARK    8  A    between atoms: C_27  and  C_34
REMARK                            x       y       z     vdW  Elec       q    Type
REMARK                         _______ _______ _______ _____ _____    ______ ____
ROOT
ATOM      5  O   UNL     1      11.540   6.446   4.021  0.00  0.00    -0.252 OA
ATOM      6  N   UNL     1      13.662   7.288   4.382  0.00  0.00    -0.285 N 
ATOM      8  N   UNL     1      12.307   6.643   6.202  0.00  0.00    -0.269 N 
ATOM      9  C   UNL     1      15.410   9.436   3.541  0.00  0.00    +0.004 C 
ATOM     10  C   UNL     1      15.159   9.151   5.045  0.00  0.00    +0.010 C 
ATOM     11  C   UNL     1      14.244   8.946   2.662  0.00  0.00    +0.023 C 
ATOM     12  C   UNL     1      14.800   7.667   5.234  0.00  0.00    +0.113 C 
ATOM     13  C   UNL     1      13.900   7.485   2.951  0.00  0.00    +0.109 C 
ATOM     18  C   UNL     1      12.431   6.755   4.817  0.00  0.00    +0.306 C 
ATOM     38  H   UNL     1      13.146   6.497   6.751  0.00  0.00    +0.156 HD
ENDROOT
BRANCH   8  20
ATOM     20  C   UNL     1      11.117   6.723   6.967  0.00  0.00    +0.035 A 
ATOM     23  C   UNL     1      10.809   5.717   7.883  0.00  0.00    +0.035 A 
ATOM     24  C   UNL     1      10.256   7.807   6.806  0.00  0.00    +0.023 A 
ATOM     27  C   UNL     1       9.638   5.796   8.638  0.00  0.00    +0.057 A 
ATOM     28  C   UNL     1       9.085   7.886   7.559  0.00  0.00    +0.002 A 
ATOM     32  C   UNL     1       8.775   6.881   8.476  0.00  0.00    +0.012 A 
BRANCH  27  34
ATOM      1  F   UNL     1      10.279   4.514  10.553  0.00  0.00    -0.166 F 
ATOM      2  F   UNL     1       8.170   4.966  10.333  0.00  0.00    -0.166 F 
ATOM      3  F   UNL     1       9.110   3.510   9.020  0.00  0.00    -0.166 F 
ATOM     34  C   UNL     1       9.307   4.722   9.616  0.00  0.00    +0.417 C 
ENDBRANCH  27  34
ENDBRANCH   8  20
BRANCH  10  14
ATOM     14  C   UNL     1      14.089  10.046   5.681  0.00  0.00    +0.002 C 
ATOM     16  C   UNL     1      14.636  10.780   6.887  0.00  0.00    +0.004 C 
ENDBRANCH  10  14
BRANCH   9  15
ATOM     15  C   UNL     1      15.722  10.904   3.253  0.00  0.00    +0.099 C 
BRANCH  15  17
ATOM      4  O   UNL     1      17.055  12.234   4.771  0.00  0.00    -0.276 OA
ATOM      7  N   UNL     1      18.098  10.658   3.419  0.00  0.00    -0.311 N 
ATOM     17  C   UNL     1      17.006  11.357   3.914  0.00  0.00    +0.214 C 
ATOM     37  H   UNL     1      17.962   9.944   2.709  0.00  0.00    +0.149 HD
BRANCH   7  19
ATOM     19  C   UNL     1      19.451  10.886   3.869  0.00  0.00    +0.140 C 
BRANCH  19  21
ATOM     21  C   UNL     1      19.904   9.834   4.841  0.00  0.00    -0.023 A 
ATOM     22  C   UNL     1      20.569   8.670   4.422  0.00  0.00    -0.013 A 
ATOM     25  C   UNL     1      19.638  10.054   6.193  0.00  0.00    +0.006 A 
ATOM     26  C   UNL     1      20.969   7.716   5.388  0.00  0.00    -0.018 A 
ATOM     29  C   UNL     1      20.845   8.430   3.066  0.00  0.00    +0.009 A 
ATOM     30  C   UNL     1      20.033   9.118   7.143  0.00  0.00    +0.001 A 
ATOM     31  C   UNL     1      20.694   7.956   6.745  0.00  0.00    +0.008 A 
ATOM     33  C   UNL     1      21.635   6.552   4.970  0.00  0.00    +0.008 A 
ATOM     35  C   UNL     1      21.506   7.268   2.668  0.00  0.00    +0.001 A 
ATOM     36  C   UNL     1      21.901   6.331   3.619  0.00  0.00    +0.001 A 
ENDBRANCH  19  21
ENDBRANCH   7  19
ENDBRANCH  15  17
ENDBRANCH   9  15
TORSDOF 7
ENDMDL
MODEL 7
REMARK VINA RESULT:      -7.5     26.735     31.437
REMARK  Name = 11913177
REMARK  8 active torsions:
REMARK  status: ('A' for Active; 'I' for Inactive)
REMARK    1  A    between atoms: N_7  and  C_19
REMARK    2  A    between atoms: N_8  and  C_20
REMARK    3  A    between atoms: C_9  and  C_15
REMARK    4  A    between atoms: C_10  and  C_14
REMARK    5  A    between atoms: C_14  and  C_16
REMARK    6  A    between atoms: C_15  and  C_17
REMARK    7  A    between atoms: C_19  and  C_21
REMARK    8  A    between atoms: C_27  and  C_34
REMARK                            x       y       z     vdW  Elec       q    Type
REMARK                         _______ _______ _______ _____ _____    ______ ____
ROOT
ATOM      5  O   UNL     1      15.871   6.949   4.441  0.00  0.00    -0.252 OA
ATOM      6  N   UNL     1      14.755   8.965   4.256  0.00  0.00    -0.285 N 
ATOM      8  N   UNL     1      17.113   8.904   4.301  0.00  0.00    -0.269 N 
ATOM      9  C   UNL     1      12.530  10.423   5.393  0.00  0.00    +0.004 C 
ATOM     10  C   UNL     1      13.932  11.074   5.266  0.00  0.00    +0.010 C 
ATOM     11  C   UNL     1      12.615   8.887   5.462  0.00  0.00    +0.023 C 
ATOM     12  C   UNL     1      14.696  10.426   4.099  0.00  0.00    +0.113 C 
ATOM     13  C   UNL     1      13.443   8.320   4.310  0.00  0.00    +0.109 C 
ATOM     18  C   UNL     1      15.923   8.177   4.330  0.00  0.00    +0.306 C 
ATOM     38  H   UNL     1      17.127   9.787   3.803  0.00  0.00    +0.156 HD
ENDROOT
BRANCH   8  20
ATOM     20  C   UNL     1      18.346   8.561   4.910  0.00  0.00    +0.035 A 
ATOM     23  C   UNL     1      19.359   7.975   4.151  0.00  0.00    +0.035 A 
ATOM     24  C   UNL     1      18.546   8.809   6.267  0.00  0.00    +0.023 A 
ATOM     27  C   UNL     1      20.573   7.637   4.750  0.00  0.00    +0.057 A 
ATOM     28  C   UNL     1      19.758   8.471   6.866  0.00  0.00    +0.002 A 
ATOM     32  C   UNL     1      20.772   7.885   6.109  0.00  0.00    +0.012 A 
BRANCH  27  34
ATOM      1  F   UNL     1      22.860   7.645   4.051  0.00  0.00    -0.166 F 
ATOM      2  F   UNL     1      21.908   5.711   4.277  0.00  0.00    -0.166 F 
ATOM      3  F   UNL     1      21.372   6.995   2.606  0.00  0.00    -0.166 F 
ATOM     34  C   UNL     1      21.656   7.011   3.941  0.00  0.00    +0.417 C 
ENDBRANCH  27  34
ENDBRANCH   8  20
BRANCH  10  14
ATOM     14  C   UNL     1      14.767  11.016   6.550  0.00  0.00    +0.002 C 
ATOM     16  C   UNL     1      16.110  11.690   6.362  0.00  0.00    +0.004 C 
ENDBRANCH  10  14
BRANCH   9  15
ATOM     15  C   UNL     1      11.718  10.972   6.566  0.00  0.00    +0.099 C 
BRANCH  15  17
ATOM      4  O   UNL     1      10.773   9.504   8.241  0.00  0.00    -0.276 OA
ATOM      7  N   UNL     1       9.788   9.620   6.140  0.00  0.00    -0.311 N 
ATOM     17  C   UNL     1      10.729   9.959   7.102  0.00  0.00    +0.214 C 
ATOM     37  H   UNL     1       9.826  10.051   5.221  0.00  0.00    +0.149 HD
BRANCH   7  19
ATOM     19  C   UNL     1       8.724   8.672   6.376  0.00  0.00    +0.140 C 
BRANCH  19  21
ATOM     21  C   UNL     1       9.139   7.268   6.042  0.00  0.00    -0.023 A 
ATOM     22  C   UNL     1       9.269   6.275   7.026  0.00  0.00    -0.013 A 
ATOM     25  C   UNL     1       9.395   6.978   4.701  0.00  0.00    +0.006 A 
ATOM     26  C   UNL     1       9.664   4.971   6.646  0.00  0.00    -0.018 A 
ATOM     29  C   UNL     1       9.016   6.548   8.381  0.00  0.00    +0.009 A 
ATOM     30  C   UNL     1       9.783   5.696   4.326  0.00  0.00    +0.001 A 
ATOM     31  C   UNL     1       9.917   4.697   5.292  0.00  0.00    +0.008 A 
ATOM     33  C   UNL     1       9.794   3.977   7.631  0.00  0.00    +0.008 A 
ATOM     35  C   UNL     1       9.150   5.550   9.346  0.00  0.00    +0.001 A 
ATOM     36  C   UNL     1       9.538   4.266   8.971  0.00  0.00    +0.001 A 
ENDBRANCH  19  21
ENDBRANCH   7  19
ENDBRANCH  15  17
ENDBRANCH   9  15
TORSDOF 7
ENDMDL
MODEL 8
REMARK VINA RESULT:      -7.4     25.912     28.318
REMARK  Name = 11913177
REMARK  8 active torsions:
REMARK  status: ('A' for Active; 'I' for Inactive)
REMARK    1  A    between atoms: N_7  and  C_19
REMARK    2  A    between atoms: N_8  and  C_20
REMARK    3  A    between atoms: C_9  and  C_15
REMARK    4  A    between atoms: C_10  and  C_14
REMARK    5  A    between atoms: C_14  and  C_16
REMARK    6  A    between atoms: C_15  and  C_17
REMARK    7  A    between atoms: C_19  and  C_21
REMARK    8  A    between atoms: C_27  and  C_34
REMARK                            x       y       z     vdW  Elec       q    Type
REMARK                         _______ _______ _______ _____ _____    ______ ____
ROOT
ATOM      5  O   UNL     1       8.623   7.632   8.278  0.00  0.00    -0.252 OA
ATOM      6  N   UNL     1      10.236   7.018   6.740  0.00  0.00    -0.285 N 
ATOM      8  N   UNL     1      10.393   9.078   7.879  0.00  0.00    -0.269 N 
ATOM      9  C   UNL     1      10.511   5.897   4.087  0.00  0.00    +0.004 C 
ATOM     10  C   UNL     1      11.245   7.205   4.483  0.00  0.00    +0.010 C 
ATOM     11  C   UNL     1       9.249   5.668   4.938  0.00  0.00    +0.023 C 
ATOM     12  C   UNL     1      11.492   7.215   6.002  0.00  0.00    +0.113 C 
ATOM     13  C   UNL     1       9.558   5.758   6.432  0.00  0.00    +0.109 C 
ATOM     18  C   UNL     1       9.676   7.896   7.692  0.00  0.00    +0.306 C 
ATOM     38  H   UNL     1      11.395   9.063   7.728  0.00  0.00    +0.156 HD
ENDROOT
BRANCH   8  20
ATOM     20  C   UNL     1       9.880  10.345   8.252  0.00  0.00    +0.035 A 
ATOM     23  C   UNL     1       9.821  10.704   9.598  0.00  0.00    +0.035 A 
ATOM     24  C   UNL     1       9.434  11.232   7.274  0.00  0.00    +0.023 A 
ATOM     27  C   UNL     1       9.316  11.951   9.967  0.00  0.00    +0.057 A 
ATOM     28  C   UNL     1       8.929  12.479   7.641  0.00  0.00    +0.002 A 
ATOM     32  C   UNL     1       8.870  12.839   8.987  0.00  0.00    +0.012 A 
BRANCH  27  34
ATOM      1  F   UNL     1       9.525  13.654  11.633  0.00  0.00    -0.166 F 
ATOM      2  F   UNL     1       8.029  12.122  11.975  0.00  0.00    -0.166 F 
ATOM      3  F   UNL     1      10.140  11.641  12.174  0.00  0.00    -0.166 F 
ATOM     34  C   UNL     1       9.252  12.336  11.405  0.00  0.00    +0.417 C 
ENDBRANCH  27  34
ENDBRANCH   8  20
BRANCH  10  14
ATOM     14  C   UNL     1      10.521   8.485   4.050  0.00  0.00    +0.002 C 
ATOM     16  C   UNL     1      11.324   9.717   4.413  0.00  0.00    +0.004 C 
ENDBRANCH  10  14
BRANCH   9  15
ATOM     15  C   UNL     1      10.176   5.826   2.596  0.00  0.00    +0.099 C 
BRANCH  15  17
ATOM      4  O   UNL     1       9.975   3.782   1.320  0.00  0.00    -0.276 OA
ATOM      7  N   UNL     1      12.045   4.388   2.185  0.00  0.00    -0.311 N 
ATOM     17  C   UNL     1      10.686   4.554   1.955  0.00  0.00    +0.214 C 
ATOM     37  H   UNL     1      12.556   5.083   2.721  0.00  0.00    +0.149 HD
BRANCH   7  19
ATOM     19  C   UNL     1      12.796   3.258   1.690  0.00  0.00    +0.140 C 
BRANCH  19  21
ATOM     21  C   UNL     1      13.751   3.653   0.600  0.00  0.00    -0.023 A 
ATOM     22  C   UNL     1      13.377   3.657  -0.753  0.00  0.00    -0.013 A 
ATOM     25  C   UNL     1      15.042   4.022   0.983  0.00  0.00    +0.006 A 
ATOM     26  C   UNL     1      14.325   4.039  -1.732  0.00  0.00    -0.018 A 
ATOM     29  C   UNL     1      12.083   3.288  -1.157  0.00  0.00    +0.009 A 
ATOM     30  C   UNL     1      15.974   4.399   0.021  0.00  0.00    +0.001 A 
ATOM     31  C   UNL     1      15.619   4.409  -1.329  0.00  0.00    +0.008 A 
ATOM     33  C   UNL     1      13.950   4.044  -3.086  0.00  0.00    +0.008 A 
ATOM     35  C   UNL     1      11.729   3.298  -2.506  0.00  0.00    +0.001 A 
ATOM     36  C   UNL     1      12.661   3.675  -3.469  0.00  0.00    +0.001 A 
ENDBRANCH  19  21
ENDBRANCH   7  19
ENDBRANCH  15  17
ENDBRANCH   9  15
TORSDOF 7
ENDMDL
MODEL 9
REMARK VINA RESULT:      -7.2     27.432     29.632
REMARK  Name = 11913177
REMARK  8 active torsions:
REMARK  status: ('A' for Active; 'I' for Inactive)
REMARK    1  A    between atoms: N_7  and  C_19
REMARK    2  A    between atoms: N_8  and  C_20
REMARK    3  A    between atoms: C_9  and  C_15
REMARK    4  A    between atoms: C_10  and  C_14
REMARK    5  A    between atoms: C_14  and  C_16
REMARK    6  A    between atoms: C_15  and  C_17
REMARK    7  A    between atoms: C_19  and  C_21
REMARK    8  A    between atoms: C_27  and  C_34
REMARK                            x       y       z     vdW  Elec       q    Type
REMARK                         _______ _______ _______ _____ _____    ______ ____
ROOT
ATOM      5  O   UNL     1     -10.888   7.304  37.357  0.00  0.00    -0.252 OA
ATOM      6  N   UNL     1      -9.710   9.272  37.074  0.00  0.00    -0.285 N 
ATOM      8  N   UNL     1     -11.811   8.978  36.042  0.00  0.00    -0.269 N 
ATOM      9  C   UNL     1      -7.047  10.244  36.496  0.00  0.00    +0.004 C 
ATOM     10  C   UNL     1      -8.274  10.746  35.691  0.00  0.00    +0.010 C 
ATOM     11  C   UNL     1      -7.289   8.848  37.100  0.00  0.00    +0.023 C 
ATOM     12  C   UNL     1      -9.538  10.640  36.561  0.00  0.00    +0.113 C 
ATOM     13  C   UNL     1      -8.594   8.800  37.894  0.00  0.00    +0.109 C 
ATOM     18  C   UNL     1     -10.825   8.433  36.865  0.00  0.00    +0.306 C 
ATOM     38  H   UNL     1     -11.923   9.985  36.023  0.00  0.00    +0.156 HD
ENDROOT
BRANCH   8  20
ATOM     20  C   UNL     1     -12.699   8.279  35.187  0.00  0.00    +0.035 A 
ATOM     23  C   UNL     1     -13.132   6.997  35.529  0.00  0.00    +0.035 A 
ATOM     24  C   UNL     1     -13.141   8.872  34.006  0.00  0.00    +0.023 A 
ATOM     27  C   UNL     1     -14.007   6.309  34.688  0.00  0.00    +0.057 A 
ATOM     28  C   UNL     1     -14.016   8.185  33.165  0.00  0.00    +0.002 A 
ATOM     32  C   UNL     1     -14.449   6.903  33.505  0.00  0.00    +0.012 A 
BRANCH  27  34
ATOM      1  F   UNL     1     -15.826   4.829  35.156  0.00  0.00    -0.166 F 
ATOM      2  F   UNL     1     -14.103   3.981  34.149  0.00  0.00    -0.166 F 
ATOM      3  F   UNL     1     -13.975   4.519  36.252  0.00  0.00    -0.166 F 
ATOM     34  C   UNL     1     -14.469   4.940  35.051  0.00  0.00    +0.417 C 
ENDBRANCH  27  34
ENDBRANCH   8  20
BRANCH  10  14
ATOM     14  C   UNL     1      -8.482  10.024  34.354  0.00  0.00    +0.002 C 
ATOM     16  C   UNL     1      -9.679  10.581  33.612  0.00  0.00    +0.004 C 
ENDBRANCH  10  14
BRANCH   9  15
ATOM     15  C   UNL     1      -5.749  10.263  35.687  0.00  0.00    +0.099 C 
BRANCH  15  17
ATOM      4  O   UNL     1      -4.132  11.318  37.144  0.00  0.00    -0.276 OA
ATOM      7  N   UNL     1      -3.913   9.059  36.642  0.00  0.00    -0.311 N 
ATOM     17  C   UNL     1      -4.523  10.304  36.572  0.00  0.00    +0.214 C 
ATOM     37  H   UNL     1      -4.310   8.272  36.136  0.00  0.00    +0.149 HD
BRANCH   7  19
ATOM     19  C   UNL     1      -2.719   8.807  37.415  0.00  0.00    +0.140 C 
BRANCH  19  21
ATOM     21  C   UNL     1      -3.026   8.107  38.708  0.00  0.00    -0.023 A 
ATOM     22  C   UNL     1      -2.198   7.096  39.222  0.00  0.00    -0.013 A 
ATOM     25  C   UNL     1      -4.177   8.500  39.391  0.00  0.00    +0.006 A 
ATOM     26  C   UNL     1      -2.542   6.475  40.446  0.00  0.00    -0.018 A 
ATOM     29  C   UNL     1      -1.035   6.687  38.548  0.00  0.00    +0.009 A 
ATOM     30  C   UNL     1      -4.516   7.891  40.595  0.00  0.00    +0.001 A 
ATOM     31  C   UNL     1      -3.704   6.884  41.121  0.00  0.00    +0.008 A 
ATOM     33  C   UNL     1      -1.714   5.464  40.961  0.00  0.00    +0.008 A 
ATOM     35  C   UNL     1      -0.224   5.681  39.074  0.00  0.00    +0.001 A 
ATOM     36  C   UNL     1      -0.563   5.071  40.278  0.00  0.00    +0.001 A 
ENDBRANCH  19  21
ENDBRANCH   7  19
ENDBRANCH  15  17
ENDBRANCH   9  15
TORSDOF 7
ENDMDL
MODEL 10
REMARK VINA RESULT:      -7.1      1.167      2.213
REMARK  Name = 11913177
REMARK  8 active torsions:
REMARK  status: ('A' for Active; 'I' for Inactive)
REMARK    1  A    between atoms: N_7  and  C_19
REMARK    2  A    between atoms: N_8  and  C_20
REMARK    3  A    between atoms: C_9  and  C_15
REMARK    4  A    between atoms: C_10  and  C_14
REMARK    5  A    between atoms: C_14  and  C_16
REMARK    6  A    between atoms: C_15  and  C_17
REMARK    7  A    between atoms: C_19  and  C_21
REMARK    8  A    between atoms: C_27  and  C_34
REMARK                            x       y       z     vdW  Elec       q    Type
REMARK                         _______ _______ _______ _____ _____    ______ ____
ROOT
ATOM      5  O   UNL     1      -8.683 -12.852  15.905  0.00  0.00    -0.252 OA
ATOM      6  N   UNL     1      -6.528 -12.923  16.738  0.00  0.00    -0.285 N 
ATOM      8  N   UNL     1      -8.346 -12.447  18.164  0.00  0.00    -0.269 N 
ATOM      9  C   UNL     1      -3.849 -12.008  16.142  0.00  0.00    +0.004 C 
ATOM     10  C   UNL     1      -4.486 -11.765  17.535  0.00  0.00    +0.010 C 
ATOM     11  C   UNL     1      -4.916 -12.166  15.043  0.00  0.00    +0.023 C 
ATOM     12  C   UNL     1      -5.533 -12.856  17.818  0.00  0.00    +0.113 C 
ATOM     13  C   UNL     1      -5.958 -13.218  15.423  0.00  0.00    +0.109 C 
ATOM     18  C   UNL     1      -7.923 -12.756  16.872  0.00  0.00    +0.306 C 
ATOM     38  H   UNL     1      -7.798 -12.787  18.946  0.00  0.00    +0.156 HD
ENDROOT
BRANCH   8  20
ATOM     20  C   UNL     1      -9.477 -11.679  18.538  0.00  0.00    +0.035 A 
ATOM     23  C   UNL     1      -9.881 -10.603  17.748  0.00  0.00    +0.035 A 
ATOM     24  C   UNL     1     -10.186 -12.000  19.695  0.00  0.00    +0.023 A 
ATOM     27  C   UNL     1     -10.994  -9.848  18.115  0.00  0.00    +0.057 A 
ATOM     28  C   UNL     1     -11.299 -11.245  20.063  0.00  0.00    +0.002 A 
ATOM     32  C   UNL     1     -11.704 -10.169  19.274  0.00  0.00    +0.012 A 
BRANCH  27  34
ATOM      1  F   UNL     1     -12.749  -8.382  17.411  0.00  0.00    -0.166 F 
ATOM      2  F   UNL     1     -10.756  -7.538  17.543  0.00  0.00    -0.166 F 
ATOM      3  F   UNL     1     -11.243  -8.924  15.940  0.00  0.00    -0.166 F 
ATOM     34  C   UNL     1     -11.427  -8.697  17.273  0.00  0.00    +0.417 C 
ENDBRANCH  27  34
ENDBRANCH   8  20
BRANCH  10  14
ATOM     14  C   UNL     1      -5.103 -10.373  17.706  0.00  0.00    +0.002 C 
ATOM     16  C   UNL     1      -5.863 -10.268  19.012  0.00  0.00    +0.004 C 
ENDBRANCH  10  14
BRANCH   9  15
ATOM     15  C   UNL     1      -2.830 -10.936  15.753  0.00  0.00    +0.099 C 
BRANCH  15  17
ATOM      4  O   UNL     1      -1.373 -12.299  14.385  0.00  0.00    -0.276 OA
ATOM      7  N   UNL     1      -2.274 -10.348  13.500  0.00  0.00    -0.311 N 
ATOM     17  C   UNL     1      -2.072 -11.296  14.493  0.00  0.00    +0.214 C 
ATOM     37  H   UNL     1      -2.874  -9.548  13.678  0.00  0.00    +0.149 HD
BRANCH   7  19
ATOM     19  C   UNL     1      -1.669 -10.436  12.191  0.00  0.00    +0.140 C 
BRANCH  19  21
ATOM     21  C   UNL     1      -2.696 -10.420  11.096  0.00  0.00    -0.023 A 
ATOM     22  C   UNL     1      -3.394 -11.577  10.713  0.00  0.00    -0.013 A 
ATOM     25  C   UNL     1      -2.938  -9.201  10.462  0.00  0.00    +0.006 A 
ATOM     26  C   UNL     1      -4.351 -11.496   9.673  0.00  0.00    -0.018 A 
ATOM     29  C   UNL     1      -3.164 -12.813  11.339  0.00  0.00    +0.009 A 
ATOM     30  C   UNL     1      -3.879  -9.120   9.440  0.00  0.00    +0.001 A 
ATOM     31  C   UNL     1      -4.582 -10.260   9.047  0.00  0.00    +0.008 A 
ATOM     33  C   UNL     1      -5.050 -12.653   9.290  0.00  0.00    +0.008 A 
ATOM     35  C   UNL     1      -3.867 -13.953  10.946  0.00  0.00    +0.001 A 
ATOM     36  C   UNL     1      -4.808 -13.873   9.923  0.00  0.00    +0.001 A 
ENDBRANCH  19  21
ENDBRANCH   7  19
ENDBRANCH  15  17
ENDBRANCH   9  15
TORSDOF 7
ENDMDL
