MODEL 1
REMARK VINA RESULT:      -7.1      0.000      0.000
REMARK  Name = 11911719
REMARK  7 active torsions:
REMARK  status: ('A' for Active; 'I' for Inactive)
REMARK    1  A    between atoms: N_5  and  C_12
REMARK    2  A    between atoms: N_6  and  C_13
REMARK    3  A    between atoms: N_9  and  C_28
REMARK    4  A    between atoms: N_9  and  C_31
REMARK    5  A    between atoms: N_9  and  C_32
REMARK    6  A    between atoms: C_17  and  C_18
REMARK    7  A    between atoms: C_19  and  C_23
REMARK                            x       y       z     vdW  Elec       q    Type
REMARK                         _______ _______ _______ _____ _____    ______ ____
ROOT
ATOM      5  N   UNL     1      -3.448 -10.314  12.266  0.00  0.00    -0.306 N 
ATOM      7  N   UNL     1      -4.170 -10.697  14.466  0.00  0.00    -0.214 NA
ATOM      8  N   UNL     1      -1.838 -10.339  13.973  0.00  0.00    -0.223 NA
ATOM     16  C   UNL     1      -3.143 -10.454  13.608  0.00  0.00    +0.216 A 
ATOM     19  C   UNL     1      -3.836 -10.828  15.766  0.00  0.00    +0.076 A 
ATOM     21  C   UNL     1      -1.576 -10.482  15.289  0.00  0.00    +0.116 A 
ATOM     22  C   UNL     1      -2.545 -10.729  16.241  0.00  0.00    +0.048 A 
ATOM     33  H   UNL     1      -2.670 -10.186  11.629  0.00  0.00    +0.149 HD
ENDROOT
BRANCH   5  12
ATOM      1  O   UNL     1      -4.977  -8.666  10.139  0.00  0.00    -0.370 OA
ATOM      2  O   UNL     1      -6.036 -11.599  10.034  0.00  0.00    -0.370 OA
ATOM     10  C   UNL     1      -4.758 -11.025  10.355  0.00  0.00    +0.171 C 
ATOM     11  C   UNL     1      -4.551  -9.842   9.430  0.00  0.00    +0.171 C 
ATOM     12  C   UNL     1      -4.791 -10.414  11.736  0.00  0.00    +0.130 C 
ATOM     13  C   UNL     1      -5.473 -10.119   8.267  0.00  0.00    +0.130 C 
ATOM     14  C   UNL     1      -5.356  -9.029  11.474  0.00  0.00    +0.185 C 
ATOM     15  C   UNL     1      -6.606 -10.887   8.925  0.00  0.00    +0.185 C 
BRANCH  13   6
ATOM      3  O   UNL     1      -6.154 -10.254   5.480  0.00  0.00    -0.267 OA
ATOM      6  N   UNL     1      -4.818 -10.915   7.258  0.00  0.00    -0.301 N 
ATOM     17  C   UNL     1      -5.220 -10.914   5.930  0.00  0.00    +0.280 C 
ATOM     34  H   UNL     1      -4.064 -11.534   7.542  0.00  0.00    +0.150 HD
BRANCH  17  18
ATOM      4  O   UNL     1      -5.005 -12.005   3.822  0.00  0.00    -0.458 OA
ATOM     18  C   UNL     1      -4.459 -11.809   5.019  0.00  0.00    +0.189 A 
ATOM     20  C   UNL     1      -3.305 -12.447   5.223  0.00  0.00    +0.054 A 
ATOM     24  C   UNL     1      -3.076 -13.142   4.012  0.00  0.00    +0.042 A 
ATOM     25  C   UNL     1      -4.138 -12.841   3.192  0.00  0.00    +0.196 A 
ENDBRANCH  17  18
ENDBRANCH  13   6
ENDBRANCH   5  12
BRANCH  19  23
ATOM     23  C   UNL     1      -4.941 -11.086  16.659  0.00  0.00    +0.001 A 
ATOM     26  C   UNL     1      -6.143 -11.590  16.158  0.00  0.00    +0.012 A 
ATOM     27  C   UNL     1      -4.813 -10.830  18.025  0.00  0.00    +0.012 A 
ATOM     28  C   UNL     1      -7.081 -11.581  18.384  0.00  0.00    +0.029 A 
ATOM     29  C   UNL     1      -7.212 -11.837  17.019  0.00  0.00    +0.024 A 
ATOM     30  C   UNL     1      -5.882 -11.078  18.888  0.00  0.00    +0.024 A 
BRANCH  28   9
ATOM      9  N   UNL     1      -8.162 -11.833  19.255  0.00  0.00    -0.336 N 
ATOM     31  C   UNL     1      -8.204 -13.052  20.038  0.00  0.00    +0.129 C 
ATOM     32  C   UNL     1      -9.249 -10.881  19.370  0.00  0.00    +0.129 C 
ENDBRANCH  28   9
ENDBRANCH  19  23
TORSDOF 5
ENDMDL
MODEL 2
REMARK VINA RESULT:      -7.1     28.014     32.189
REMARK  Name = 11911719
REMARK  7 active torsions:
REMARK  status: ('A' for Active; 'I' for Inactive)
REMARK    1  A    between atoms: N_5  and  C_12
REMARK    2  A    between atoms: N_6  and  C_13
REMARK    3  A    between atoms: N_9  and  C_28
REMARK    4  A    between atoms: N_9  and  C_31
REMARK    5  A    between atoms: N_9  and  C_32
REMARK    6  A    between atoms: C_17  and  C_18
REMARK    7  A    between atoms: C_19  and  C_23
REMARK                            x       y       z     vdW  Elec       q    Type
REMARK                         _______ _______ _______ _____ _____    ______ ____
ROOT
ATOM      5  N   UNL     1      10.890  10.871  22.723  0.00  0.00    -0.306 N 
ATOM      7  N   UNL     1      12.343   9.184  21.979  0.00  0.00    -0.214 NA
ATOM      8  N   UNL     1      10.024   8.708  22.439  0.00  0.00    -0.223 NA
ATOM     16  C   UNL     1      11.091   9.548  22.370  0.00  0.00    +0.216 A 
ATOM     19  C   UNL     1      12.502   7.887  21.642  0.00  0.00    +0.076 A 
ATOM     21  C   UNL     1      10.257   7.426  22.088  0.00  0.00    +0.116 A 
ATOM     22  C   UNL     1      11.487   6.954  21.678  0.00  0.00    +0.048 A 
ATOM     33  H   UNL     1       9.968  11.120  23.062  0.00  0.00    +0.149 HD
ENDROOT
BRANCH   5  12
ATOM      1  O   UNL     1      11.157  13.633  24.092  0.00  0.00    -0.370 OA
ATOM      2  O   UNL     1      14.016  12.417  23.803  0.00  0.00    -0.370 OA
ATOM     10  C   UNL     1      12.714  11.837  23.992  0.00  0.00    +0.171 C 
ATOM     11  C   UNL     1      11.942  12.756  24.917  0.00  0.00    +0.171 C 
ATOM     12  C   UNL     1      11.933  11.873  22.699  0.00  0.00    +0.130 C 
ATOM     13  C   UNL     1      13.015  13.535  25.641  0.00  0.00    +0.130 C 
ATOM     14  C   UNL     1      11.325  13.264  22.716  0.00  0.00    +0.185 C 
ATOM     15  C   UNL     1      14.123  13.603  24.605  0.00  0.00    +0.185 C 
BRANCH  13   6
ATOM      3  O   UNL     1      14.568  14.635  27.792  0.00  0.00    -0.267 OA
ATOM      6  N   UNL     1      13.452  12.843  26.829  0.00  0.00    -0.301 N 
ATOM     17  C   UNL     1      14.202  13.462  27.819  0.00  0.00    +0.280 C 
ATOM     34  H   UNL     1      13.241  11.854  26.920  0.00  0.00    +0.150 HD
BRANCH  17  18
ATOM      4  O   UNL     1      15.111  11.421  28.648  0.00  0.00    -0.458 OA
ATOM     18  C   UNL     1      14.596  12.606  28.968  0.00  0.00    +0.189 A 
ATOM     20  C   UNL     1      14.511  12.848  30.277  0.00  0.00    +0.054 A 
ATOM     24  C   UNL     1      15.033  11.679  30.880  0.00  0.00    +0.042 A 
ATOM     25  C   UNL     1      15.384  10.841  29.847  0.00  0.00    +0.196 A 
ENDBRANCH  17  18
ENDBRANCH  13   6
ENDBRANCH   5  12
BRANCH  19  23
ATOM     23  C   UNL     1      13.838   7.523  21.232  0.00  0.00    +0.001 A 
ATOM     26  C   UNL     1      14.932   7.854  22.034  0.00  0.00    +0.012 A 
ATOM     27  C   UNL     1      14.040   6.840  20.031  0.00  0.00    +0.012 A 
ATOM     28  C   UNL     1      16.421   6.822  20.437  0.00  0.00    +0.029 A 
ATOM     29  C   UNL     1      16.223   7.504  21.637  0.00  0.00    +0.024 A 
ATOM     30  C   UNL     1      15.331   6.489  19.634  0.00  0.00    +0.024 A 
BRANCH  28   9
ATOM      9  N   UNL     1      17.727   6.466  20.036  0.00  0.00    -0.336 N 
ATOM     31  C   UNL     1      18.876   6.920  20.794  0.00  0.00    +0.129 C 
ATOM     32  C   UNL     1      17.936   5.653  18.855  0.00  0.00    +0.129 C 
ENDBRANCH  28   9
ENDBRANCH  19  23
TORSDOF 5
ENDMDL
MODEL 3
REMARK VINA RESULT:      -6.9     25.699     29.261
REMARK  Name = 11911719
REMARK  7 active torsions:
REMARK  status: ('A' for Active; 'I' for Inactive)
REMARK    1  A    between atoms: N_5  and  C_12
REMARK    2  A    between atoms: N_6  and  C_13
REMARK    3  A    between atoms: N_9  and  C_28
REMARK    4  A    between atoms: N_9  and  C_31
REMARK    5  A    between atoms: N_9  and  C_32
REMARK    6  A    between atoms: C_17  and  C_18
REMARK    7  A    between atoms: C_19  and  C_23
REMARK                            x       y       z     vdW  Elec       q    Type
REMARK                         _______ _______ _______ _____ _____    ______ ____
ROOT
ATOM      5  N   UNL     1      13.345  12.501  14.504  0.00  0.00    -0.306 N 
ATOM      7  N   UNL     1      12.107  12.250  12.526  0.00  0.00    -0.214 NA
ATOM      8  N   UNL     1      12.109  14.340  13.728  0.00  0.00    -0.223 NA
ATOM     16  C   UNL     1      12.495  13.047  13.558  0.00  0.00    +0.216 A 
ATOM     19  C   UNL     1      11.279  12.815  11.623  0.00  0.00    +0.076 A 
ATOM     21  C   UNL     1      11.281  14.839  12.788  0.00  0.00    +0.116 A 
ATOM     22  C   UNL     1      10.828  14.116  11.703  0.00  0.00    +0.048 A 
ATOM     33  H   UNL     1      13.585  13.086  15.296  0.00  0.00    +0.149 HD
ENDROOT
BRANCH   5  12
ATOM      1  O   UNL     1      15.462  10.980  16.172  0.00  0.00    -0.370 OA
ATOM      2  O   UNL     1      13.284   8.933  15.275  0.00  0.00    -0.370 OA
ATOM     10  C   UNL     1      13.247  10.336  15.588  0.00  0.00    +0.171 C 
ATOM     11  C   UNL     1      14.207  10.566  16.738  0.00  0.00    +0.171 C 
ATOM     12  C   UNL     1      13.833  11.140  14.451  0.00  0.00    +0.130 C 
ATOM     13  C   UNL     1      14.343   9.206  17.382  0.00  0.00    +0.130 C 
ATOM     14  C   UNL     1      15.321  11.104  14.749  0.00  0.00    +0.185 C 
ATOM     15  C   UNL     1      14.156   8.268  16.203  0.00  0.00    +0.185 C 
BRANCH  13   6
ATOM      3  O   UNL     1      14.183   7.017  19.234  0.00  0.00    -0.267 OA
ATOM      6  N   UNL     1      13.325   8.997  18.383  0.00  0.00    -0.301 N 
ATOM     17  C   UNL     1      13.332   7.904  19.237  0.00  0.00    +0.280 C 
ATOM     34  H   UNL     1      12.550   9.652  18.431  0.00  0.00    +0.150 HD
BRANCH  17  18
ATOM      4  O   UNL     1      12.106   6.676  20.870  0.00  0.00    -0.458 OA
ATOM     18  C   UNL     1      12.199   7.819  20.195  0.00  0.00    +0.189 A 
ATOM     20  C   UNL     1      11.258   8.720  20.480  0.00  0.00    +0.054 A 
ATOM     24  C   UNL     1      10.456   8.085  21.458  0.00  0.00    +0.042 A 
ATOM     25  C   UNL     1      11.013   6.844  21.661  0.00  0.00    +0.196 A 
ENDBRANCH  17  18
ENDBRANCH  13   6
ENDBRANCH   5  12
BRANCH  19  23
ATOM     23  C   UNL     1      10.878  11.952  10.537  0.00  0.00    +0.001 A 
ATOM     26  C   UNL     1      11.822  11.517   9.603  0.00  0.00    +0.012 A 
ATOM     27  C   UNL     1       9.547  11.551  10.414  0.00  0.00    +0.012 A 
ATOM     28  C   UNL     1      10.104  10.286   8.433  0.00  0.00    +0.029 A 
ATOM     29  C   UNL     1      11.435  10.685   8.552  0.00  0.00    +0.024 A 
ATOM     30  C   UNL     1       9.159  10.718   9.364  0.00  0.00    +0.024 A 
BRANCH  28   9
ATOM      9  N   UNL     1       9.713   9.443   7.371  0.00  0.00    -0.336 N 
ATOM     31  C   UNL     1       9.164   8.130   7.641  0.00  0.00    +0.129 C 
ATOM     32  C   UNL     1       9.868   9.875   5.996  0.00  0.00    +0.129 C 
ENDBRANCH  28   9
ENDBRANCH  19  23
TORSDOF 5
ENDMDL
MODEL 4
REMARK VINA RESULT:      -6.9      7.603      8.741
REMARK  Name = 11911719
REMARK  7 active torsions:
REMARK  status: ('A' for Active; 'I' for Inactive)
REMARK    1  A    between atoms: N_5  and  C_12
REMARK    2  A    between atoms: N_6  and  C_13
REMARK    3  A    between atoms: N_9  and  C_28
REMARK    4  A    between atoms: N_9  and  C_31
REMARK    5  A    between atoms: N_9  and  C_32
REMARK    6  A    between atoms: C_17  and  C_18
REMARK    7  A    between atoms: C_19  and  C_23
REMARK                            x       y       z     vdW  Elec       q    Type
REMARK                         _______ _______ _______ _____ _____    ______ ____
ROOT
ATOM      5  N   UNL     1      -9.078  -8.362  15.942  0.00  0.00    -0.306 N 
ATOM      7  N   UNL     1      -8.972 -10.076  17.542  0.00  0.00    -0.214 NA
ATOM      8  N   UNL     1      -6.969  -9.228  16.501  0.00  0.00    -0.223 NA
ATOM     16  C   UNL     1      -8.317  -9.248  16.684  0.00  0.00    +0.216 A 
ATOM     19  C   UNL     1      -8.199 -10.926  18.249  0.00  0.00    +0.076 A 
ATOM     21  C   UNL     1      -6.259 -10.105  17.240  0.00  0.00    +0.116 A 
ATOM     22  C   UNL     1      -6.825 -10.986  18.139  0.00  0.00    +0.048 A 
ATOM     33  H   UNL     1      -8.586  -7.787  15.268  0.00  0.00    +0.149 HD
ENDROOT
BRANCH   5  12
ATOM      1  O   UNL     1     -10.989  -6.006  16.551  0.00  0.00    -0.370 OA
ATOM      2  O   UNL     1     -12.457  -7.965  14.616  0.00  0.00    -0.370 OA
ATOM     10  C   UNL     1     -11.075  -7.609  14.795  0.00  0.00    +0.171 C 
ATOM     11  C   UNL     1     -11.031  -6.129  15.120  0.00  0.00    +0.171 C 
ATOM     12  C   UNL     1     -10.520  -8.275  16.032  0.00  0.00    +0.130 C 
ATOM     13  C   UNL     1     -12.338  -5.595  14.584  0.00  0.00    +0.130 C 
ATOM     14  C   UNL     1     -10.919  -7.314  17.137  0.00  0.00    +0.185 C 
ATOM     15  C   UNL     1     -13.266  -6.786  14.744  0.00  0.00    +0.185 C 
BRANCH  13   6
ATOM      3  O   UNL     1     -13.718  -3.442  13.276  0.00  0.00    -0.267 OA
ATOM      6  N   UNL     1     -12.217  -5.209  13.199  0.00  0.00    -0.301 N 
ATOM     17  C   UNL     1     -12.928  -4.149  12.655  0.00  0.00    +0.280 C 
ATOM     34  H   UNL     1     -11.624  -5.766  12.590  0.00  0.00    +0.150 HD
BRANCH  17  18
ATOM      4  O   UNL     1     -13.816  -3.724  10.485  0.00  0.00    -0.458 OA
ATOM     18  C   UNL     1     -12.712  -3.895  11.207  0.00  0.00    +0.189 A 
ATOM     20  C   UNL     1     -11.571  -3.813  10.519  0.00  0.00    +0.054 A 
ATOM     24  C   UNL     1     -11.986  -3.559   9.190  0.00  0.00    +0.042 A 
ATOM     25  C   UNL     1     -13.361  -3.513   9.222  0.00  0.00    +0.196 A 
ENDBRANCH  17  18
ENDBRANCH  13   6
ENDBRANCH   5  12
BRANCH  19  23
ATOM     23  C   UNL     1      -8.914 -11.795  19.153  0.00  0.00    +0.001 A 
ATOM     26  C   UNL     1     -10.184 -11.437  19.612  0.00  0.00    +0.012 A 
ATOM     27  C   UNL     1      -8.339 -12.995  19.573  0.00  0.00    +0.012 A 
ATOM     28  C   UNL     1     -10.297 -13.473  20.905  0.00  0.00    +0.029 A 
ATOM     29  C   UNL     1     -10.874 -12.275  20.487  0.00  0.00    +0.024 A 
ATOM     30  C   UNL     1      -9.029 -13.835  20.448  0.00  0.00    +0.024 A 
BRANCH  28   9
ATOM      9  N   UNL     1     -10.996 -14.322  21.789  0.00  0.00    -0.336 N 
ATOM     31  C   UNL     1     -10.534 -15.675  22.027  0.00  0.00    +0.129 C 
ATOM     32  C   UNL     1     -12.192 -13.856  22.461  0.00  0.00    +0.129 C 
ENDBRANCH  28   9
ENDBRANCH  19  23
TORSDOF 5
ENDMDL
MODEL 5
REMARK VINA RESULT:      -6.8      3.741      9.443
REMARK  Name = 11911719
REMARK  7 active torsions:
REMARK  status: ('A' for Active; 'I' for Inactive)
REMARK    1  A    between atoms: N_5  and  C_12
REMARK    2  A    between atoms: N_6  and  C_13
REMARK    3  A    between atoms: N_9  and  C_28
REMARK    4  A    between atoms: N_9  and  C_31
REMARK    5  A    between atoms: N_9  and  C_32
REMARK    6  A    between atoms: C_17  and  C_18
REMARK    7  A    between atoms: C_19  and  C_23
REMARK                            x       y       z     vdW  Elec       q    Type
REMARK                         _______ _______ _______ _____ _____    ______ ____
ROOT
ATOM      5  N   UNL     1      -3.573 -11.684  16.819  0.00  0.00    -0.306 N 
ATOM      7  N   UNL     1      -3.285 -11.340  14.515  0.00  0.00    -0.214 NA
ATOM      8  N   UNL     1      -1.778 -10.346  16.113  0.00  0.00    -0.223 NA
ATOM     16  C   UNL     1      -2.857 -11.106  15.785  0.00  0.00    +0.216 A 
ATOM     19  C   UNL     1      -2.564 -10.760  13.533  0.00  0.00    +0.076 A 
ATOM     21  C   UNL     1      -1.104  -9.798  15.081  0.00  0.00    +0.116 A 
ATOM     22  C   UNL     1      -1.455  -9.973  13.757  0.00  0.00    +0.048 A 
ATOM     33  H   UNL     1      -3.277 -11.461  17.762  0.00  0.00    +0.149 HD
ENDROOT
BRANCH   5  12
ATOM      1  O   UNL     1      -5.986 -12.360  18.635  0.00  0.00    -0.370 OA
ATOM      2  O   UNL     1      -6.965 -12.396  15.672  0.00  0.00    -0.370 OA
ATOM     10  C   UNL     1      -5.953 -11.646  16.365  0.00  0.00    +0.171 C 
ATOM     11  C   UNL     1      -6.487 -11.343  17.751  0.00  0.00    +0.171 C 
ATOM     12  C   UNL     1      -4.742 -12.513  16.618  0.00  0.00    +0.130 C 
ATOM     13  C   UNL     1      -7.985 -11.466  17.603  0.00  0.00    +0.130 C 
ATOM     14  C   UNL     1      -5.106 -13.228  17.906  0.00  0.00    +0.185 C 
ATOM     15  C   UNL     1      -8.119 -12.519  16.517  0.00  0.00    +0.185 C 
BRANCH  13   6
ATOM      3  O   UNL     1     -10.737 -10.693  17.885  0.00  0.00    -0.267 OA
ATOM      6  N   UNL     1      -8.575 -10.214  17.193  0.00  0.00    -0.301 N 
ATOM     17  C   UNL     1      -9.921  -9.930  17.372  0.00  0.00    +0.280 C 
ATOM     34  H   UNL     1      -7.990  -9.537  16.712  0.00  0.00    +0.150 HD
BRANCH  17  18
ATOM      4  O   UNL     1      -9.546  -7.993  16.035  0.00  0.00    -0.458 OA
ATOM     18  C   UNL     1     -10.379  -8.608  16.871  0.00  0.00    +0.189 A 
ATOM     20  C   UNL     1     -11.505  -7.942  17.136  0.00  0.00    +0.054 A 
ATOM     24  C   UNL     1     -11.388  -6.751  16.381  0.00  0.00    +0.042 A 
ATOM     25  C   UNL     1     -10.179  -6.830  15.728  0.00  0.00    +0.196 A 
ENDBRANCH  17  18
ENDBRANCH  13   6
ENDBRANCH   5  12
BRANCH  19  23
ATOM     23  C   UNL     1      -3.037 -11.020  12.193  0.00  0.00    +0.001 A 
ATOM     26  C   UNL     1      -3.304  -9.959  11.326  0.00  0.00    +0.012 A 
ATOM     27  C   UNL     1      -3.230 -12.334  11.761  0.00  0.00    +0.012 A 
ATOM     28  C   UNL     1      -3.955 -11.522   9.604  0.00  0.00    +0.029 A 
ATOM     29  C   UNL     1      -3.763 -10.209  10.033  0.00  0.00    +0.024 A 
ATOM     30  C   UNL     1      -3.688 -12.585  10.467  0.00  0.00    +0.024 A 
BRANCH  28   9
ATOM      9  N   UNL     1      -4.417 -11.775   8.295  0.00  0.00    -0.336 N 
ATOM     31  C   UNL     1      -4.214 -13.074   7.684  0.00  0.00    +0.129 C 
ATOM     32  C   UNL     1      -5.089 -10.737   7.541  0.00  0.00    +0.129 C 
ENDBRANCH  28   9
ENDBRANCH  19  23
TORSDOF 5
ENDMDL
MODEL 6
REMARK VINA RESULT:      -6.8     27.780     30.748
REMARK  Name = 11911719
REMARK  7 active torsions:
REMARK  status: ('A' for Active; 'I' for Inactive)
REMARK    1  A    between atoms: N_5  and  C_12
REMARK    2  A    between atoms: N_6  and  C_13
REMARK    3  A    between atoms: N_9  and  C_28
REMARK    4  A    between atoms: N_9  and  C_31
REMARK    5  A    between atoms: N_9  and  C_32
REMARK    6  A    between atoms: C_17  and  C_18
REMARK    7  A    between atoms: C_19  and  C_23
REMARK                            x       y       z     vdW  Elec       q    Type
REMARK                         _______ _______ _______ _____ _____    ______ ____
ROOT
ATOM      5  N   UNL     1      10.564  10.562  22.956  0.00  0.00    -0.306 N 
ATOM      7  N   UNL     1      12.006  11.585  24.500  0.00  0.00    -0.214 NA
ATOM      8  N   UNL     1       9.947  12.649  23.835  0.00  0.00    -0.223 NA
ATOM     16  C   UNL     1      10.847  11.631  23.788  0.00  0.00    +0.216 A 
ATOM     19  C   UNL     1      12.250  12.643  25.299  0.00  0.00    +0.076 A 
ATOM     21  C   UNL     1      10.256  13.674  24.656  0.00  0.00    +0.116 A 
ATOM     22  C   UNL     1      11.404  13.726  25.420  0.00  0.00    +0.048 A 
ATOM     33  H   UNL     1       9.724  10.630  22.392  0.00  0.00    +0.149 HD
ENDROOT
BRANCH   5  12
ATOM      1  O   UNL     1      10.567   8.203  20.953  0.00  0.00    -0.370 OA
ATOM      2  O   UNL     1      13.523   8.784  21.768  0.00  0.00    -0.370 OA
ATOM     10  C   UNL     1      12.358   9.615  21.631  0.00  0.00    +0.171 C 
ATOM     11  C   UNL     1      11.571   9.096  20.444  0.00  0.00    +0.171 C 
ATOM     12  C   UNL     1      11.430   9.413  22.806  0.00  0.00    +0.130 C 
ATOM     13  C   UNL     1      12.592   8.333  19.632  0.00  0.00    +0.130 C 
ATOM     14  C   UNL     1      10.622   8.197  22.387  0.00  0.00    +0.185 C 
ATOM     15  C   UNL     1      13.543   7.824  20.701  0.00  0.00    +0.185 C 
BRANCH  13   6
ATOM      3  O   UNL     1      13.274   7.719  16.910  0.00  0.00    -0.267 OA
ATOM      6  N   UNL     1      13.270   9.199  18.698  0.00  0.00    -0.301 N 
ATOM     17  C   UNL     1      13.557   8.812  17.397  0.00  0.00    +0.280 C 
ATOM     34  H   UNL     1      13.590  10.107  19.022  0.00  0.00    +0.150 HD
BRANCH  17  18
ATOM      4  O   UNL     1      14.493   9.455  15.301  0.00  0.00    -0.458 OA
ATOM     18  C   UNL     1      14.284   9.808  16.567  0.00  0.00    +0.189 A 
ATOM     20  C   UNL     1      14.759  11.009  16.903  0.00  0.00    +0.054 A 
ATOM     24  C   UNL     1      15.349  11.493  15.711  0.00  0.00    +0.042 A 
ATOM     25  C   UNL     1      15.161  10.511  14.766  0.00  0.00    +0.196 A 
ENDBRANCH  17  18
ENDBRANCH  13   6
ENDBRANCH   5  12
BRANCH  19  23
ATOM     23  C   UNL     1      13.486  12.575  26.044  0.00  0.00    +0.001 A 
ATOM     26  C   UNL     1      14.427  11.586  25.749  0.00  0.00    +0.012 A 
ATOM     27  C   UNL     1      13.742  13.495  27.062  0.00  0.00    +0.012 A 
ATOM     28  C   UNL     1      15.873  12.439  27.486  0.00  0.00    +0.029 A 
ATOM     29  C   UNL     1      15.619  11.518  26.470  0.00  0.00    +0.024 A 
ATOM     30  C   UNL     1      14.935  13.428  27.782  0.00  0.00    +0.024 A 
BRANCH  28   9
ATOM      9  N   UNL     1      17.081  12.371  28.213  0.00  0.00    -0.336 N 
ATOM     31  C   UNL     1      17.356  13.326  29.268  0.00  0.00    +0.129 C 
ATOM     32  C   UNL     1      18.065  11.353  27.907  0.00  0.00    +0.129 C 
ENDBRANCH  28   9
ENDBRANCH  19  23
TORSDOF 5
ENDMDL
MODEL 7
REMARK VINA RESULT:      -6.7     21.109     22.307
REMARK  Name = 11911719
REMARK  7 active torsions:
REMARK  status: ('A' for Active; 'I' for Inactive)
REMARK    1  A    between atoms: N_5  and  C_12
REMARK    2  A    between atoms: N_6  and  C_13
REMARK    3  A    between atoms: N_9  and  C_28
REMARK    4  A    between atoms: N_9  and  C_31
REMARK    5  A    between atoms: N_9  and  C_32
REMARK    6  A    between atoms: C_17  and  C_18
REMARK    7  A    between atoms: C_19  and  C_23
REMARK                            x       y       z     vdW  Elec       q    Type
REMARK                         _______ _______ _______ _____ _____    ______ ____
ROOT
ATOM      5  N   UNL     1     -16.149   4.151  22.522  0.00  0.00    -0.306 N 
ATOM      7  N   UNL     1     -16.342   3.204  24.661  0.00  0.00    -0.214 NA
ATOM      8  N   UNL     1     -17.232   2.078  22.724  0.00  0.00    -0.223 NA
ATOM     16  C   UNL     1     -16.588   3.113  23.326  0.00  0.00    +0.216 A 
ATOM     19  C   UNL     1     -16.783   2.175  25.413  0.00  0.00    +0.076 A 
ATOM     21  C   UNL     1     -17.646   1.085  23.537  0.00  0.00    +0.116 A 
ATOM     22  C   UNL     1     -17.447   1.079  24.903  0.00  0.00    +0.048 A 
ATOM     33  H   UNL     1     -16.384   4.099  21.538  0.00  0.00    +0.149 HD
ENDROOT
BRANCH   5  12
ATOM      1  O   UNL     1     -13.193   5.050  22.345  0.00  0.00    -0.370 OA
ATOM      2  O   UNL     1     -14.979   7.608  22.418  0.00  0.00    -0.370 OA
ATOM     10  C   UNL     1     -15.179   6.282  21.899  0.00  0.00    +0.171 C 
ATOM     11  C   UNL     1     -13.854   5.819  21.326  0.00  0.00    +0.171 C 
ATOM     12  C   UNL     1     -15.453   5.315  23.027  0.00  0.00    +0.130 C 
ATOM     13  C   UNL     1     -13.099   7.100  21.061  0.00  0.00    +0.130 C 
ATOM     14  C   UNL     1     -14.057   4.933  23.485  0.00  0.00    +0.185 C 
ATOM     15  C   UNL     1     -13.631   8.021  22.145  0.00  0.00    +0.185 C 
BRANCH  13   6
ATOM      3  O   UNL     1     -11.301   7.214  18.825  0.00  0.00    -0.267 OA
ATOM      6  N   UNL     1     -13.392   7.616  19.746  0.00  0.00    -0.301 N 
ATOM     17  C   UNL     1     -12.454   7.629  18.724  0.00  0.00    +0.280 C 
ATOM     34  H   UNL     1     -14.306   8.028  19.578  0.00  0.00    +0.150 HD
BRANCH  17  18
ATOM      4  O   UNL     1     -11.931   8.535  16.583  0.00  0.00    -0.458 OA
ATOM     18  C   UNL     1     -12.902   8.218  17.436  0.00  0.00    +0.189 A 
ATOM     20  C   UNL     1     -14.138   8.478  17.004  0.00  0.00    +0.054 A 
ATOM     24  C   UNL     1     -13.946   9.031  15.716  0.00  0.00    +0.042 A 
ATOM     25  C   UNL     1     -12.586   9.045  15.506  0.00  0.00    +0.196 A 
ENDBRANCH  17  18
ENDBRANCH  13   6
ENDBRANCH   5  12
BRANCH  19  23
ATOM     23  C   UNL     1     -16.513   2.292  26.827  0.00  0.00    +0.001 A 
ATOM     26  C   UNL     1     -16.155   3.527  27.372  0.00  0.00    +0.012 A 
ATOM     27  C   UNL     1     -16.607   1.171  27.654  0.00  0.00    +0.012 A 
ATOM     28  C   UNL     1     -15.986   2.518  29.560  0.00  0.00    +0.029 A 
ATOM     29  C   UNL     1     -15.892   3.640  28.737  0.00  0.00    +0.024 A 
ATOM     30  C   UNL     1     -16.345   1.283  29.019  0.00  0.00    +0.024 A 
BRANCH  28   9
ATOM      9  N   UNL     1     -15.722   2.633  30.942  0.00  0.00    -0.336 N 
ATOM     31  C   UNL     1     -15.031   1.572  31.647  0.00  0.00    +0.129 C 
ATOM     32  C   UNL     1     -16.148   3.808  31.675  0.00  0.00    +0.129 C 
ENDBRANCH  28   9
ENDBRANCH  19  23
TORSDOF 5
ENDMDL
MODEL 8
REMARK VINA RESULT:      -6.7     23.130     26.654
REMARK  Name = 11911719
REMARK  7 active torsions:
REMARK  status: ('A' for Active; 'I' for Inactive)
REMARK    1  A    between atoms: N_5  and  C_12
REMARK    2  A    between atoms: N_6  and  C_13
REMARK    3  A    between atoms: N_9  and  C_28
REMARK    4  A    between atoms: N_9  and  C_31
REMARK    5  A    between atoms: N_9  and  C_32
REMARK    6  A    between atoms: C_17  and  C_18
REMARK    7  A    between atoms: C_19  and  C_23
REMARK                            x       y       z     vdW  Elec       q    Type
REMARK                         _______ _______ _______ _____ _____    ______ ____
ROOT
ATOM      5  N   UNL     1       7.660   6.134  -4.242  0.00  0.00    -0.306 N 
ATOM      7  N   UNL     1       5.434   5.502  -4.637  0.00  0.00    -0.214 NA
ATOM      8  N   UNL     1       5.973   7.721  -3.863  0.00  0.00    -0.223 NA
ATOM     16  C   UNL     1       6.316   6.463  -4.247  0.00  0.00    +0.216 A 
ATOM     19  C   UNL     1       4.133   5.857  -4.629  0.00  0.00    +0.076 A 
ATOM     21  C   UNL     1       4.654   8.007  -3.879  0.00  0.00    +0.116 A 
ATOM     22  C   UNL     1       3.679   7.105  -4.257  0.00  0.00    +0.048 A 
ATOM     33  H   UNL     1       8.303   6.839  -3.901  0.00  0.00    +0.149 HD
ENDROOT
BRANCH   5  12
ATOM      1  O   UNL     1      10.437   5.189  -5.230  0.00  0.00    -0.370 OA
ATOM      2  O   UNL     1       9.130   2.847  -3.634  0.00  0.00    -0.370 OA
ATOM     10  C   UNL     1       9.045   4.279  -3.528  0.00  0.00    +0.171 C 
ATOM     11  C   UNL     1      10.421   4.835  -3.837  0.00  0.00    +0.171 C 
ATOM     12  C   UNL     1       8.168   4.834  -4.625  0.00  0.00    +0.130 C 
ATOM     13  C   UNL     1      11.354   3.674  -3.579  0.00  0.00    +0.130 C 
ATOM     14  C   UNL     1       9.133   4.969  -5.788  0.00  0.00    +0.185 C 
ATOM     15  C   UNL     1      10.486   2.477  -3.925  0.00  0.00    +0.185 C 
BRANCH  13   6
ATOM      3  O   UNL     1      14.033   3.977  -2.589  0.00  0.00    -0.267 OA
ATOM      6  N   UNL     1      11.771   3.636  -2.198  0.00  0.00    -0.301 N 
ATOM     17  C   UNL     1      13.095   3.794  -1.815  0.00  0.00    +0.280 C 
ATOM     34  H   UNL     1      11.074   3.440  -1.486  0.00  0.00    +0.150 HD
BRANCH  17  18
ATOM      4  O   UNL     1      12.295   3.525   0.414  0.00  0.00    -0.458 OA
ATOM     18  C   UNL     1      13.366   3.702  -0.357  0.00  0.00    +0.189 A 
ATOM     20  C   UNL     1      14.526   3.771   0.299  0.00  0.00    +0.054 A 
ATOM     24  C   UNL     1      14.165   3.622   1.659  0.00  0.00    +0.042 A 
ATOM     25  C   UNL     1      12.797   3.475   1.676  0.00  0.00    +0.196 A 
ENDBRANCH  17  18
ENDBRANCH  13   6
ENDBRANCH   5  12
BRANCH  19  23
ATOM     23  C   UNL     1       3.215   4.823  -5.045  0.00  0.00    +0.001 A 
ATOM     26  C   UNL     1       2.014   4.634  -4.356  0.00  0.00    +0.012 A 
ATOM     27  C   UNL     1       3.524   4.008  -6.135  0.00  0.00    +0.012 A 
ATOM     28  C   UNL     1       1.441   2.820  -5.845  0.00  0.00    +0.029 A 
ATOM     29  C   UNL     1       1.128   3.633  -4.756  0.00  0.00    +0.024 A 
ATOM     30  C   UNL     1       2.638   3.007  -6.536  0.00  0.00    +0.024 A 
BRANCH  28   9
ATOM      9  N   UNL     1       0.543   1.810  -6.250  0.00  0.00    -0.336 N 
ATOM     31  C   UNL     1       0.288   0.669  -5.394  0.00  0.00    +0.129 C 
ATOM     32  C   UNL     1      -0.125   1.893  -7.533  0.00  0.00    +0.129 C 
ENDBRANCH  28   9
ENDBRANCH  19  23
TORSDOF 5
ENDMDL
MODEL 9
REMARK VINA RESULT:      -6.6     25.562     27.675
REMARK  Name = 11911719
REMARK  7 active torsions:
REMARK  status: ('A' for Active; 'I' for Inactive)
REMARK    1  A    between atoms: N_5  and  C_12
REMARK    2  A    between atoms: N_6  and  C_13
REMARK    3  A    between atoms: N_9  and  C_28
REMARK    4  A    between atoms: N_9  and  C_31
REMARK    5  A    between atoms: N_9  and  C_32
REMARK    6  A    between atoms: C_17  and  C_18
REMARK    7  A    between atoms: C_19  and  C_23
REMARK                            x       y       z     vdW  Elec       q    Type
REMARK                         _______ _______ _______ _____ _____    ______ ____
ROOT
ATOM      5  N   UNL     1      13.216  13.322  12.325  0.00  0.00    -0.306 N 
ATOM      7  N   UNL     1      13.572  11.867  14.132  0.00  0.00    -0.214 NA
ATOM      8  N   UNL     1      15.421  12.683  12.817  0.00  0.00    -0.223 NA
ATOM     16  C   UNL     1      14.096  12.603  13.115  0.00  0.00    +0.216 A 
ATOM     19  C   UNL     1      14.459  11.178  14.881  0.00  0.00    +0.076 A 
ATOM     21  C   UNL     1      16.249  11.969  13.607  0.00  0.00    +0.116 A 
ATOM     22  C   UNL     1      15.820  11.191  14.664  0.00  0.00    +0.048 A 
ATOM     33  H   UNL     1      13.612  13.824  11.539  0.00  0.00    +0.149 HD
ENDROOT
BRANCH   5  12
ATOM      1  O   UNL     1      10.854  14.010  10.449  0.00  0.00    -0.370 OA
ATOM      2  O   UNL     1       9.889  11.825  12.457  0.00  0.00    -0.370 OA
ATOM     10  C   UNL     1      11.164  12.121  11.861  0.00  0.00    +0.171 C 
ATOM     11  C   UNL     1      10.902  12.574  10.438  0.00  0.00    +0.171 C 
ATOM     12  C   UNL     1      11.783  13.328  12.525  0.00  0.00    +0.130 C 
ATOM     13  C   UNL     1       9.541  12.004  10.116  0.00  0.00    +0.130 C 
ATOM     14  C   UNL     1      11.153  14.484  11.770  0.00  0.00    +0.185 C 
ATOM     15  C   UNL     1       8.859  12.003  11.472  0.00  0.00    +0.185 C 
BRANCH  13   6
ATOM      3  O   UNL     1       9.375  11.244   7.351  0.00  0.00    -0.267 OA
ATOM      6  N   UNL     1       9.646  10.668   9.582  0.00  0.00    -0.301 N 
ATOM     17  C   UNL     1       9.553  10.398   8.224  0.00  0.00    +0.280 C 
ATOM     34  H   UNL     1       9.746   9.892  10.231  0.00  0.00    +0.150 HD
BRANCH  17  18
ATOM      4  O   UNL     1       8.615   8.208   8.170  0.00  0.00    -0.458 OA
ATOM     18  C   UNL     1       9.656   8.967   7.837  0.00  0.00    +0.189 A 
ATOM     20  C   UNL     1      10.640   8.326   7.203  0.00  0.00    +0.054 A 
ATOM     24  C   UNL     1      10.182   6.990   7.114  0.00  0.00    +0.042 A 
ATOM     25  C   UNL     1       8.946   6.969   7.717  0.00  0.00    +0.196 A 
ENDBRANCH  17  18
ENDBRANCH  13   6
ENDBRANCH   5  12
BRANCH  19  23
ATOM     23  C   UNL     1      13.881  10.403  15.954  0.00  0.00    +0.001 A 
ATOM     26  C   UNL     1      12.714   9.667  15.737  0.00  0.00    +0.012 A 
ATOM     27  C   UNL     1      14.485  10.389  17.212  0.00  0.00    +0.012 A 
ATOM     28  C   UNL     1      12.761   8.909  18.029  0.00  0.00    +0.029 A 
ATOM     29  C   UNL     1      12.155   8.921  16.774  0.00  0.00    +0.024 A 
ATOM     30  C   UNL     1      13.927   9.642  18.249  0.00  0.00    +0.024 A 
BRANCH  28   9
ATOM      9  N   UNL     1      12.195   8.152  19.078  0.00  0.00    -0.336 N 
ATOM     31  C   UNL     1      11.025   8.635  19.782  0.00  0.00    +0.129 C 
ATOM     32  C   UNL     1      12.785   6.888  19.471  0.00  0.00    +0.129 C 
ENDBRANCH  28   9
ENDBRANCH  19  23
TORSDOF 5
ENDMDL
MODEL 10
REMARK VINA RESULT:      -6.5      2.704     11.098
REMARK  Name = 11911719
REMARK  7 active torsions:
REMARK  status: ('A' for Active; 'I' for Inactive)
REMARK    1  A    between atoms: N_5  and  C_12
REMARK    2  A    between atoms: N_6  and  C_13
REMARK    3  A    between atoms: N_9  and  C_28
REMARK    4  A    between atoms: N_9  and  C_31
REMARK    5  A    between atoms: N_9  and  C_32
REMARK    6  A    between atoms: C_17  and  C_18
REMARK    7  A    between atoms: C_19  and  C_23
REMARK                            x       y       z     vdW  Elec       q    Type
REMARK                         _______ _______ _______ _____ _____    ______ ____
ROOT
ATOM      5  N   UNL     1      -5.707 -10.166   9.962  0.00  0.00    -0.306 N 
ATOM      7  N   UNL     1      -5.439 -10.747   7.704  0.00  0.00    -0.214 NA
ATOM      8  N   UNL     1      -7.020  -9.051   8.367  0.00  0.00    -0.223 NA
ATOM     16  C   UNL     1      -6.066  -9.982   8.638  0.00  0.00    +0.216 A 
ATOM     19  C   UNL     1      -5.814 -10.541   6.424  0.00  0.00    +0.076 A 
ATOM     21  C   UNL     1      -7.346  -8.899   7.067  0.00  0.00    +0.116 A 
ATOM     22  C   UNL     1      -6.770  -9.624   6.042  0.00  0.00    +0.048 A 
ATOM     33  H   UNL     1      -6.217  -9.629  10.654  0.00  0.00    +0.149 HD
ENDROOT
BRANCH   5  12
ATOM      1  O   UNL     1      -3.067  -9.849  11.546  0.00  0.00    -0.370 OA
ATOM      2  O   UNL     1      -4.268 -12.650  12.218  0.00  0.00    -0.370 OA
ATOM     10  C   UNL     1      -4.856 -11.383  11.876  0.00  0.00    +0.171 C 
ATOM     11  C   UNL     1      -4.012 -10.305  12.528  0.00  0.00    +0.171 C 
ATOM     12  C   UNL     1      -4.710 -11.121  10.396  0.00  0.00    +0.130 C 
ATOM     13  C   UNL     1      -3.300 -11.024  13.650  0.00  0.00    +0.130 C 
ATOM     14  C   UNL     1      -3.323 -10.512  10.300  0.00  0.00    +0.185 C 
ATOM     15  C   UNL     1      -3.152 -12.429  13.094  0.00  0.00    +0.185 C 
BRANCH  13   6
ATOM      3  O   UNL     1      -2.321 -10.749  16.336  0.00  0.00    -0.267 OA
ATOM      6  N   UNL     1      -4.089 -11.019  14.858  0.00  0.00    -0.301 N 
ATOM     17  C   UNL     1      -3.523 -10.880  16.117  0.00  0.00    +0.280 C 
ATOM     34  H   UNL     1      -5.090 -11.171  14.784  0.00  0.00    +0.150 HD
BRANCH  17  18
ATOM      4  O   UNL     1      -5.628 -10.299  17.071  0.00  0.00    -0.458 OA
ATOM     18  C   UNL     1      -4.468 -10.922  17.263  0.00  0.00    +0.189 A 
ATOM     20  C   UNL     1      -4.328 -11.494  18.460  0.00  0.00    +0.054 A 
ATOM     24  C   UNL     1      -5.543 -11.206  19.126  0.00  0.00    +0.042 A 
ATOM     25  C   UNL     1      -6.301 -10.477  18.239  0.00  0.00    +0.196 A 
ENDBRANCH  17  18
ENDBRANCH  13   6
ENDBRANCH   5  12
BRANCH  19  23
ATOM     23  C   UNL     1      -5.137 -11.364   5.449  0.00  0.00    +0.001 A 
ATOM     26  C   UNL     1      -3.861 -11.862   5.719  0.00  0.00    +0.012 A 
ATOM     27  C   UNL     1      -5.755 -11.662   4.233  0.00  0.00    +0.012 A 
ATOM     28  C   UNL     1      -3.826 -12.950   3.562  0.00  0.00    +0.029 A 
ATOM     29  C   UNL     1      -3.206 -12.654   4.776  0.00  0.00    +0.024 A 
ATOM     30  C   UNL     1      -5.101 -12.455   3.291  0.00  0.00    +0.024 A 
BRANCH  28   9
ATOM      9  N   UNL     1      -3.163 -13.754   2.610  0.00  0.00    -0.336 N 
ATOM     31  C   UNL     1      -3.923 -14.539   1.658  0.00  0.00    +0.129 C 
ATOM     32  C   UNL     1      -1.716 -13.813   2.579  0.00  0.00    +0.129 C 
ENDBRANCH  28   9
ENDBRANCH  19  23
TORSDOF 5
ENDMDL
