REMARK  Name = 45783400
REMARK  8 active torsions:
REMARK  status: ('A' for Active; 'I' for Inactive)
REMARK    1  A    between atoms: O_2  and  C_24
REMARK    2  A    between atoms: O_2  and  C_25
REMARK    3  A    between atoms: N_3  and  C_11
REMARK    4  A    between atoms: N_6  and  C_22
REMARK    5  A    between atoms: C_8  and  C_11
REMARK    6  A    between atoms: C_12  and  C_16
REMARK    7  A    between atoms: C_17  and  C_18
REMARK    8  A    between atoms: C_22  and  C_24
REMARK                            x       y       z     vdW  Elec       q    Type
REMARK                         _______ _______ _______ _____ _____    ______ ____
ROOT
ATOM      1  O   UNL     1       0.201   2.825   0.576  0.00  0.00    -0.336 OA
ATOM      4  N   UNL     1      -0.303   0.915  -0.481  0.00  0.00    -0.190 NA
ATOM      5  N   UNL     1      -1.154   2.583   0.833  0.00  0.00    -0.056 NA
ATOM     16  C   UNL     1       0.625   1.796  -0.204  0.00  0.00    +0.245 A 
ATOM     17  C   UNL     1      -1.377   1.440   0.177  0.00  0.00    +0.205 A 
ENDROOT
BRANCH  17  18
ATOM      6  N   UNL     1      -1.645  -1.378  -0.057  0.00  0.00    -0.326 N 
ATOM      7  N   UNL     1      -4.003  -1.206   0.023  0.00  0.00    -0.240 NA
ATOM     18  C   UNL     1      -2.659   0.799   0.158  0.00  0.00    +0.062 A 
ATOM     19  C   UNL     1      -2.808  -0.574   0.044  0.00  0.00    +0.130 A 
ATOM     20  C   UNL     1      -3.811   1.573   0.256  0.00  0.00    +0.016 A 
ATOM     21  C   UNL     1      -5.058   0.959   0.238  0.00  0.00    +0.020 A 
ATOM     23  C   UNL     1      -5.100  -0.421   0.121  0.00  0.00    +0.113 A 
ATOM     26  H   UNL     1      -0.793  -0.978   0.323  0.00  0.00    +0.148 HD
BRANCH   6  22
ATOM     22  C   UNL     1      -1.698  -2.798  -0.177  0.00  0.00    +0.131 C 
BRANCH  22  24
ATOM     24  C   UNL     1      -0.292  -3.369  -0.230  0.00  0.00    +0.178 C 
BRANCH  24   2
ATOM      2  O   UNL     1       0.385  -2.857  -1.372  0.00  0.00    -0.381 OA
ATOM     25  C   UNL     1       1.706  -3.369  -1.467  0.00  0.00    +0.194 C 
ENDBRANCH  24   2
ENDBRANCH  22  24
ENDBRANCH   6  22
ENDBRANCH  17  18
BRANCH  16  12
ATOM      3  N   UNL     1       2.813   0.610  -0.214  0.00  0.00    -0.291 NA
ATOM     12  C   UNL     1       2.079   1.823  -0.626  0.00  0.00    +0.146 C 
ATOM     13  C   UNL     1       3.873   0.412  -1.203  0.00  0.00    +0.085 C 
ATOM     14  C   UNL     1       2.254   1.886  -2.155  0.00  0.00    +0.030 C 
ATOM     15  C   UNL     1       3.148   0.704  -2.502  0.00  0.00    +0.017 C 
BRANCH   3  11
ATOM     11  C   UNL     1       3.337   0.689   1.143  0.00  0.00    +0.088 C 
BRANCH  11   8
ATOM      8  C   UNL     1       3.594  -0.671   1.706  0.00  0.00    +0.003 C 
ATOM      9  C   UNL     1       2.443  -1.477   2.233  0.00  0.00    +0.005 C 
ATOM     10  C   UNL     1       3.447  -0.893   3.183  0.00  0.00    +0.005 C 
ENDBRANCH  11   8
ENDBRANCH   3  11
ENDBRANCH  16  12
TORSDOF 7
