REMARK  Name = 40779537
REMARK  13 active torsions:
REMARK  status: ('A' for Active; 'I' for Inactive)
REMARK    1  A    between atoms: S_1  and  N_8
REMARK    2  A    between atoms: S_1  and  C_22
REMARK    3  A    between atoms: O_4  and  C_28
REMARK    4  A    between atoms: O_4  and  C_31
REMARK    5  A    between atoms: O_5  and  C_30
REMARK    6  A    between atoms: O_5  and  C_32
REMARK    7  A    between atoms: N_7  and  C_21
REMARK    8  A    between atoms: N_8  and  C_17
REMARK    9  A    between atoms: C_11  and  C_18
REMARK   10  A    between atoms: C_12  and  C_17
REMARK   11  A    between atoms: C_20  and  C_23
REMARK   12  A    between atoms: C_22  and  C_24
REMARK   13  A    between atoms: C_24  and  C_27
REMARK                            x       y       z     vdW  Elec       q    Type
REMARK                         _______ _______ _______ _____ _____    ______ ____
ROOT
ATOM      6  N   UNL     1      -4.056  -1.765   0.415  0.00  0.00    -0.297 NA
ATOM     10  C   UNL     1      -2.377  -2.523  -1.425  0.00  0.00    +0.002 C 
ATOM     11  C   UNL     1      -1.801  -2.812  -0.012  0.00  0.00    +0.055 C 
ATOM     12  C   UNL     1      -3.850  -0.668  -0.567  0.00  0.00    +0.072 C 
ATOM     13  C   UNL     1      -2.707  -1.020  -1.544  0.00  0.00    +0.024 C 
ATOM     14  C   UNL     1      -3.712  -3.291  -1.527  0.00  0.00    +0.019 C 
ATOM     15  C   UNL     1      -2.759  -2.154   1.022  0.00  0.00    +0.094 C 
ATOM     16  C   UNL     1      -4.594  -2.936  -0.317  0.00  0.00    +0.085 C 
ENDROOT
BRANCH  11  18
ATOM      7  N   UNL     1       0.436  -3.161   1.135  0.00  0.00    -0.270 N 
ATOM      9  N   UNL     1       1.696  -2.700   1.225  0.00  0.00    -0.171 NA
ATOM     18  C   UNL     1      -0.342  -2.469   0.254  0.00  0.00    +0.044 A 
ATOM     19  C   UNL     1       0.465  -1.487  -0.269  0.00  0.00    +0.053 A 
ATOM     20  C   UNL     1       1.707  -1.678   0.365  0.00  0.00    +0.093 A 
ATOM     21  C   UNL     1       0.039  -4.291   1.942  0.00  0.00    +0.172 C 
BRANCH  20  23
ATOM     23  C   UNL     1       2.903  -0.901   0.167  0.00  0.00    +0.006 A 
ATOM     25  C   UNL     1       2.810   0.446  -0.182  0.00  0.00    +0.059 A 
ATOM     26  C   UNL     1       4.155  -1.497   0.323  0.00  0.00    +0.014 A 
ATOM     28  C   UNL     1       3.969   1.198  -0.374  0.00  0.00    +0.162 A 
ATOM     29  C   UNL     1       5.314  -0.745   0.130  0.00  0.00    +0.050 A 
ATOM     30  C   UNL     1       5.221   0.603  -0.219  0.00  0.00    +0.162 A 
BRANCH  28   4
ATOM      4  O   UNL     1       3.866   2.513  -0.715  0.00  0.00    -0.491 OA
ATOM     31  C   UNL     1       2.550   3.045  -0.855  0.00  0.00    +0.277 C 
ENDBRANCH  28   4
BRANCH  30   5
ATOM      5  O   UNL     1       6.360   1.327  -0.404  0.00  0.00    -0.491 OA
ATOM     32  C   UNL     1       7.599   0.643  -0.225  0.00  0.00    +0.277 C 
ENDBRANCH  30   5
ENDBRANCH  20  23
ENDBRANCH  11  18
BRANCH  12  17
ATOM     17  C   UNL     1      -3.625   0.686   0.109  0.00  0.00    +0.124 C 
BRANCH  17   8
ATOM      8  N   UNL     1      -3.554   1.735  -0.921  0.00  0.00    -0.193 NA
ATOM     33  H   UNL     1      -4.444   1.888  -1.414  0.00  0.00    +0.148 HD
BRANCH   8   1
ATOM      1  S   UNL     1      -2.603   3.124  -0.633  0.00  0.00    +0.029 S 
ATOM      2  O   UNL     1      -2.910   4.142  -1.619  0.00  0.00    -0.158 OA
ATOM      3  O   UNL     1      -1.234   2.706  -0.402  0.00  0.00    -0.158 OA
BRANCH   1  22
ATOM     22  C   UNL     1      -3.267   3.656   0.928  0.00  0.00    +0.185 C 
BRANCH  22  24
ATOM     24  C   UNL     1      -2.573   4.914   1.425  0.00  0.00    +0.021 C 
ATOM     27  C   UNL     1      -3.126   5.359   2.769  0.00  0.00    +0.005 C 
ENDBRANCH  22  24
ENDBRANCH   1  22
ENDBRANCH   8   1
ENDBRANCH  17   8
ENDBRANCH  12  17
TORSDOF 9
