MODEL 1
REMARK VINA RESULT:      -6.8      0.000      0.000
REMARK  Name = 11865673
REMARK  8 active torsions:
REMARK  status: ('A' for Active; 'I' for Inactive)
REMARK    1  A    between atoms: O_1  and  C_17
REMARK    2  A    between atoms: O_2  and  C_18
REMARK    3  A    between atoms: N_6  and  C_10
REMARK    4  A    between atoms: N_7  and  C_16
REMARK    5  A    between atoms: N_8  and  C_24
REMARK    6  A    between atoms: C_21  and  C_23
REMARK    7  A    between atoms: C_24  and  C_25
REMARK    8  A    between atoms: C_25  and  C_26
REMARK                            x       y       z     vdW  Elec       q    Type
REMARK                         _______ _______ _______ _____ _____    ______ ____
ROOT
ATOM     16  C   UNL     1      12.063   9.568  21.399  0.00  0.00    +0.129 C 
ATOM     17  C   UNL     1      11.594   8.297  22.132  0.00  0.00    +0.167 C 
ATOM     18  C   UNL     1      12.287   7.044  21.583  0.00  0.00    +0.149 C 
ATOM     19  C   UNL     1      12.088   6.890  20.066  0.00  0.00    +0.074 C 
ATOM     20  C   UNL     1      12.143   9.400  19.905  0.00  0.00    +0.006 C 
ATOM     21  C   UNL     1      12.144   8.193  19.322  0.00  0.00    +0.015 C 
ENDROOT
BRANCH  16   7
ATOM      3  O   UNL     1      12.743  12.363  21.159  0.00  0.00    -0.253 OA
ATOM      6  N   UNL     1      10.615  12.908  21.907  0.00  0.00    -0.297 N 
ATOM      7  N   UNL     1      11.215  10.698  21.696  0.00  0.00    -0.291 N 
ATOM     22  C   UNL     1      11.628  12.021  21.552  0.00  0.00    +0.300 C 
ATOM     27  H   UNL     1       9.706  12.526  22.145  0.00  0.00    +0.151 HD
ATOM     28  H   UNL     1      10.291  10.524  22.080  0.00  0.00    +0.151 HD
BRANCH   6  10
ATOM     10  C   UNL     1      10.776  14.345  21.851  0.00  0.00    +0.074 C 
ATOM     11  C   UNL     1       9.593  15.004  21.135  0.00  0.00    +0.022 C 
ATOM     12  C   UNL     1      10.976  14.932  23.252  0.00  0.00    +0.022 C 
ATOM     13  C   UNL     1       8.313  14.976  21.972  0.00  0.00    +0.002 C 
ATOM     14  C   UNL     1       9.694  14.904  24.085  0.00  0.00    +0.002 C 
ATOM     15  C   UNL     1       8.534  15.576  23.358  0.00  0.00    +0.000 C 
ENDBRANCH   6  10
ENDBRANCH  16   7
BRANCH  21  23
ATOM      4  O   UNL     1      11.509   7.395  17.205  0.00  0.00    -0.271 OA
ATOM      8  N   UNL     1      13.173   9.020  17.345  0.00  0.00    -0.311 N 
ATOM     23  C   UNL     1      12.228   8.149  17.858  0.00  0.00    +0.240 C 
ATOM     31  H   UNL     1      13.709   9.609  17.976  0.00  0.00    +0.149 HD
BRANCH   8  24
ATOM     24  C   UNL     1      13.438   9.154  15.930  0.00  0.00    +0.113 C 
BRANCH  24  25
ATOM     25  C   UNL     1      14.443  10.258  15.636  0.00  0.00    +0.114 C 
BRANCH  25  26
ATOM      5  O   UNL     1      13.324  11.421  13.822  0.00  0.00    -0.276 OA
ATOM      9  N   UNL     1      13.924  12.608  15.697  0.00  0.00    -0.329 N 
ATOM     26  C   UNL     1      13.833  11.460  14.939  0.00  0.00    +0.212 C 
ATOM     32  H   UNL     1      13.560  13.490  15.354  0.00  0.00    +0.145 HD
ATOM     33  H   UNL     1      14.353  12.617  16.617  0.00  0.00    +0.145 HD
ENDBRANCH  25  26
ENDBRANCH  24  25
ENDBRANCH   8  24
ENDBRANCH  21  23
BRANCH  17   1
ATOM      1  O   UNL     1      10.181   8.147  21.974  0.00  0.00    -0.387 OA
ATOM     29  H   UNL     1       9.860   8.917  21.474  0.00  0.00    +0.210 HD
ENDBRANCH  17   1
BRANCH  18   2
ATOM      2  O   UNL     1      13.679   7.078  21.893  0.00  0.00    -0.389 OA
ATOM     30  H   UNL     1      14.167   6.910  21.069  0.00  0.00    +0.210 HD
ENDBRANCH  18   2
TORSDOF 8
ENDMDL
MODEL 2
REMARK VINA RESULT:      -6.7     15.403     20.657
REMARK  Name = 11865673
REMARK  8 active torsions:
REMARK  status: ('A' for Active; 'I' for Inactive)
REMARK    1  A    between atoms: O_1  and  C_17
REMARK    2  A    between atoms: O_2  and  C_18
REMARK    3  A    between atoms: N_6  and  C_10
REMARK    4  A    between atoms: N_7  and  C_16
REMARK    5  A    between atoms: N_8  and  C_24
REMARK    6  A    between atoms: C_21  and  C_23
REMARK    7  A    between atoms: C_24  and  C_25
REMARK    8  A    between atoms: C_25  and  C_26
REMARK                            x       y       z     vdW  Elec       q    Type
REMARK                         _______ _______ _______ _____ _____    ______ ____
ROOT
ATOM     16  C   UNL     1      12.141   4.873   1.692  0.00  0.00    +0.129 C 
ATOM     17  C   UNL     1      12.651   6.318   1.537  0.00  0.00    +0.167 C 
ATOM     18  C   UNL     1      13.127   6.892   2.877  0.00  0.00    +0.149 C 
ATOM     19  C   UNL     1      12.033   6.826   3.956  0.00  0.00    +0.074 C 
ATOM     20  C   UNL     1      11.262   4.677   2.898  0.00  0.00    +0.006 C 
ATOM     21  C   UNL     1      11.218   5.566   3.902  0.00  0.00    +0.015 C 
ENDROOT
BRANCH  16   7
ATOM      3  O   UNL     1      13.075   3.026  -0.320  0.00  0.00    -0.253 OA
ATOM      6  N   UNL     1      11.059   3.280  -1.439  0.00  0.00    -0.297 N 
ATOM      7  N   UNL     1      11.427   4.431   0.518  0.00  0.00    -0.291 N 
ATOM     22  C   UNL     1      11.958   3.533  -0.406  0.00  0.00    +0.300 C 
ATOM     27  H   UNL     1      10.132   3.689  -1.377  0.00  0.00    +0.151 HD
ATOM     28  H   UNL     1      10.514   4.833   0.325  0.00  0.00    +0.151 HD
BRANCH   6  10
ATOM     10  C   UNL     1      11.356   2.383  -2.534  0.00  0.00    +0.074 C 
ATOM     11  C   UNL     1      10.072   1.789  -3.122  0.00  0.00    +0.022 C 
ATOM     12  C   UNL     1      12.188   3.086  -3.611  0.00  0.00    +0.022 C 
ATOM     13  C   UNL     1       9.261   2.815  -3.915  0.00  0.00    +0.002 C 
ATOM     14  C   UNL     1      11.374   4.110  -4.404  0.00  0.00    +0.002 C 
ATOM     15  C   UNL     1      10.108   3.493  -4.989  0.00  0.00    +0.000 C 
ENDBRANCH   6  10
ENDBRANCH  16   7
BRANCH  21  23
ATOM      4  O   UNL     1       9.970   4.118   5.269  0.00  0.00    -0.271 OA
ATOM      8  N   UNL     1       9.960   6.401   5.737  0.00  0.00    -0.311 N 
ATOM     23  C   UNL     1      10.326   5.271   5.028  0.00  0.00    +0.240 C 
ATOM     31  H   UNL     1      10.319   7.309   5.458  0.00  0.00    +0.149 HD
BRANCH   8  24
ATOM     24  C   UNL     1       9.085   6.362   6.888  0.00  0.00    +0.113 C 
BRANCH  24  25
ATOM     25  C   UNL     1       9.858   6.238   8.193  0.00  0.00    +0.114 C 
BRANCH  25  26
ATOM      5  O   UNL     1       8.903   4.835   9.928  0.00  0.00    -0.276 OA
ATOM      9  N   UNL     1      10.256   3.869   8.340  0.00  0.00    -0.329 N 
ATOM     26  C   UNL     1       9.602   4.934   8.924  0.00  0.00    +0.212 C 
ATOM     32  H   UNL     1      10.178   2.934   8.726  0.00  0.00    +0.145 HD
ATOM     33  H   UNL     1      10.833   3.976   7.512  0.00  0.00    +0.145 HD
ENDBRANCH  25  26
ENDBRANCH  24  25
ENDBRANCH   8  24
ENDBRANCH  21  23
BRANCH  17   1
ATOM      1  O   UNL     1      11.601   7.144   1.029  0.00  0.00    -0.387 OA
ATOM     29  H   UNL     1      10.771   6.848   1.440  0.00  0.00    +0.210 HD
ENDBRANCH  17   1
BRANCH  18   2
ATOM      2  O   UNL     1      14.294   6.204   3.320  0.00  0.00    -0.389 OA
ATOM     30  H   UNL     1      14.380   5.396   2.786  0.00  0.00    +0.210 HD
ENDBRANCH  18   2
TORSDOF 8
ENDMDL
MODEL 3
REMARK VINA RESULT:      -6.7      2.304      7.576
REMARK  Name = 11865673
REMARK  8 active torsions:
REMARK  status: ('A' for Active; 'I' for Inactive)
REMARK    1  A    between atoms: O_1  and  C_17
REMARK    2  A    between atoms: O_2  and  C_18
REMARK    3  A    between atoms: N_6  and  C_10
REMARK    4  A    between atoms: N_7  and  C_16
REMARK    5  A    between atoms: N_8  and  C_24
REMARK    6  A    between atoms: C_21  and  C_23
REMARK    7  A    between atoms: C_24  and  C_25
REMARK    8  A    between atoms: C_25  and  C_26
REMARK                            x       y       z     vdW  Elec       q    Type
REMARK                         _______ _______ _______ _____ _____    ______ ____
ROOT
ATOM     16  C   UNL     1      13.135   8.807  18.380  0.00  0.00    +0.129 C 
ATOM     17  C   UNL     1      13.956   7.602  18.873  0.00  0.00    +0.167 C 
ATOM     18  C   UNL     1      13.162   6.751  19.872  0.00  0.00    +0.149 C 
ATOM     19  C   UNL     1      12.661   7.580  21.068  0.00  0.00    +0.074 C 
ATOM     20  C   UNL     1      12.396   9.517  19.484  0.00  0.00    +0.006 C 
ATOM     21  C   UNL     1      12.199   8.957  20.686  0.00  0.00    +0.015 C 
ENDROOT
BRANCH  16   7
ATOM      3  O   UNL     1      13.636   8.923  15.540  0.00  0.00    -0.253 OA
ATOM      6  N   UNL     1      14.987  10.777  15.891  0.00  0.00    -0.297 N 
ATOM      7  N   UNL     1      13.959   9.763  17.681  0.00  0.00    -0.291 N 
ATOM     22  C   UNL     1      14.148   9.744  16.300  0.00  0.00    +0.300 C 
ATOM     27  H   UNL     1      15.296  11.448  16.587  0.00  0.00    +0.151 HD
ATOM     28  H   UNL     1      14.471  10.453  18.224  0.00  0.00    +0.151 HD
BRANCH   6  10
ATOM     10  C   UNL     1      15.350  10.989  14.506  0.00  0.00    +0.074 C 
ATOM     11  C   UNL     1      14.385  11.966  13.828  0.00  0.00    +0.022 C 
ATOM     12  C   UNL     1      16.801  11.465  14.384  0.00  0.00    +0.022 C 
ATOM     13  C   UNL     1      14.574  13.405  14.310  0.00  0.00    +0.002 C 
ATOM     14  C   UNL     1      16.986  12.905  14.865  0.00  0.00    +0.002 C 
ATOM     15  C   UNL     1      16.024  13.860  14.167  0.00  0.00    +0.000 C 
ENDBRANCH   6  10
ENDBRANCH  16   7
BRANCH  21  23
ATOM      4  O   UNL     1      10.777   9.188  22.542  0.00  0.00    -0.271 OA
ATOM      8  N   UNL     1      11.639  11.105  21.535  0.00  0.00    -0.311 N 
ATOM     23  C   UNL     1      11.464   9.741  21.685  0.00  0.00    +0.240 C 
ATOM     31  H   UNL     1      12.240  11.458  20.795  0.00  0.00    +0.149 HD
BRANCH   8  24
ATOM     24  C   UNL     1      11.013  12.081  22.400  0.00  0.00    +0.113 C 
BRANCH  24  25
ATOM     25  C   UNL     1      11.820  12.328  23.666  0.00  0.00    +0.114 C 
BRANCH  25  26
ATOM      5  O   UNL     1      10.392  12.649  25.603  0.00  0.00    -0.276 OA
ATOM      9  N   UNL     1      11.340  10.584  25.255  0.00  0.00    -0.329 N 
ATOM     26  C   UNL     1      11.100  11.903  24.933  0.00  0.00    +0.212 C 
ATOM     32  H   UNL     1      10.925  10.165  26.080  0.00  0.00    +0.145 HD
ATOM     33  H   UNL     1      11.932   9.987  24.687  0.00  0.00    +0.145 HD
ENDBRANCH  25  26
ENDBRANCH  24  25
ENDBRANCH   8  24
ENDBRANCH  21  23
BRANCH  17   1
ATOM      1  O   UNL     1      15.150   8.063  19.510  0.00  0.00    -0.387 OA
ATOM     29  H   UNL     1      15.807   7.349  19.451  0.00  0.00    +0.210 HD
ENDBRANCH  17   1
BRANCH  18   2
ATOM      2  O   UNL     1      12.062   6.123  19.217  0.00  0.00    -0.389 OA
ATOM     30  H   UNL     1      11.409   6.813  19.011  0.00  0.00    +0.210 HD
ENDBRANCH  18   2
TORSDOF 8
ENDMDL
MODEL 4
REMARK VINA RESULT:      -6.5     14.104     18.350
REMARK  Name = 11865673
REMARK  8 active torsions:
REMARK  status: ('A' for Active; 'I' for Inactive)
REMARK    1  A    between atoms: O_1  and  C_17
REMARK    2  A    between atoms: O_2  and  C_18
REMARK    3  A    between atoms: N_6  and  C_10
REMARK    4  A    between atoms: N_7  and  C_16
REMARK    5  A    between atoms: N_8  and  C_24
REMARK    6  A    between atoms: C_21  and  C_23
REMARK    7  A    between atoms: C_24  and  C_25
REMARK    8  A    between atoms: C_25  and  C_26
REMARK                            x       y       z     vdW  Elec       q    Type
REMARK                         _______ _______ _______ _____ _____    ______ ____
ROOT
ATOM     16  C   UNL     1      14.390   5.830   1.991  0.00  0.00    +0.129 C 
ATOM     17  C   UNL     1      14.752   4.450   1.411  0.00  0.00    +0.167 C 
ATOM     18  C   UNL     1      13.562   3.819   0.678  0.00  0.00    +0.149 C 
ATOM     19  C   UNL     1      12.319   3.709   1.579  0.00  0.00    +0.074 C 
ATOM     20  C   UNL     1      13.046   5.858   2.669  0.00  0.00    +0.006 C 
ATOM     21  C   UNL     1      12.132   4.895   2.481  0.00  0.00    +0.015 C 
ENDROOT
BRANCH  16   7
ATOM      3  O   UNL     1      16.138   8.104   1.669  0.00  0.00    -0.253 OA
ATOM      6  N   UNL     1      17.072   7.634   3.740  0.00  0.00    -0.297 N 
ATOM      7  N   UNL     1      15.391   6.296   2.920  0.00  0.00    -0.291 N 
ATOM     22  C   UNL     1      16.196   7.408   2.682  0.00  0.00    +0.300 C 
ATOM     27  H   UNL     1      16.988   7.049   4.565  0.00  0.00    +0.151 HD
ATOM     28  H   UNL     1      15.557   5.758   3.766  0.00  0.00    +0.151 HD
BRANCH   6  10
ATOM     10  C   UNL     1      18.021   8.726   3.752  0.00  0.00    +0.074 C 
ATOM     11  C   UNL     1      18.049   9.416   5.120  0.00  0.00    +0.022 C 
ATOM     12  C   UNL     1      19.417   8.247   3.342  0.00  0.00    +0.022 C 
ATOM     13  C   UNL     1      18.715   8.556   6.196  0.00  0.00    +0.002 C 
ATOM     14  C   UNL     1      20.082   7.390   4.420  0.00  0.00    +0.002 C 
ATOM     15  C   UNL     1      20.108   8.102   5.769  0.00  0.00    +0.000 C 
ENDBRANCH   6  10
ENDBRANCH  16   7
BRANCH  21  23
ATOM      4  O   UNL     1       9.873   5.525   2.643  0.00  0.00    -0.271 OA
ATOM      8  N   UNL     1      10.907   4.545   4.488  0.00  0.00    -0.311 N 
ATOM     23  C   UNL     1      10.856   5.027   3.192  0.00  0.00    +0.240 C 
ATOM     31  H   UNL     1      11.771   4.143   4.842  0.00  0.00    +0.149 HD
BRANCH   8  24
ATOM     24  C   UNL     1       9.774   4.569   5.385  0.00  0.00    +0.113 C 
BRANCH  24  25
ATOM     25  C   UNL     1       9.899   5.657   6.441  0.00  0.00    +0.114 C 
BRANCH  25  26
ATOM      5  O   UNL     1       9.163   5.749   8.753  0.00  0.00    -0.276 OA
ATOM      9  N   UNL     1      10.355   3.916   8.040  0.00  0.00    -0.329 N 
ATOM     26  C   UNL     1       9.748   5.142   7.860  0.00  0.00    +0.212 C 
ATOM     32  H   UNL     1      10.336   3.452   8.941  0.00  0.00    +0.145 HD
ATOM     33  H   UNL     1      10.837   3.435   7.287  0.00  0.00    +0.145 HD
ENDBRANCH  25  26
ENDBRANCH  24  25
ENDBRANCH   8  24
ENDBRANCH  21  23
BRANCH  17   1
ATOM      1  O   UNL     1      15.157   3.577   2.468  0.00  0.00    -0.387 OA
ATOM     29  H   UNL     1      16.125   3.637   2.541  0.00  0.00    +0.210 HD
ENDBRANCH  17   1
BRANCH  18   2
ATOM      2  O   UNL     1      13.251   4.570  -0.494  0.00  0.00    -0.389 OA
ATOM     30  H   UNL     1      13.921   4.357  -1.165  0.00  0.00    +0.210 HD
ENDBRANCH  18   2
TORSDOF 8
ENDMDL
MODEL 5
REMARK VINA RESULT:      -6.5     27.055     28.855
REMARK  Name = 11865673
REMARK  8 active torsions:
REMARK  status: ('A' for Active; 'I' for Inactive)
REMARK    1  A    between atoms: O_1  and  C_17
REMARK    2  A    between atoms: O_2  and  C_18
REMARK    3  A    between atoms: N_6  and  C_10
REMARK    4  A    between atoms: N_7  and  C_16
REMARK    5  A    between atoms: N_8  and  C_24
REMARK    6  A    between atoms: C_21  and  C_23
REMARK    7  A    between atoms: C_24  and  C_25
REMARK    8  A    between atoms: C_25  and  C_26
REMARK                            x       y       z     vdW  Elec       q    Type
REMARK                         _______ _______ _______ _____ _____    ______ ____
ROOT
ATOM     16  C   UNL     1      -4.983 -11.583  15.836  0.00  0.00    +0.129 C 
ATOM     17  C   UNL     1      -3.818 -11.166  16.754  0.00  0.00    +0.167 C 
ATOM     18  C   UNL     1      -4.102 -11.523  18.218  0.00  0.00    +0.149 C 
ATOM     19  C   UNL     1      -5.421 -10.909  18.719  0.00  0.00    +0.074 C 
ATOM     20  C   UNL     1      -6.337 -11.241  16.399  0.00  0.00    +0.006 C 
ATOM     21  C   UNL     1      -6.516 -10.932  17.691  0.00  0.00    +0.015 C 
ENDROOT
BRANCH  16   7
ATOM      3  O   UNL     1      -3.092 -12.303  13.778  0.00  0.00    -0.253 OA
ATOM      6  N   UNL     1      -4.019 -10.676  12.408  0.00  0.00    -0.297 N 
ATOM      7  N   UNL     1      -4.862 -10.997  14.523  0.00  0.00    -0.291 N 
ATOM     22  C   UNL     1      -3.914 -11.407  13.588  0.00  0.00    +0.300 C 
ATOM     27  H   UNL     1      -4.781 -10.011  12.322  0.00  0.00    +0.151 HD
ATOM     28  H   UNL     1      -5.460 -10.211  14.285  0.00  0.00    +0.151 HD
BRANCH   6  10
ATOM     10  C   UNL     1      -3.154 -10.898  11.269  0.00  0.00    +0.074 C 
ATOM     11  C   UNL     1      -3.818 -11.825  10.246  0.00  0.00    +0.022 C 
ATOM     12  C   UNL     1      -2.737  -9.570  10.628  0.00  0.00    +0.022 C 
ATOM     13  C   UNL     1      -4.967 -11.146   9.500  0.00  0.00    +0.002 C 
ATOM     14  C   UNL     1      -3.887  -8.895   9.880  0.00  0.00    +0.002 C 
ATOM     15  C   UNL     1      -4.524  -9.833   8.860  0.00  0.00    +0.000 C 
ENDBRANCH   6  10
ENDBRANCH  16   7
BRANCH  21  23
ATOM      4  O   UNL     1      -8.366 -11.155  19.123  0.00  0.00    -0.271 OA
ATOM      8  N   UNL     1      -8.507  -9.691  17.315  0.00  0.00    -0.311 N 
ATOM     23  C   UNL     1      -7.880 -10.617  18.129  0.00  0.00    +0.240 C 
ATOM     31  H   UNL     1      -8.010  -9.300  16.520  0.00  0.00    +0.149 HD
BRANCH   8  24
ATOM     24  C   UNL     1      -9.857  -9.224  17.544  0.00  0.00    +0.113 C 
BRANCH  24  25
ATOM     25  C   UNL     1     -10.009  -7.739  17.249  0.00  0.00    +0.114 C 
BRANCH  25  26
ATOM      5  O   UNL     1     -10.016  -8.263  14.879  0.00  0.00    -0.276 OA
ATOM      9  N   UNL     1     -10.010  -6.057  15.527  0.00  0.00    -0.329 N 
ATOM     26  C   UNL     1     -10.016  -7.415  15.767  0.00  0.00    +0.212 C 
ATOM     32  H   UNL     1     -10.009  -5.695  14.580  0.00  0.00    +0.145 HD
ATOM     33  H   UNL     1     -10.005  -5.375  16.279  0.00  0.00    +0.145 HD
ENDBRANCH  25  26
ENDBRANCH  24  25
ENDBRANCH   8  24
ENDBRANCH  21  23
BRANCH  17   1
ATOM      1  O   UNL     1      -3.612  -9.755  16.656  0.00  0.00    -0.387 OA
ATOM     29  H   UNL     1      -2.654  -9.605  16.581  0.00  0.00    +0.210 HD
ENDBRANCH  17   1
BRANCH  18   2
ATOM      2  O   UNL     1      -4.128 -12.939  18.384  0.00  0.00    -0.389 OA
ATOM     30  H   UNL     1      -4.456 -13.125  19.280  0.00  0.00    +0.210 HD
ENDBRANCH  18   2
TORSDOF 8
ENDMDL
MODEL 6
REMARK VINA RESULT:      -6.4      4.742      7.208
REMARK  Name = 11865673
REMARK  8 active torsions:
REMARK  status: ('A' for Active; 'I' for Inactive)
REMARK    1  A    between atoms: O_1  and  C_17
REMARK    2  A    between atoms: O_2  and  C_18
REMARK    3  A    between atoms: N_6  and  C_10
REMARK    4  A    between atoms: N_7  and  C_16
REMARK    5  A    between atoms: N_8  and  C_24
REMARK    6  A    between atoms: C_21  and  C_23
REMARK    7  A    between atoms: C_24  and  C_25
REMARK    8  A    between atoms: C_25  and  C_26
REMARK                            x       y       z     vdW  Elec       q    Type
REMARK                         _______ _______ _______ _____ _____    ______ ____
ROOT
ATOM     16  C   UNL     1      14.701   6.884  20.298  0.00  0.00    +0.129 C 
ATOM     17  C   UNL     1      13.403   7.106  21.097  0.00  0.00    +0.167 C 
ATOM     18  C   UNL     1      12.170   7.073  20.185  0.00  0.00    +0.149 C 
ATOM     19  C   UNL     1      12.270   8.093  19.038  0.00  0.00    +0.074 C 
ATOM     20  C   UNL     1      14.750   7.665  19.012  0.00  0.00    +0.006 C 
ATOM     21  C   UNL     1      13.653   8.209  18.463  0.00  0.00    +0.015 C 
ENDROOT
BRANCH  16   7
ATOM      3  O   UNL     1      17.369   5.844  19.942  0.00  0.00    -0.253 OA
ATOM      6  N   UNL     1      18.072   7.130  21.742  0.00  0.00    -0.297 N 
ATOM      7  N   UNL     1      15.870   7.203  21.081  0.00  0.00    -0.291 N 
ATOM     22  C   UNL     1      17.126   6.650  20.839  0.00  0.00    +0.300 C 
ATOM     27  H   UNL     1      17.787   7.851  22.396  0.00  0.00    +0.151 HD
ATOM     28  H   UNL     1      15.765   7.819  21.883  0.00  0.00    +0.151 HD
BRANCH   6  10
ATOM     10  C   UNL     1      19.458   6.718  21.715  0.00  0.00    +0.074 C 
ATOM     11  C   UNL     1      20.278   7.605  20.772  0.00  0.00    +0.022 C 
ATOM     12  C   UNL     1      20.056   6.706  23.126  0.00  0.00    +0.022 C 
ATOM     13  C   UNL     1      20.493   9.012  21.332  0.00  0.00    +0.002 C 
ATOM     14  C   UNL     1      20.273   8.114  23.682  0.00  0.00    +0.002 C 
ATOM     15  C   UNL     1      21.100   8.974  22.732  0.00  0.00    +0.000 C 
ENDBRANCH   6  10
ENDBRANCH  16   7
BRANCH  21  23
ATOM      4  O   UNL     1      13.854   8.359  16.127  0.00  0.00    -0.271 OA
ATOM      8  N   UNL     1      13.928  10.313  17.394  0.00  0.00    -0.311 N 
ATOM     23  C   UNL     1      13.819   8.947  17.207  0.00  0.00    +0.240 C 
ATOM     31  H   UNL     1      13.877  10.699  18.333  0.00  0.00    +0.149 HD
BRANCH   8  24
ATOM     24  C   UNL     1      14.101  11.248  16.305  0.00  0.00    +0.113 C 
BRANCH  24  25
ATOM     25  C   UNL     1      15.569  11.500  15.992  0.00  0.00    +0.114 C 
BRANCH  25  26
ATOM      5  O   UNL     1      15.217  10.492  13.811  0.00  0.00    -0.276 OA
ATOM      9  N   UNL     1      17.304  11.301  14.336  0.00  0.00    -0.329 N 
ATOM     26  C   UNL     1      15.977  11.042  14.604  0.00  0.00    +0.212 C 
ATOM     32  H   UNL     1      17.716  11.044  13.445  0.00  0.00    +0.145 HD
ATOM     33  H   UNL     1      17.915  11.753  15.009  0.00  0.00    +0.145 HD
ENDBRANCH  25  26
ENDBRANCH  24  25
ENDBRANCH   8  24
ENDBRANCH  21  23
BRANCH  17   1
ATOM      1  O   UNL     1      13.455   8.375  21.753  0.00  0.00    -0.387 OA
ATOM     29  H   UNL     1      13.872   9.004  21.140  0.00  0.00    +0.210 HD
ENDBRANCH  17   1
BRANCH  18   2
ATOM      2  O   UNL     1      11.982   5.761  19.659  0.00  0.00    -0.389 OA
ATOM     30  H   UNL     1      12.656   5.621  18.972  0.00  0.00    +0.210 HD
ENDBRANCH  18   2
TORSDOF 8
ENDMDL
MODEL 7
REMARK VINA RESULT:      -6.4     26.942     29.508
REMARK  Name = 11865673
REMARK  8 active torsions:
REMARK  status: ('A' for Active; 'I' for Inactive)
REMARK    1  A    between atoms: O_1  and  C_17
REMARK    2  A    between atoms: O_2  and  C_18
REMARK    3  A    between atoms: N_6  and  C_10
REMARK    4  A    between atoms: N_7  and  C_16
REMARK    5  A    between atoms: N_8  and  C_24
REMARK    6  A    between atoms: C_21  and  C_23
REMARK    7  A    between atoms: C_24  and  C_25
REMARK    8  A    between atoms: C_25  and  C_26
REMARK                            x       y       z     vdW  Elec       q    Type
REMARK                         _______ _______ _______ _____ _____    ______ ____
ROOT
ATOM     16  C   UNL     1     -16.853   4.407  25.141  0.00  0.00    +0.129 C 
ATOM     17  C   UNL     1     -16.747   3.062  24.398  0.00  0.00    +0.167 C 
ATOM     18  C   UNL     1     -17.382   1.924  25.206  0.00  0.00    +0.149 C 
ATOM     19  C   UNL     1     -16.776   1.804  26.614  0.00  0.00    +0.074 C 
ATOM     20  C   UNL     1     -16.521   4.307  26.606  0.00  0.00    +0.006 C 
ATOM     21  C   UNL     1     -16.481   3.132  27.250  0.00  0.00    +0.015 C 
ENDROOT
BRANCH  16   7
ATOM      3  O   UNL     1     -17.246   5.707  22.594  0.00  0.00    -0.253 OA
ATOM      6  N   UNL     1     -15.309   6.931  22.960  0.00  0.00    -0.297 N 
ATOM      7  N   UNL     1     -16.013   5.415  24.540  0.00  0.00    -0.291 N 
ATOM     22  C   UNL     1     -16.278   5.990  23.299  0.00  0.00    +0.300 C 
ATOM     27  H   UNL     1     -14.593   7.148  23.645  0.00  0.00    +0.151 HD
ATOM     28  H   UNL     1     -15.156   5.681  25.017  0.00  0.00    +0.151 HD
BRANCH   6  10
ATOM     10  C   UNL     1     -15.343   7.680  21.722  0.00  0.00    +0.074 C 
ATOM     11  C   UNL     1     -14.864   9.119  21.936  0.00  0.00    +0.022 C 
ATOM     12  C   UNL     1     -14.526   6.978  20.632  0.00  0.00    +0.022 C 
ATOM     13  C   UNL     1     -13.357   9.204  22.185  0.00  0.00    +0.002 C 
ATOM     14  C   UNL     1     -13.020   7.067  20.882  0.00  0.00    +0.002 C 
ATOM     15  C   UNL     1     -12.565   8.509  21.080  0.00  0.00    +0.000 C 
ENDBRANCH   6  10
ENDBRANCH  16   7
BRANCH  21  23
ATOM      4  O   UNL     1     -16.891   3.701  29.493  0.00  0.00    -0.271 OA
ATOM      8  N   UNL     1     -14.953   2.520  28.964  0.00  0.00    -0.311 N 
ATOM     23  C   UNL     1     -16.148   3.155  28.679  0.00  0.00    +0.240 C 
ATOM     31  H   UNL     1     -14.418   2.091  28.214  0.00  0.00    +0.149 HD
BRANCH   8  24
ATOM     24  C   UNL     1     -14.414   2.415  30.302  0.00  0.00    +0.113 C 
BRANCH  24  25
ATOM     25  C   UNL     1     -13.825   1.039  30.578  0.00  0.00    +0.114 C 
BRANCH  25  26
ATOM      5  O   UNL     1     -15.909  -0.088  30.048  0.00  0.00    -0.276 OA
ATOM      9  N   UNL     1     -13.924  -1.159  29.602  0.00  0.00    -0.329 N 
ATOM     26  C   UNL     1     -14.681  -0.099  30.056  0.00  0.00    +0.212 C 
ATOM     32  H   UNL     1     -14.364  -1.992  29.228  0.00  0.00    +0.145 HD
ATOM     33  H   UNL     1     -12.909  -1.148  29.623  0.00  0.00    +0.145 HD
ENDBRANCH  25  26
ENDBRANCH  24  25
ENDBRANCH   8  24
ENDBRANCH  21  23
BRANCH  17   1
ATOM      1  O   UNL     1     -15.372   2.750  24.166  0.00  0.00    -0.387 OA
ATOM     29  H   UNL     1     -15.091   2.134  24.864  0.00  0.00    +0.210 HD
ENDBRANCH  17   1
BRANCH  18   2
ATOM      2  O   UNL     1     -18.793   2.112  25.295  0.00  0.00    -0.389 OA
ATOM     30  H   UNL     1     -19.114   2.353  24.410  0.00  0.00    +0.210 HD
ENDBRANCH  18   2
TORSDOF 8
ENDMDL
MODEL 8
REMARK VINA RESULT:      -6.3     25.697     27.684
REMARK  Name = 11865673
REMARK  8 active torsions:
REMARK  status: ('A' for Active; 'I' for Inactive)
REMARK    1  A    between atoms: O_1  and  C_17
REMARK    2  A    between atoms: O_2  and  C_18
REMARK    3  A    between atoms: N_6  and  C_10
REMARK    4  A    between atoms: N_7  and  C_16
REMARK    5  A    between atoms: N_8  and  C_24
REMARK    6  A    between atoms: C_21  and  C_23
REMARK    7  A    between atoms: C_24  and  C_25
REMARK    8  A    between atoms: C_25  and  C_26
REMARK                            x       y       z     vdW  Elec       q    Type
REMARK                         _______ _______ _______ _____ _____    ______ ____
ROOT
ATOM     16  C   UNL     1     -15.594   4.424  23.421  0.00  0.00    +0.129 C 
ATOM     17  C   UNL     1     -16.837   5.233  23.004  0.00  0.00    +0.167 C 
ATOM     18  C   UNL     1     -16.819   5.556  21.505  0.00  0.00    +0.149 C 
ATOM     19  C   UNL     1     -15.537   6.295  21.086  0.00  0.00    +0.074 C 
ATOM     20  C   UNL     1     -14.315   4.947  22.824  0.00  0.00    +0.006 C 
ATOM     21  C   UNL     1     -14.305   5.791  21.783  0.00  0.00    +0.015 C 
ENDROOT
BRANCH  16   7
ATOM      3  O   UNL     1     -16.936   2.625  25.236  0.00  0.00    -0.253 OA
ATOM      6  N   UNL     1     -15.818   3.631  27.003  0.00  0.00    -0.297 N 
ATOM      7  N   UNL     1     -15.451   4.370  24.856  0.00  0.00    -0.291 N 
ATOM     22  C   UNL     1     -16.143   3.465  25.659  0.00  0.00    +0.300 C 
ATOM     27  H   UNL     1     -15.094   4.301  27.241  0.00  0.00    +0.151 HD
ATOM     28  H   UNL     1     -14.860   5.060  25.312  0.00  0.00    +0.151 HD
BRANCH   6  10
ATOM     10  C   UNL     1     -16.393   2.820  28.054  0.00  0.00    +0.074 C 
ATOM     11  C   UNL     1     -15.301   2.209  28.938  0.00  0.00    +0.022 C 
ATOM     12  C   UNL     1     -17.395   3.627  28.886  0.00  0.00    +0.022 C 
ATOM     13  C   UNL     1     -14.621   3.248  29.831  0.00  0.00    +0.002 C 
ATOM     14  C   UNL     1     -16.713   4.663  29.780  0.00  0.00    +0.002 C 
ATOM     15  C   UNL     1     -15.638   4.030  30.658  0.00  0.00    +0.000 C 
ENDBRANCH   6  10
ENDBRANCH  16   7
BRANCH  21  23
ATOM      4  O   UNL     1     -11.964   5.661  21.623  0.00  0.00    -0.271 OA
ATOM      8  N   UNL     1     -13.087   7.319  20.430  0.00  0.00    -0.311 N 
ATOM     23  C   UNL     1     -12.999   6.233  21.283  0.00  0.00    +0.240 C 
ATOM     31  H   UNL     1     -13.997   7.712  20.207  0.00  0.00    +0.149 HD
BRANCH   8  24
ATOM     24  C   UNL     1     -11.933   7.934  19.812  0.00  0.00    +0.113 C 
BRANCH  24  25
ATOM     25  C   UNL     1     -11.946   7.789  18.298  0.00  0.00    +0.114 C 
BRANCH  25  26
ATOM      5  O   UNL     1     -10.100   9.330  17.962  0.00  0.00    -0.276 OA
ATOM      9  N   UNL     1     -10.266   7.484  16.601  0.00  0.00    -0.329 N 
ATOM     26  C   UNL     1     -10.683   8.300  17.631  0.00  0.00    +0.212 C 
ATOM     32  H   UNL     1      -9.436   7.706  16.063  0.00  0.00    +0.145 HD
ATOM     33  H   UNL     1     -10.767   6.640  16.342  0.00  0.00    +0.145 HD
ENDBRANCH  25  26
ENDBRANCH  24  25
ENDBRANCH   8  24
ENDBRANCH  21  23
BRANCH  17   1
ATOM      1  O   UNL     1     -16.879   6.459  23.737  0.00  0.00    -0.387 OA
ATOM     29  H   UNL     1     -17.810   6.635  23.958  0.00  0.00    +0.210 HD
ENDBRANCH  17   1
BRANCH  18   2
ATOM      2  O   UNL     1     -16.965   4.359  20.743  0.00  0.00    -0.389 OA
ATOM     30  H   UNL     1     -16.636   3.623  21.286  0.00  0.00    +0.210 HD
ENDBRANCH  18   2
TORSDOF 8
ENDMDL
MODEL 9
REMARK VINA RESULT:      -6.3     13.611     17.421
REMARK  Name = 11865673
REMARK  8 active torsions:
REMARK  status: ('A' for Active; 'I' for Inactive)
REMARK    1  A    between atoms: O_1  and  C_17
REMARK    2  A    between atoms: O_2  and  C_18
REMARK    3  A    between atoms: N_6  and  C_10
REMARK    4  A    between atoms: N_7  and  C_16
REMARK    5  A    between atoms: N_8  and  C_24
REMARK    6  A    between atoms: C_21  and  C_23
REMARK    7  A    between atoms: C_24  and  C_25
REMARK    8  A    between atoms: C_25  and  C_26
REMARK                            x       y       z     vdW  Elec       q    Type
REMARK                         _______ _______ _______ _____ _____    ______ ____
ROOT
ATOM     16  C   UNL     1      14.712   7.673   3.652  0.00  0.00    +0.129 C 
ATOM     17  C   UNL     1      14.007   6.862   2.548  0.00  0.00    +0.167 C 
ATOM     18  C   UNL     1      12.482   6.994   2.641  0.00  0.00    +0.149 C 
ATOM     19  C   UNL     1      11.949   6.586   4.025  0.00  0.00    +0.074 C 
ATOM     20  C   UNL     1      14.069   7.522   5.005  0.00  0.00    +0.006 C 
ATOM     21  C   UNL     1      12.833   7.025   5.157  0.00  0.00    +0.015 C 
ENDROOT
BRANCH  16   7
ATOM      3  O   UNL     1      16.967   9.463   3.457  0.00  0.00    -0.253 OA
ATOM      6  N   UNL     1      18.385   7.657   3.791  0.00  0.00    -0.297 N 
ATOM      7  N   UNL     1      16.109   7.326   3.758  0.00  0.00    -0.291 N 
ATOM     22  C   UNL     1      17.138   8.260   3.650  0.00  0.00    +0.300 C 
ATOM     27  H   UNL     1      18.415   6.670   4.023  0.00  0.00    +0.151 HD
ATOM     28  H   UNL     1      16.360   6.348   3.863  0.00  0.00    +0.151 HD
BRANCH   6  10
ATOM     10  C   UNL     1      19.626   8.397   3.721  0.00  0.00    +0.074 C 
ATOM     11  C   UNL     1      19.879   9.170   5.019  0.00  0.00    +0.022 C 
ATOM     12  C   UNL     1      20.800   7.472   3.385  0.00  0.00    +0.022 C 
ATOM     13  C   UNL     1      20.255   8.252   6.183  0.00  0.00    +0.002 C 
ATOM     14  C   UNL     1      21.176   6.557   4.552  0.00  0.00    +0.002 C 
ATOM     15  C   UNL     1      21.434   7.349   5.829  0.00  0.00    +0.000 C 
ENDBRANCH   6  10
ENDBRANCH  16   7
BRANCH  21  23
ATOM      4  O   UNL     1      13.026   6.562   7.453  0.00  0.00    -0.271 OA
ATOM      8  N   UNL     1      10.972   7.273   6.614  0.00  0.00    -0.311 N 
ATOM     23  C   UNL     1      12.308   6.925   6.523  0.00  0.00    +0.240 C 
ATOM     31  H   UNL     1      10.470   7.569   5.781  0.00  0.00    +0.149 HD
BRANCH   8  24
ATOM     24  C   UNL     1      10.233   7.251   7.857  0.00  0.00    +0.113 C 
BRANCH  24  25
ATOM     25  C   UNL     1       9.254   6.088   7.923  0.00  0.00    +0.114 C 
BRANCH  25  26
ATOM      5  O   UNL     1       9.764   4.534   6.128  0.00  0.00    -0.276 OA
ATOM      9  N   UNL     1      10.334   3.967   8.282  0.00  0.00    -0.329 N 
ATOM     26  C   UNL     1       9.800   4.805   7.325  0.00  0.00    +0.212 C 
ATOM     32  H   UNL     1      10.733   3.070   8.027  0.00  0.00    +0.145 HD
ATOM     33  H   UNL     1      10.349   4.210   9.268  0.00  0.00    +0.145 HD
ENDBRANCH  25  26
ENDBRANCH  24  25
ENDBRANCH   8  24
ENDBRANCH  21  23
BRANCH  17   1
ATOM      1  O   UNL     1      14.358   5.481   2.670  0.00  0.00    -0.387 OA
ATOM     29  H   UNL     1      14.646   5.175   1.793  0.00  0.00    +0.210 HD
ENDBRANCH  17   1
BRANCH  18   2
ATOM      2  O   UNL     1      12.085   8.330   2.338  0.00  0.00    -0.389 OA
ATOM     30  H   UNL     1      11.169   8.297   2.014  0.00  0.00    +0.210 HD
ENDBRANCH  18   2
TORSDOF 8
ENDMDL
MODEL 10
REMARK VINA RESULT:      -6.3     28.247     30.224
REMARK  Name = 11865673
REMARK  8 active torsions:
REMARK  status: ('A' for Active; 'I' for Inactive)
REMARK    1  A    between atoms: O_1  and  C_17
REMARK    2  A    between atoms: O_2  and  C_18
REMARK    3  A    between atoms: N_6  and  C_10
REMARK    4  A    between atoms: N_7  and  C_16
REMARK    5  A    between atoms: N_8  and  C_24
REMARK    6  A    between atoms: C_21  and  C_23
REMARK    7  A    between atoms: C_24  and  C_25
REMARK    8  A    between atoms: C_25  and  C_26
REMARK                            x       y       z     vdW  Elec       q    Type
REMARK                         _______ _______ _______ _____ _____    ______ ____
ROOT
ATOM     16  C   UNL     1     -17.179   1.086  27.463  0.00  0.00    +0.129 C 
ATOM     17  C   UNL     1     -18.714   1.112  27.337  0.00  0.00    +0.167 C 
ATOM     18  C   UNL     1     -19.165   0.820  25.901  0.00  0.00    +0.149 C 
ATOM     19  C   UNL     1     -18.530   1.787  24.887  0.00  0.00    +0.074 C 
ATOM     20  C   UNL     1     -16.477   1.803  26.340  0.00  0.00    +0.006 C 
ATOM     21  C   UNL     1     -17.098   2.118  25.195  0.00  0.00    +0.015 C 
ENDROOT
BRANCH  16   7
ATOM      3  O   UNL     1     -14.939   0.212  29.060  0.00  0.00    -0.253 OA
ATOM      6  N   UNL     1     -15.438   1.873  30.602  0.00  0.00    -0.297 N 
ATOM      7  N   UNL     1     -16.737   1.642  28.719  0.00  0.00    -0.291 N 
ATOM     22  C   UNL     1     -15.641   1.154  29.427  0.00  0.00    +0.300 C 
ATOM     27  H   UNL     1     -16.025   2.682  30.776  0.00  0.00    +0.151 HD
ATOM     28  H   UNL     1     -17.282   2.391  29.138  0.00  0.00    +0.151 HD
BRANCH   6  10
ATOM     10  C   UNL     1     -14.365   1.576  31.527  0.00  0.00    +0.074 C 
ATOM     11  C   UNL     1     -13.252   2.625  31.434  0.00  0.00    +0.022 C 
ATOM     12  C   UNL     1     -14.892   1.450  32.960  0.00  0.00    +0.022 C 
ATOM     13  C   UNL     1     -13.666   3.972  32.028  0.00  0.00    +0.002 C 
ATOM     14  C   UNL     1     -15.303   2.799  33.553  0.00  0.00    +0.002 C 
ATOM     15  C   UNL     1     -14.176   3.822  33.459  0.00  0.00    +0.000 C 
ENDBRANCH   6  10
ENDBRANCH  16   7
BRANCH  21  23
ATOM      4  O   UNL     1     -16.424   2.522  22.980  0.00  0.00    -0.271 OA
ATOM      8  N   UNL     1     -15.482   3.787  24.695  0.00  0.00    -0.311 N 
ATOM     23  C   UNL     1     -16.314   2.815  24.170  0.00  0.00    +0.240 C 
ATOM     31  H   UNL     1     -15.474   3.956  25.697  0.00  0.00    +0.149 HD
BRANCH   8  24
ATOM     24  C   UNL     1     -14.610   4.605  23.881  0.00  0.00    +0.113 C 
BRANCH  24  25
ATOM     25  C   UNL     1     -15.359   5.744  23.204  0.00  0.00    +0.114 C 
BRANCH  25  26
ATOM      5  O   UNL     1     -14.403   6.352  21.056  0.00  0.00    -0.276 OA
ATOM      9  N   UNL     1     -16.209   4.930  21.104  0.00  0.00    -0.329 N 
ATOM     26  C   UNL     1     -15.246   5.724  21.691  0.00  0.00    +0.212 C 
ATOM     32  H   UNL     1     -16.256   4.826  20.096  0.00  0.00    +0.145 HD
ATOM     33  H   UNL     1     -16.899   4.423  21.649  0.00  0.00    +0.145 HD
ENDBRANCH  25  26
ENDBRANCH  24  25
ENDBRANCH   8  24
ENDBRANCH  21  23
BRANCH  17   1
ATOM      1  O   UNL     1     -19.204   2.400  27.720  0.00  0.00    -0.387 OA
ATOM     29  H   UNL     1     -18.455   3.019  27.686  0.00  0.00    +0.210 HD
ENDBRANCH  17   1
BRANCH  18   2
ATOM      2  O   UNL     1     -18.854  -0.527  25.552  0.00  0.00    -0.389 OA
ATOM     30  H   UNL     1     -19.611  -1.080  25.810  0.00  0.00    +0.210 HD
ENDBRANCH  18   2
TORSDOF 8
ENDMDL
