MODEL 1
REMARK VINA RESULT:      -6.7      0.000      0.000
REMARK  Name = 51137069
REMARK  3 active torsions:
REMARK  status: ('A' for Active; 'I' for Inactive)
REMARK    1  A    between atoms: N_2  and  C_8
REMARK    2  A    between atoms: C_4  and  C_9
REMARK    3  A    between atoms: C_8  and  C_10
REMARK                            x       y       z     vdW  Elec       q    Type
REMARK                         _______ _______ _______ _____ _____    ______ ____
ROOT
ATOM      2  N   UNL     1      -2.476 -11.462  12.698  0.00  0.00    -0.297 NA
ATOM      4  C   UNL     1      -2.909 -10.577  14.825  0.00  0.00    +0.060 C 
ATOM      5  C   UNL     1      -1.704 -11.530  14.900  0.00  0.00    +0.027 C 
ATOM      6  C   UNL     1      -3.577 -10.899  13.482  0.00  0.00    +0.095 C 
ATOM      7  C   UNL     1      -1.772 -12.353  13.621  0.00  0.00    +0.085 C 
ENDROOT
BRANCH   4   9
ATOM      1  S   UNL     1      -5.418  -9.966  15.857  0.00  0.00    -0.072 S 
ATOM      3  N   UNL     1      -3.584 -11.251  17.135  0.00  0.00    -0.244 NA
ATOM      9  C   UNL     1      -3.863 -10.665  15.995  0.00  0.00    +0.084 A 
ATOM     11  C   UNL     1      -5.781 -10.479  17.463  0.00  0.00    +0.039 A 
ATOM     12  C   UNL     1      -4.673 -11.152  17.988  0.00  0.00    +0.078 A 
ATOM     15  C   UNL     1      -6.959 -10.298  18.203  0.00  0.00    +0.017 A 
ATOM     16  C   UNL     1      -4.751 -11.662  19.302  0.00  0.00    +0.029 A 
ATOM     19  C   UNL     1      -7.011 -10.812  19.502  0.00  0.00    +0.001 A 
ATOM     20  C   UNL     1      -5.922 -11.485  20.045  0.00  0.00    +0.002 A 
ENDBRANCH   4   9
BRANCH   2   8
ATOM      8  C   UNL     1      -2.940 -12.155  11.506  0.00  0.00    +0.119 C 
BRANCH   8  10
ATOM     10  C   UNL     1      -3.521 -11.202  10.495  0.00  0.00    -0.033 A 
ATOM     13  C   UNL     1      -3.135  -9.862  10.495  0.00  0.00    +0.005 A 
ATOM     14  C   UNL     1      -4.447 -11.660   9.557  0.00  0.00    +0.005 A 
ATOM     17  C   UNL     1      -3.673  -8.980   9.558  0.00  0.00    +0.000 A 
ATOM     18  C   UNL     1      -4.986 -10.778   8.620  0.00  0.00    +0.000 A 
ATOM     21  C   UNL     1      -4.598  -9.438   8.621  0.00  0.00    +0.000 A 
ENDBRANCH   8  10
ENDBRANCH   2   8
TORSDOF 3
ENDMDL
MODEL 2
REMARK VINA RESULT:      -6.4      2.464      3.642
REMARK  Name = 51137069
REMARK  3 active torsions:
REMARK  status: ('A' for Active; 'I' for Inactive)
REMARK    1  A    between atoms: N_2  and  C_8
REMARK    2  A    between atoms: C_4  and  C_9
REMARK    3  A    between atoms: C_8  and  C_10
REMARK                            x       y       z     vdW  Elec       q    Type
REMARK                         _______ _______ _______ _____ _____    ______ ____
ROOT
ATOM      2  N   UNL     1      -4.231 -10.645  14.780  0.00  0.00    -0.297 NA
ATOM      4  C   UNL     1      -5.535  -9.737  16.504  0.00  0.00    +0.060 C 
ATOM      5  C   UNL     1      -4.439 -10.634  17.105  0.00  0.00    +0.027 C 
ATOM      6  C   UNL     1      -5.576 -10.117  15.018  0.00  0.00    +0.095 C 
ATOM      7  C   UNL     1      -3.944 -11.485  15.944  0.00  0.00    +0.085 C 
ENDROOT
BRANCH   4   9
ATOM      1  S   UNL     1      -7.081 -10.940  18.477  0.00  0.00    -0.072 S 
ATOM      3  N   UNL     1      -7.941  -9.148  16.834  0.00  0.00    -0.244 NA
ATOM      9  C   UNL     1      -6.884  -9.845  17.178  0.00  0.00    +0.084 A 
ATOM     11  C   UNL     1      -8.732 -10.460  18.618  0.00  0.00    +0.039 A 
ATOM     12  C   UNL     1      -9.009  -9.490  17.650  0.00  0.00    +0.078 A 
ATOM     15  C   UNL     1      -9.709 -10.909  19.519  0.00  0.00    +0.017 A 
ATOM     16  C   UNL     1     -10.313  -8.951  17.585  0.00  0.00    +0.029 A 
ATOM     19  C   UNL     1     -10.992 -10.361  19.434  0.00  0.00    +0.001 A 
ATOM     20  C   UNL     1     -11.291  -9.395  18.480  0.00  0.00    +0.002 A 
ENDBRANCH   4   9
BRANCH   2   8
ATOM      8  C   UNL     1      -4.137 -11.381  13.529  0.00  0.00    +0.119 C 
BRANCH   8  10
ATOM     10  C   UNL     1      -3.419 -10.592  12.466  0.00  0.00    -0.033 A 
ATOM     13  C   UNL     1      -2.039 -10.406  12.547  0.00  0.00    +0.005 A 
ATOM     14  C   UNL     1      -4.135 -10.045  11.401  0.00  0.00    +0.005 A 
ATOM     17  C   UNL     1      -1.375  -9.675  11.562  0.00  0.00    +0.000 A 
ATOM     18  C   UNL     1      -3.472  -9.314  10.416  0.00  0.00    +0.000 A 
ATOM     21  C   UNL     1      -2.091  -9.129  10.497  0.00  0.00    +0.000 A 
ENDBRANCH   8  10
ENDBRANCH   2   8
TORSDOF 3
ENDMDL
MODEL 3
REMARK VINA RESULT:      -6.4     27.231     28.424
REMARK  Name = 51137069
REMARK  3 active torsions:
REMARK  status: ('A' for Active; 'I' for Inactive)
REMARK    1  A    between atoms: N_2  and  C_8
REMARK    2  A    between atoms: C_4  and  C_9
REMARK    3  A    between atoms: C_8  and  C_10
REMARK                            x       y       z     vdW  Elec       q    Type
REMARK                         _______ _______ _______ _____ _____    ______ ____
ROOT
ATOM      2  N   UNL     1      13.960   8.044  20.376  0.00  0.00    -0.297 NA
ATOM      4  C   UNL     1      12.614   9.012  22.035  0.00  0.00    +0.060 C 
ATOM      5  C   UNL     1      11.735   8.200  21.067  0.00  0.00    +0.027 C 
ATOM      6  C   UNL     1      13.948   9.183  21.297  0.00  0.00    +0.095 C 
ATOM      7  C   UNL     1      12.602   7.984  19.834  0.00  0.00    +0.085 C 
ENDROOT
BRANCH   4   9
ATOM      1  S   UNL     1      11.708  11.542  21.325  0.00  0.00    -0.072 S 
ATOM      3  N   UNL     1      11.709  10.610  23.730  0.00  0.00    -0.244 NA
ATOM      9  C   UNL     1      12.016  10.325  22.486  0.00  0.00    +0.084 A 
ATOM     11  C   UNL     1      11.103  12.566  22.574  0.00  0.00    +0.039 A 
ATOM     12  C   UNL     1      11.185  11.892  23.796  0.00  0.00    +0.078 A 
ATOM     15  C   UNL     1      10.594  13.871  22.479  0.00  0.00    +0.017 A 
ATOM     16  C   UNL     1      10.740  12.550  24.964  0.00  0.00    +0.029 A 
ATOM     19  C   UNL     1      10.160  14.500  23.649  0.00  0.00    +0.001 A 
ATOM     20  C   UNL     1      10.232  13.850  24.876  0.00  0.00    +0.002 A 
ENDBRANCH   4   9
BRANCH   2   8
ATOM      8  C   UNL     1      14.967   8.183  19.335  0.00  0.00    +0.119 C 
BRANCH   8  10
ATOM     10  C   UNL     1      16.218   7.410  19.659  0.00  0.00    -0.033 A 
ATOM     13  C   UNL     1      17.061   7.843  20.682  0.00  0.00    +0.005 A 
ATOM     14  C   UNL     1      16.534   6.260  18.934  0.00  0.00    +0.005 A 
ATOM     17  C   UNL     1      18.220   7.126  20.981  0.00  0.00    +0.000 A 
ATOM     18  C   UNL     1      17.692   5.544  19.233  0.00  0.00    +0.000 A 
ATOM     21  C   UNL     1      18.535   5.976  20.257  0.00  0.00    +0.000 A 
ENDBRANCH   8  10
ENDBRANCH   2   8
TORSDOF 3
ENDMDL
MODEL 4
REMARK VINA RESULT:      -6.4     22.358     25.857
REMARK  Name = 51137069
REMARK  3 active torsions:
REMARK  status: ('A' for Active; 'I' for Inactive)
REMARK    1  A    between atoms: N_2  and  C_8
REMARK    2  A    between atoms: C_4  and  C_9
REMARK    3  A    between atoms: C_8  and  C_10
REMARK                            x       y       z     vdW  Elec       q    Type
REMARK                         _______ _______ _______ _____ _____    ______ ____
ROOT
ATOM      2  N   UNL     1      10.689   5.726   4.379  0.00  0.00    -0.297 NA
ATOM      4  C   UNL     1      11.796   4.751   2.557  0.00  0.00    +0.060 C 
ATOM      5  C   UNL     1      12.395   6.140   2.841  0.00  0.00    +0.027 C 
ATOM      6  C   UNL     1      10.466   4.738   3.321  0.00  0.00    +0.095 C 
ATOM      7  C   UNL     1      11.367   6.841   3.718  0.00  0.00    +0.085 C 
ENDROOT
BRANCH   4   9
ATOM      1  S   UNL     1      10.344   5.106   0.214  0.00  0.00    -0.072 S 
ATOM      3  N   UNL     1      12.437   3.614   0.426  0.00  0.00    -0.244 NA
ATOM      9  C   UNL     1      11.638   4.415   1.092  0.00  0.00    +0.084 A 
ATOM     11  C   UNL     1      10.873   4.274  -1.202  0.00  0.00    +0.039 A 
ATOM     12  C   UNL     1      12.010   3.523  -0.891  0.00  0.00    +0.078 A 
ATOM     15  C   UNL     1      10.321   4.286  -2.492  0.00  0.00    +0.017 A 
ATOM     16  C   UNL     1      12.615   2.756  -1.911  0.00  0.00    +0.029 A 
ATOM     19  C   UNL     1      10.938   3.518  -3.484  0.00  0.00    +0.001 A 
ATOM     20  C   UNL     1      12.070   2.763  -3.198  0.00  0.00    +0.002 A 
ENDBRANCH   4   9
BRANCH   2   8
ATOM      8  C   UNL     1       9.451   6.135   5.026  0.00  0.00    +0.119 C 
BRANCH   8  10
ATOM     10  C   UNL     1       9.445   5.793   6.492  0.00  0.00    -0.033 A 
ATOM     13  C   UNL     1       9.815   4.515   6.913  0.00  0.00    +0.005 A 
ATOM     14  C   UNL     1       9.069   6.754   7.431  0.00  0.00    +0.005 A 
ATOM     17  C   UNL     1       9.809   4.199   8.272  0.00  0.00    +0.000 A 
ATOM     18  C   UNL     1       9.062   6.438   8.789  0.00  0.00    +0.000 A 
ATOM     21  C   UNL     1       9.433   5.161   9.210  0.00  0.00    +0.000 A 
ENDBRANCH   8  10
ENDBRANCH   2   8
TORSDOF 3
ENDMDL
MODEL 5
REMARK VINA RESULT:      -6.4     27.518     29.178
REMARK  Name = 51137069
REMARK  3 active torsions:
REMARK  status: ('A' for Active; 'I' for Inactive)
REMARK    1  A    between atoms: N_2  and  C_8
REMARK    2  A    between atoms: C_4  and  C_9
REMARK    3  A    between atoms: C_8  and  C_10
REMARK                            x       y       z     vdW  Elec       q    Type
REMARK                         _______ _______ _______ _____ _____    ______ ____
ROOT
ATOM      2  N   UNL     1      15.831   7.794  20.846  0.00  0.00    -0.297 NA
ATOM      4  C   UNL     1      18.022   7.116  20.361  0.00  0.00    +0.060 C 
ATOM      5  C   UNL     1      17.026   6.223  19.600  0.00  0.00    +0.027 C 
ATOM      6  C   UNL     1      17.175   7.822  21.427  0.00  0.00    +0.095 C 
ATOM      7  C   UNL     1      15.688   6.449  20.290  0.00  0.00    +0.085 C 
ENDROOT
BRANCH   4   9
ATOM      1  S   UNL     1      19.927   6.972  22.380  0.00  0.00    -0.072 S 
ATOM      3  N   UNL     1      19.754   5.315  20.412  0.00  0.00    -0.244 NA
ATOM      9  C   UNL     1      19.213   6.387  20.940  0.00  0.00    +0.084 A 
ATOM     11  C   UNL     1      21.078   5.688  22.319  0.00  0.00    +0.039 A 
ATOM     12  C   UNL     1      20.825   4.903  21.191  0.00  0.00    +0.078 A 
ATOM     15  C   UNL     1      22.126   5.399  23.206  0.00  0.00    +0.017 A 
ATOM     16  C   UNL     1      21.654   3.787  20.943  0.00  0.00    +0.029 A 
ATOM     19  C   UNL     1      22.933   4.289  22.938  0.00  0.00    +0.001 A 
ATOM     20  C   UNL     1      22.701   3.493  21.822  0.00  0.00    +0.002 A 
ENDBRANCH   4   9
BRANCH   2   8
ATOM      8  C   UNL     1      14.797   8.103  21.822  0.00  0.00    +0.119 C 
BRANCH   8  10
ATOM     10  C   UNL     1      13.448   8.273  21.176  0.00  0.00    -0.033 A 
ATOM     13  C   UNL     1      12.358   7.530  21.629  0.00  0.00    +0.005 A 
ATOM     14  C   UNL     1      13.288   9.174  20.123  0.00  0.00    +0.005 A 
ATOM     17  C   UNL     1      11.108   7.688  21.031  0.00  0.00    +0.000 A 
ATOM     18  C   UNL     1      12.039   9.331  19.523  0.00  0.00    +0.000 A 
ATOM     21  C   UNL     1      10.949   8.589  19.978  0.00  0.00    +0.000 A 
ENDBRANCH   8  10
ENDBRANCH   2   8
TORSDOF 3
ENDMDL
MODEL 6
REMARK VINA RESULT:      -6.3     27.504     29.078
REMARK  Name = 51137069
REMARK  3 active torsions:
REMARK  status: ('A' for Active; 'I' for Inactive)
REMARK    1  A    between atoms: N_2  and  C_8
REMARK    2  A    between atoms: C_4  and  C_9
REMARK    3  A    between atoms: C_8  and  C_10
REMARK                            x       y       z     vdW  Elec       q    Type
REMARK                         _______ _______ _______ _____ _____    ______ ____
ROOT
ATOM      2  N   UNL     1      18.303   6.184  20.655  0.00  0.00    -0.297 NA
ATOM      4  C   UNL     1      16.001   6.558  20.900  0.00  0.00    +0.060 C 
ATOM      5  C   UNL     1      16.293   6.060  19.474  0.00  0.00    +0.027 C 
ATOM      6  C   UNL     1      17.369   6.983  21.450  0.00  0.00    +0.095 C 
ATOM      7  C   UNL     1      17.791   6.257  19.286  0.00  0.00    +0.085 C 
ENDROOT
BRANCH   4   9
ATOM      1  S   UNL     1      15.167   9.074  20.063  0.00  0.00    -0.072 S 
ATOM      3  N   UNL     1      13.890   7.594  21.745  0.00  0.00    -0.244 NA
ATOM      9  C   UNL     1      14.962   7.652  20.991  0.00  0.00    +0.084 A 
ATOM     11  C   UNL     1      13.694   9.696  20.709  0.00  0.00    +0.039 A 
ATOM     12  C   UNL     1      13.153   8.759  21.595  0.00  0.00    +0.078 A 
ATOM     15  C   UNL     1      13.064  10.923  20.451  0.00  0.00    +0.017 A 
ATOM     16  C   UNL     1      11.936   9.064  22.243  0.00  0.00    +0.029 A 
ATOM     19  C   UNL     1      11.861  11.202  21.106  0.00  0.00    +0.001 A 
ATOM     20  C   UNL     1      11.304  10.285  21.991  0.00  0.00    +0.002 A 
ENDBRANCH   4   9
BRANCH   2   8
ATOM      8  C   UNL     1      19.673   6.663  20.761  0.00  0.00    +0.119 C 
BRANCH   8  10
ATOM     10  C   UNL     1      20.604   5.592  21.265  0.00  0.00    -0.033 A 
ATOM     13  C   UNL     1      21.355   5.808  22.420  0.00  0.00    +0.005 A 
ATOM     14  C   UNL     1      20.716   4.384  20.576  0.00  0.00    +0.005 A 
ATOM     17  C   UNL     1      22.217   4.815  22.888  0.00  0.00    +0.000 A 
ATOM     18  C   UNL     1      21.578   3.392  21.042  0.00  0.00    +0.000 A 
ATOM     21  C   UNL     1      22.328   3.608  22.198  0.00  0.00    +0.000 A 
ENDBRANCH   8  10
ENDBRANCH   2   8
TORSDOF 3
ENDMDL
MODEL 7
REMARK VINA RESULT:      -6.3     28.476     30.174
REMARK  Name = 51137069
REMARK  3 active torsions:
REMARK  status: ('A' for Active; 'I' for Inactive)
REMARK    1  A    between atoms: N_2  and  C_8
REMARK    2  A    between atoms: C_4  and  C_9
REMARK    3  A    between atoms: C_8  and  C_10
REMARK                            x       y       z     vdW  Elec       q    Type
REMARK                         _______ _______ _______ _____ _____    ______ ____
ROOT
ATOM      2  N   UNL     1      21.284   4.951  21.078  0.00  0.00    -0.297 NA
ATOM      4  C   UNL     1      19.643   6.562  20.620  0.00  0.00    +0.060 C 
ATOM      5  C   UNL     1      20.347   6.907  21.944  0.00  0.00    +0.027 C 
ATOM      6  C   UNL     1      20.025   5.102  20.346  0.00  0.00    +0.095 C 
ATOM      7  C   UNL     1      21.059   5.626  22.357  0.00  0.00    +0.085 C 
ENDROOT
BRANCH   4   9
ATOM      1  S   UNL     1      17.204   6.114  19.364  0.00  0.00    -0.072 S 
ATOM      3  N   UNL     1      17.505   7.487  21.526  0.00  0.00    -0.244 NA
ATOM      9  C   UNL     1      18.149   6.791  20.618  0.00  0.00    +0.084 A 
ATOM     11  C   UNL     1      15.789   6.798  20.073  0.00  0.00    +0.039 A 
ATOM     12  C   UNL     1      16.151   7.501  21.227  0.00  0.00    +0.078 A 
ATOM     15  C   UNL     1      14.456   6.720  19.640  0.00  0.00    +0.017 A 
ATOM     16  C   UNL     1      15.140   8.146  21.972  0.00  0.00    +0.029 A 
ATOM     19  C   UNL     1      13.474   7.367  20.395  0.00  0.00    +0.001 A 
ATOM     20  C   UNL     1      13.810   8.071  21.546  0.00  0.00    +0.002 A 
ENDBRANCH   4   9
BRANCH   2   8
ATOM      8  C   UNL     1      21.665   3.557  21.246  0.00  0.00    +0.119 C 
BRANCH   8  10
ATOM     10  C   UNL     1      23.119   3.331  20.924  0.00  0.00    -0.033 A 
ATOM     13  C   UNL     1      23.736   2.133  21.286  0.00  0.00    +0.005 A 
ATOM     14  C   UNL     1      23.849   4.319  20.264  0.00  0.00    +0.005 A 
ATOM     17  C   UNL     1      25.082   1.924  20.987  0.00  0.00    +0.000 A 
ATOM     18  C   UNL     1      25.195   4.111  19.965  0.00  0.00    +0.000 A 
ATOM     21  C   UNL     1      25.811   2.912  20.326  0.00  0.00    +0.000 A 
ENDBRANCH   8  10
ENDBRANCH   2   8
TORSDOF 3
ENDMDL
MODEL 8
REMARK VINA RESULT:      -6.2      6.945      9.880
REMARK  Name = 51137069
REMARK  3 active torsions:
REMARK  status: ('A' for Active; 'I' for Inactive)
REMARK    1  A    between atoms: N_2  and  C_8
REMARK    2  A    between atoms: C_4  and  C_9
REMARK    3  A    between atoms: C_8  and  C_10
REMARK                            x       y       z     vdW  Elec       q    Type
REMARK                         _______ _______ _______ _____ _____    ______ ____
ROOT
ATOM      2  N   UNL     1      -9.460  -8.840  16.575  0.00  0.00    -0.297 NA
ATOM      4  C   UNL     1     -11.176  -7.245  16.460  0.00  0.00    +0.060 C 
ATOM      5  C   UNL     1     -11.759  -8.598  16.904  0.00  0.00    +0.027 C 
ATOM      6  C   UNL     1      -9.791  -7.587  15.893  0.00  0.00    +0.095 C 
ATOM      7  C   UNL     1     -10.695  -9.625  16.542  0.00  0.00    +0.085 C 
ENDROOT
BRANCH   4   9
ATOM      1  S   UNL     1     -13.720  -6.765  15.450  0.00  0.00    -0.072 S 
ATOM      3  N   UNL     1     -11.580  -5.570  14.650  0.00  0.00    -0.244 NA
ATOM      9  C   UNL     1     -12.036  -6.472  15.488  0.00  0.00    +0.084 A 
ATOM     11  C   UNL     1     -13.888  -5.587  14.201  0.00  0.00    +0.039 A 
ATOM     12  C   UNL     1     -12.630  -5.055  13.904  0.00  0.00    +0.078 A 
ATOM     15  C   UNL     1     -15.048  -5.167  13.532  0.00  0.00    +0.017 A 
ATOM     16  C   UNL     1     -12.532  -4.065  12.903  0.00  0.00    +0.029 A 
ATOM     19  C   UNL     1     -14.924  -4.185  12.544  0.00  0.00    +0.001 A 
ATOM     20  C   UNL     1     -13.684  -3.641  12.233  0.00  0.00    +0.002 A 
ENDBRANCH   4   9
BRANCH   2   8
ATOM      8  C   UNL     1      -8.345  -9.535  15.950  0.00  0.00    +0.119 C 
BRANCH   8  10
ATOM     10  C   UNL     1      -7.300  -9.937  16.957  0.00  0.00    -0.033 A 
ATOM     13  C   UNL     1      -7.657 -10.148  18.288  0.00  0.00    +0.005 A 
ATOM     14  C   UNL     1      -5.973 -10.098  16.557  0.00  0.00    +0.005 A 
ATOM     17  C   UNL     1      -6.688 -10.521  19.220  0.00  0.00    +0.000 A 
ATOM     18  C   UNL     1      -5.004 -10.470  17.489  0.00  0.00    +0.000 A 
ATOM     21  C   UNL     1      -5.362 -10.682  18.820  0.00  0.00    +0.000 A 
ENDBRANCH   8  10
ENDBRANCH   2   8
TORSDOF 3
ENDMDL
MODEL 9
REMARK VINA RESULT:      -6.2     22.037     24.645
REMARK  Name = 51137069
REMARK  3 active torsions:
REMARK  status: ('A' for Active; 'I' for Inactive)
REMARK    1  A    between atoms: N_2  and  C_8
REMARK    2  A    between atoms: C_4  and  C_9
REMARK    3  A    between atoms: C_8  and  C_10
REMARK                            x       y       z     vdW  Elec       q    Type
REMARK                         _______ _______ _______ _____ _____    ______ ____
ROOT
ATOM      2  N   UNL     1      11.431   5.667   1.190  0.00  0.00    -0.297 NA
ATOM      4  C   UNL     1      10.029   6.232   2.982  0.00  0.00    +0.060 C 
ATOM      5  C   UNL     1      10.876   7.453   2.587  0.00  0.00    +0.027 C 
ATOM      6  C   UNL     1      10.726   5.041   2.311  0.00  0.00    +0.095 C 
ATOM      7  C   UNL     1      12.013   6.890   1.745  0.00  0.00    +0.085 C 
ENDROOT
BRANCH   4   9
ATOM      1  S   UNL     1       9.339   7.372   5.422  0.00  0.00    -0.072 S 
ATOM      3  N   UNL     1      10.042   4.912   5.104  0.00  0.00    -0.244 NA
ATOM      9  C   UNL     1       9.843   6.043   4.470  0.00  0.00    +0.084 A 
ATOM     11  C   UNL     1       9.382   6.371   6.825  0.00  0.00    +0.039 A 
ATOM     12  C   UNL     1       9.783   5.084   6.456  0.00  0.00    +0.078 A 
ATOM     15  C   UNL     1       9.083   6.702   8.156  0.00  0.00    +0.017 A 
ATOM     16  C   UNL     1       9.887   4.093   7.456  0.00  0.00    +0.029 A 
ATOM     19  C   UNL     1       9.194   5.703   9.128  0.00  0.00    +0.001 A 
ATOM     20  C   UNL     1       9.590   4.416   8.784  0.00  0.00    +0.002 A 
ENDBRANCH   4   9
BRANCH   2   8
ATOM      8  C   UNL     1      12.435   4.791   0.607  0.00  0.00    +0.119 C 
BRANCH   8  10
ATOM     10  C   UNL     1      11.934   4.117  -0.643  0.00  0.00    -0.033 A 
ATOM     13  C   UNL     1      10.863   4.664  -1.350  0.00  0.00    +0.005 A 
ATOM     14  C   UNL     1      12.541   2.945  -1.095  0.00  0.00    +0.005 A 
ATOM     17  C   UNL     1      10.400   4.039  -2.508  0.00  0.00    +0.000 A 
ATOM     18  C   UNL     1      12.077   2.320  -2.252  0.00  0.00    +0.000 A 
ATOM     21  C   UNL     1      11.007   2.868  -2.959  0.00  0.00    +0.000 A 
ENDBRANCH   8  10
ENDBRANCH   2   8
TORSDOF 3
ENDMDL
MODEL 10
REMARK VINA RESULT:      -6.2     25.899     28.317
REMARK  Name = 51137069
REMARK  3 active torsions:
REMARK  status: ('A' for Active; 'I' for Inactive)
REMARK    1  A    between atoms: N_2  and  C_8
REMARK    2  A    between atoms: C_4  and  C_9
REMARK    3  A    between atoms: C_8  and  C_10
REMARK                            x       y       z     vdW  Elec       q    Type
REMARK                         _______ _______ _______ _____ _____    ______ ____
ROOT
ATOM      2  N   UNL     1      16.330   8.706   5.106  0.00  0.00    -0.297 NA
ATOM      4  C   UNL     1      14.229   7.671   5.006  0.00  0.00    +0.060 C 
ATOM      5  C   UNL     1      14.287   8.819   3.984  0.00  0.00    +0.027 C 
ATOM      6  C   UNL     1      15.417   7.925   5.943  0.00  0.00    +0.095 C 
ATOM      7  C   UNL     1      15.475   9.669   4.412  0.00  0.00    +0.085 C 
ENDROOT
BRANCH   4   9
ATOM      1  S   UNL     1      11.680   8.686   5.450  0.00  0.00    -0.072 S 
ATOM      3  N   UNL     1      12.643   6.594   6.609  0.00  0.00    -0.244 NA
ATOM      9  C   UNL     1      12.915   7.541   5.742  0.00  0.00    +0.084 A 
ATOM     11  C   UNL     1      10.665   7.865   6.577  0.00  0.00    +0.039 A 
ATOM     12  C   UNL     1      11.356   6.767   7.097  0.00  0.00    +0.078 A 
ATOM     15  C   UNL     1       9.354   8.172   6.973  0.00  0.00    +0.017 A 
ATOM     16  C   UNL     1      10.709   5.947   8.046  0.00  0.00    +0.029 A 
ATOM     19  C   UNL     1       8.735   7.345   7.914  0.00  0.00    +0.001 A 
ATOM     20  C   UNL     1       9.403   6.246   8.445  0.00  0.00    +0.002 A 
ENDBRANCH   4   9
BRANCH   2   8
ATOM      8  C   UNL     1      17.378   9.354   5.882  0.00  0.00    +0.119 C 
BRANCH   8  10
ATOM     10  C   UNL     1      18.698   8.642   5.746  0.00  0.00    -0.033 A 
ATOM     13  C   UNL     1      19.584   8.602   6.822  0.00  0.00    +0.005 A 
ATOM     14  C   UNL     1      19.035   8.024   4.541  0.00  0.00    +0.005 A 
ATOM     17  C   UNL     1      20.807   7.942   6.695  0.00  0.00    +0.000 A 
ATOM     18  C   UNL     1      20.258   7.365   4.414  0.00  0.00    +0.000 A 
ATOM     21  C   UNL     1      21.143   7.324   5.491  0.00  0.00    +0.000 A 
ENDBRANCH   8  10
ENDBRANCH   2   8
TORSDOF 3
ENDMDL
