MODEL 1
REMARK VINA RESULT:      -6.3      0.000      0.000
REMARK  Name = 38027148
REMARK  14 active torsions:
REMARK  status: ('A' for Active; 'I' for Inactive)
REMARK    1  A    between atoms: N_3  and  C_13
REMARK    2  A    between atoms: N_4  and  C_20
REMARK    3  A    between atoms: N_4  and  C_21
REMARK    4  A    between atoms: N_5  and  C_22
REMARK    5  A    between atoms: C_6  and  C_10
REMARK    6  A    between atoms: C_7  and  C_13
REMARK    7  A    between atoms: C_9  and  C_14
REMARK    8  A    between atoms: C_10  and  C_15
REMARK    9  A    between atoms: C_10  and  C_16
REMARK   10  A    between atoms: C_11  and  C_17
REMARK   11  A    between atoms: C_14  and  C_18
REMARK   12  A    between atoms: C_20  and  C_23
REMARK   13  A    between atoms: C_22  and  C_24
REMARK   14  A    between atoms: C_22  and  C_25
REMARK                            x       y       z     vdW  Elec       q    Type
REMARK                         _______ _______ _______ _____ _____    ______ ____
ROOT
ATOM      6  C   UNL     1      13.793  11.182  20.998  0.00  0.00    +0.000 C 
ATOM      7  C   UNL     1      14.111  12.115  22.192  0.00  0.00    +0.032 C 
ATOM      8  C   UNL     1      12.274  11.029  20.826  0.00  0.00    +0.012 C 
ATOM      9  C   UNL     1      11.600  10.456  22.088  0.00  0.00    +0.023 C 
ATOM     11  C   UNL     1      12.072  11.155  23.346  0.00  0.00    -0.073 C 
ATOM     12  C   UNL     1      13.190  11.903  23.371  0.00  0.00    -0.022 C 
ATOM     17  C   UNL     1      11.205  11.012  24.566  0.00  0.00    +0.039 C 
ENDROOT
BRANCH   6  10
ATOM     10  C   UNL     1      14.412  11.695  19.694  0.00  0.00    -0.013 C 
ATOM     15  C   UNL     1      15.076  10.551  18.935  0.00  0.00    +0.007 C 
ATOM     16  C   UNL     1      13.353  12.373  18.833  0.00  0.00    +0.007 C 
ENDBRANCH   6  10
BRANCH   7  13
ATOM     13  C   UNL     1      15.567  11.954  22.647  0.00  0.00    +0.113 C 
BRANCH  13   3
ATOM      2  O   UNL     1      17.786  10.857  21.165  0.00  0.00    -0.253 OA
ATOM      3  N   UNL     1      15.969  10.584  22.587  0.00  0.00    -0.299 N 
ATOM      5  N   UNL     1      17.230   8.750  21.961  0.00  0.00    -0.297 N 
ATOM     19  C   UNL     1      17.063  10.128  21.842  0.00  0.00    +0.300 C 
ATOM     31  H   UNL     1      15.479   9.910  23.167  0.00  0.00    +0.150 HD
ATOM     32  H   UNL     1      16.535   8.223  22.479  0.00  0.00    +0.150 HD
BRANCH   5  22
ATOM     22  C   UNL     1      18.286   8.029  21.290  0.00  0.00    +0.068 C 
ATOM     24  C   UNL     1      17.709   6.886  20.467  0.00  0.00    +0.027 C 
ATOM     25  C   UNL     1      19.311   7.522  22.298  0.00  0.00    +0.027 C 
ENDBRANCH   5  22
ENDBRANCH  13   3
ENDBRANCH   7  13
BRANCH   9  14
ATOM     14  C   UNL     1      11.814   8.941  22.188  0.00  0.00    +0.103 C 
BRANCH  14  18
ATOM      1  O   UNL     1      10.417   8.241  20.371  0.00  0.00    -0.276 OA
ATOM      4  N   UNL     1      12.642   7.591  20.292  0.00  0.00    -0.300 N 
ATOM     18  C   UNL     1      11.544   8.234  20.874  0.00  0.00    +0.216 C 
ATOM     21  C   UNL     1      13.965   7.596  20.904  0.00  0.00    +0.132 C 
BRANCH   4  20
ATOM     20  C   UNL     1      12.546   6.866  19.027  0.00  0.00    +0.142 C 
BRANCH  20  23
ATOM     23  C   UNL     1      12.848   7.747  17.850  0.00  0.00    -0.030 A 
ATOM     26  C   UNL     1      14.051   7.600  17.158  0.00  0.00    +0.005 A 
ATOM     27  C   UNL     1      11.926   8.713  17.448  0.00  0.00    +0.005 A 
ATOM     28  C   UNL     1      14.331   8.418  16.064  0.00  0.00    +0.000 A 
ATOM     29  C   UNL     1      12.207   9.532  16.354  0.00  0.00    +0.000 A 
ATOM     30  C   UNL     1      13.409   9.385  15.663  0.00  0.00    +0.000 A 
ENDBRANCH  20  23
ENDBRANCH   4  20
ENDBRANCH  14  18
ENDBRANCH   9  14
TORSDOF 8
ENDMDL
MODEL 2
REMARK VINA RESULT:      -5.5     27.585     30.550
REMARK  Name = 38027148
REMARK  14 active torsions:
REMARK  status: ('A' for Active; 'I' for Inactive)
REMARK    1  A    between atoms: N_3  and  C_13
REMARK    2  A    between atoms: N_4  and  C_20
REMARK    3  A    between atoms: N_4  and  C_21
REMARK    4  A    between atoms: N_5  and  C_22
REMARK    5  A    between atoms: C_6  and  C_10
REMARK    6  A    between atoms: C_7  and  C_13
REMARK    7  A    between atoms: C_9  and  C_14
REMARK    8  A    between atoms: C_10  and  C_15
REMARK    9  A    between atoms: C_10  and  C_16
REMARK   10  A    between atoms: C_11  and  C_17
REMARK   11  A    between atoms: C_14  and  C_18
REMARK   12  A    between atoms: C_20  and  C_23
REMARK   13  A    between atoms: C_22  and  C_24
REMARK   14  A    between atoms: C_22  and  C_25
REMARK                            x       y       z     vdW  Elec       q    Type
REMARK                         _______ _______ _______ _____ _____    ______ ____
ROOT
ATOM      6  C   UNL     1      -7.697 -10.284  16.219  0.00  0.00    +0.000 C 
ATOM      7  C   UNL     1      -6.851  -9.970  14.961  0.00  0.00    +0.032 C 
ATOM      8  C   UNL     1      -6.966  -9.817  17.488  0.00  0.00    +0.012 C 
ATOM      9  C   UNL     1      -5.587 -10.486  17.645  0.00  0.00    +0.023 C 
ATOM     11  C   UNL     1      -4.793 -10.452  16.355  0.00  0.00    -0.073 C 
ATOM     12  C   UNL     1      -5.372 -10.207  15.166  0.00  0.00    -0.022 C 
ATOM     17  C   UNL     1      -3.309 -10.662  16.468  0.00  0.00    +0.039 C 
ENDROOT
BRANCH   6  10
ATOM     10  C   UNL     1      -9.082  -9.635  16.151  0.00  0.00    -0.013 C 
ATOM     15  C   UNL     1     -10.172 -10.685  16.338  0.00  0.00    +0.007 C 
ATOM     16  C   UNL     1      -9.205  -8.534  17.198  0.00  0.00    +0.007 C 
ENDBRANCH   6  10
BRANCH   7  13
ATOM     13  C   UNL     1      -7.334 -10.780  13.752  0.00  0.00    +0.113 C 
BRANCH  13   3
ATOM      2  O   UNL     1      -6.826  -9.154  11.423  0.00  0.00    -0.253 OA
ATOM      3  N   UNL     1      -6.282 -10.946  12.799  0.00  0.00    -0.299 N 
ATOM      5  N   UNL     1      -5.000 -10.498  10.927  0.00  0.00    -0.297 N 
ATOM     19  C   UNL     1      -6.100 -10.111  11.689  0.00  0.00    +0.300 C 
ATOM     31  H   UNL     1      -5.585 -11.666  12.967  0.00  0.00    +0.150 HD
ATOM     32  H   UNL     1      -4.511 -11.348  11.184  0.00  0.00    +0.150 HD
BRANCH   5  22
ATOM     22  C   UNL     1      -4.597  -9.802   9.728  0.00  0.00    +0.068 C 
ATOM     24  C   UNL     1      -4.534 -10.766   8.551  0.00  0.00    +0.027 C 
ATOM     25  C   UNL     1      -3.259  -9.102   9.941  0.00  0.00    +0.027 C 
ENDBRANCH   5  22
ENDBRANCH  13   3
ENDBRANCH   7  13
BRANCH   9  14
ATOM     14  C   UNL     1      -5.726 -11.921  18.167  0.00  0.00    +0.103 C 
BRANCH  14  18
ATOM      1  O   UNL     1      -6.491 -11.412  20.380  0.00  0.00    -0.276 OA
ATOM      4  N   UNL     1      -7.819 -12.832  19.113  0.00  0.00    -0.300 N 
ATOM     18  C   UNL     1      -6.699 -12.020  19.326  0.00  0.00    +0.216 C 
ATOM     21  C   UNL     1      -8.043 -13.540  17.859  0.00  0.00    +0.132 C 
BRANCH   4  20
ATOM     20  C   UNL     1      -8.848 -13.030  20.131  0.00  0.00    +0.142 C 
BRANCH  20  23
ATOM     23  C   UNL     1     -10.063 -12.186  19.874  0.00  0.00    -0.030 A 
ATOM     26  C   UNL     1     -11.235 -12.775  19.399  0.00  0.00    +0.005 A 
ATOM     27  C   UNL     1     -10.020 -10.812  20.111  0.00  0.00    +0.005 A 
ATOM     28  C   UNL     1     -12.363 -11.991  19.161  0.00  0.00    +0.000 A 
ATOM     29  C   UNL     1     -11.148 -10.028  19.873  0.00  0.00    +0.000 A 
ATOM     30  C   UNL     1     -12.319 -10.617  19.398  0.00  0.00    +0.000 A 
ENDBRANCH  20  23
ENDBRANCH   4  20
ENDBRANCH  14  18
ENDBRANCH   9  14
TORSDOF 8
ENDMDL
MODEL 3
REMARK VINA RESULT:      -5.5     13.626     16.155
REMARK  Name = 38027148
REMARK  14 active torsions:
REMARK  status: ('A' for Active; 'I' for Inactive)
REMARK    1  A    between atoms: N_3  and  C_13
REMARK    2  A    between atoms: N_4  and  C_20
REMARK    3  A    between atoms: N_4  and  C_21
REMARK    4  A    between atoms: N_5  and  C_22
REMARK    5  A    between atoms: C_6  and  C_10
REMARK    6  A    between atoms: C_7  and  C_13
REMARK    7  A    between atoms: C_9  and  C_14
REMARK    8  A    between atoms: C_10  and  C_15
REMARK    9  A    between atoms: C_10  and  C_16
REMARK   10  A    between atoms: C_11  and  C_17
REMARK   11  A    between atoms: C_14  and  C_18
REMARK   12  A    between atoms: C_20  and  C_23
REMARK   13  A    between atoms: C_22  and  C_24
REMARK   14  A    between atoms: C_22  and  C_25
REMARK                            x       y       z     vdW  Elec       q    Type
REMARK                         _______ _______ _______ _____ _____    ______ ____
ROOT
ATOM      6  C   UNL     1      15.456   9.822   5.233  0.00  0.00    +0.000 C 
ATOM      7  C   UNL     1      16.001   8.373   5.245  0.00  0.00    +0.032 C 
ATOM      8  C   UNL     1      14.734  10.135   6.553  0.00  0.00    +0.012 C 
ATOM      9  C   UNL     1      13.560   9.173   6.817  0.00  0.00    +0.023 C 
ATOM     11  C   UNL     1      13.952   7.728   6.587  0.00  0.00    -0.073 C 
ATOM     12  C   UNL     1      15.054   7.389   5.893  0.00  0.00    -0.022 C 
ATOM     17  C   UNL     1      13.074   6.679   7.210  0.00  0.00    +0.039 C 
ENDROOT
BRANCH   6  10
ATOM     10  C   UNL     1      16.569  10.847   4.996  0.00  0.00    -0.013 C 
ATOM     15  C   UNL     1      15.976  12.190   4.583  0.00  0.00    +0.007 C 
ATOM     16  C   UNL     1      17.430  10.996   6.245  0.00  0.00    +0.007 C 
ENDBRANCH   6  10
BRANCH   7  13
ATOM     13  C   UNL     1      16.339   7.897   3.827  0.00  0.00    +0.113 C 
BRANCH  13   3
ATOM      2  O   UNL     1      15.041   7.056   1.391  0.00  0.00    -0.253 OA
ATOM      3  N   UNL     1      15.744   6.624   3.564  0.00  0.00    -0.299 N 
ATOM      5  N   UNL     1      14.634   4.989   2.363  0.00  0.00    -0.297 N 
ATOM     19  C   UNL     1      15.130   6.291   2.350  0.00  0.00    +0.300 C 
ATOM     31  H   UNL     1      15.825   5.896   4.267  0.00  0.00    +0.150 HD
ATOM     32  H   UNL     1      14.685   4.462   3.229  0.00  0.00    +0.150 HD
BRANCH   5  22
ATOM     22  C   UNL     1      13.954   4.400   1.234  0.00  0.00    +0.068 C 
ATOM     24  C   UNL     1      13.060   3.255   1.691  0.00  0.00    +0.027 C 
ATOM     25  C   UNL     1      14.960   3.932   0.189  0.00  0.00    +0.027 C 
ENDBRANCH   5  22
ENDBRANCH  13   3
ENDBRANCH   7  13
BRANCH   9  14
ATOM     14  C   UNL     1      12.336   9.551   5.975  0.00  0.00    +0.103 C 
BRANCH  14  18
ATOM      1  O   UNL     1      10.689   9.392   7.709  0.00  0.00    -0.276 OA
ATOM      4  N   UNL     1      10.301   8.164   5.779  0.00  0.00    -0.300 N 
ATOM     18  C   UNL     1      11.042   9.040   6.580  0.00  0.00    +0.216 C 
ATOM     21  C   UNL     1      10.738   7.763   4.447  0.00  0.00    +0.132 C 
BRANCH   4  20
ATOM     20  C   UNL     1       9.033   7.585   6.217  0.00  0.00    +0.142 C 
BRANCH  20  23
ATOM     23  C   UNL     1       9.237   6.397   7.112  0.00  0.00    -0.030 A 
ATOM     26  C   UNL     1       8.996   6.506   8.482  0.00  0.00    +0.005 A 
ATOM     27  C   UNL     1       9.667   5.185   6.574  0.00  0.00    +0.005 A 
ATOM     28  C   UNL     1       9.186   5.402   9.313  0.00  0.00    +0.000 A 
ATOM     29  C   UNL     1       9.857   4.081   7.405  0.00  0.00    +0.000 A 
ATOM     30  C   UNL     1       9.617   4.190   8.774  0.00  0.00    +0.000 A 
ENDBRANCH  20  23
ENDBRANCH   4  20
ENDBRANCH  14  18
ENDBRANCH   9  14
TORSDOF 8
ENDMDL
MODEL 4
REMARK VINA RESULT:      -5.5      2.771      5.273
REMARK  Name = 38027148
REMARK  14 active torsions:
REMARK  status: ('A' for Active; 'I' for Inactive)
REMARK    1  A    between atoms: N_3  and  C_13
REMARK    2  A    between atoms: N_4  and  C_20
REMARK    3  A    between atoms: N_4  and  C_21
REMARK    4  A    between atoms: N_5  and  C_22
REMARK    5  A    between atoms: C_6  and  C_10
REMARK    6  A    between atoms: C_7  and  C_13
REMARK    7  A    between atoms: C_9  and  C_14
REMARK    8  A    between atoms: C_10  and  C_15
REMARK    9  A    between atoms: C_10  and  C_16
REMARK   10  A    between atoms: C_11  and  C_17
REMARK   11  A    between atoms: C_14  and  C_18
REMARK   12  A    between atoms: C_20  and  C_23
REMARK   13  A    between atoms: C_22  and  C_24
REMARK   14  A    between atoms: C_22  and  C_25
REMARK                            x       y       z     vdW  Elec       q    Type
REMARK                         _______ _______ _______ _____ _____    ______ ____
ROOT
ATOM      6  C   UNL     1      12.052  12.208  22.304  0.00  0.00    +0.000 C 
ATOM      7  C   UNL     1      10.874  11.466  22.983  0.00  0.00    +0.032 C 
ATOM      8  C   UNL     1      12.269  11.679  20.878  0.00  0.00    +0.012 C 
ATOM      9  C   UNL     1      12.565  10.167  20.856  0.00  0.00    +0.023 C 
ATOM     11  C   UNL     1      11.599   9.390  21.727  0.00  0.00    -0.073 C 
ATOM     12  C   UNL     1      10.841   9.989  22.663  0.00  0.00    -0.022 C 
ATOM     17  C   UNL     1      11.489   7.914  21.465  0.00  0.00    +0.039 C 
ENDROOT
BRANCH   6  10
ATOM     10  C   UNL     1      11.824  13.722  22.266  0.00  0.00    -0.013 C 
ATOM     15  C   UNL     1      12.896  14.400  21.418  0.00  0.00    +0.007 C 
ATOM     16  C   UNL     1      10.431  14.038  21.733  0.00  0.00    +0.007 C 
ENDBRANCH   6  10
BRANCH   7  13
ATOM     13  C   UNL     1      10.902  11.657  24.504  0.00  0.00    +0.113 C 
BRANCH  13   3
ATOM      2  O   UNL     1      12.871  13.244  25.894  0.00  0.00    -0.253 OA
ATOM      3  N   UNL     1      12.144  11.205  25.049  0.00  0.00    -0.299 N 
ATOM      5  N   UNL     1      14.177  11.343  26.143  0.00  0.00    -0.297 N 
ATOM     19  C   UNL     1      13.051  12.041  25.714  0.00  0.00    +0.300 C 
ATOM     31  H   UNL     1      12.356  10.213  25.015  0.00  0.00    +0.150 HD
ATOM     32  H   UNL     1      14.271  10.368  25.877  0.00  0.00    +0.150 HD
BRANCH   5  22
ATOM     22  C   UNL     1      15.264  11.974  26.853  0.00  0.00    +0.068 C 
ATOM     24  C   UNL     1      16.339  12.435  25.878  0.00  0.00    +0.027 C 
ATOM     25  C   UNL     1      15.839  11.027  27.900  0.00  0.00    +0.027 C 
ENDBRANCH   5  22
ENDBRANCH  13   3
ENDBRANCH   7  13
BRANCH   9  14
ATOM     14  C   UNL     1      14.017   9.884  21.259  0.00  0.00    +0.103 C 
BRANCH  14  18
ATOM      1  O   UNL     1      14.957   9.599  19.073  0.00  0.00    -0.276 OA
ATOM      4  N   UNL     1      15.223   7.842  20.565  0.00  0.00    -0.300 N 
ATOM     18  C   UNL     1      14.770   9.113  20.192  0.00  0.00    +0.216 C 
ATOM     21  C   UNL     1      14.990   7.289  21.894  0.00  0.00    +0.132 C 
BRANCH   4  20
ATOM     20  C   UNL     1      15.964   6.975  19.652  0.00  0.00    +0.142 C 
BRANCH  20  23
ATOM     23  C   UNL     1      17.389   6.787  20.087  0.00  0.00    -0.030 A 
ATOM     26  C   UNL     1      18.093   5.647  19.698  0.00  0.00    +0.005 A 
ATOM     27  C   UNL     1      18.008   7.753  20.880  0.00  0.00    +0.005 A 
ATOM     28  C   UNL     1      19.416   5.472  20.103  0.00  0.00    +0.000 A 
ATOM     29  C   UNL     1      19.331   7.578  21.285  0.00  0.00    +0.000 A 
ATOM     30  C   UNL     1      20.035   6.438  20.896  0.00  0.00    +0.000 A 
ENDBRANCH  20  23
ENDBRANCH   4  20
ENDBRANCH  14  18
ENDBRANCH   9  14
TORSDOF 8
ENDMDL
MODEL 5
REMARK VINA RESULT:      -5.4     13.722     16.755
REMARK  Name = 38027148
REMARK  14 active torsions:
REMARK  status: ('A' for Active; 'I' for Inactive)
REMARK    1  A    between atoms: N_3  and  C_13
REMARK    2  A    between atoms: N_4  and  C_20
REMARK    3  A    between atoms: N_4  and  C_21
REMARK    4  A    between atoms: N_5  and  C_22
REMARK    5  A    between atoms: C_6  and  C_10
REMARK    6  A    between atoms: C_7  and  C_13
REMARK    7  A    between atoms: C_9  and  C_14
REMARK    8  A    between atoms: C_10  and  C_15
REMARK    9  A    between atoms: C_10  and  C_16
REMARK   10  A    between atoms: C_11  and  C_17
REMARK   11  A    between atoms: C_14  and  C_18
REMARK   12  A    between atoms: C_20  and  C_23
REMARK   13  A    between atoms: C_22  and  C_24
REMARK   14  A    between atoms: C_22  and  C_25
REMARK                            x       y       z     vdW  Elec       q    Type
REMARK                         _______ _______ _______ _____ _____    ______ ____
ROOT
ATOM      6  C   UNL     1       8.820   8.676   5.646  0.00  0.00    +0.000 C 
ATOM      7  C   UNL     1       8.790   8.689   7.194  0.00  0.00    +0.032 C 
ATOM      8  C   UNL     1       8.315   7.327   5.111  0.00  0.00    +0.012 C 
ATOM      9  C   UNL     1       9.158   6.144   5.626  0.00  0.00    +0.023 C 
ATOM     11  C   UNL     1       9.400   6.232   7.119  0.00  0.00    -0.073 C 
ATOM     12  C   UNL     1       9.218   7.375   7.806  0.00  0.00    -0.022 C 
ATOM     17  C   UNL     1       9.813   4.965   7.814  0.00  0.00    +0.039 C 
ENDROOT
BRANCH   6  10
ATOM     10  C   UNL     1       7.984   9.814   5.051  0.00  0.00    -0.013 C 
ATOM     15  C   UNL     1       8.892  10.905   4.494  0.00  0.00    +0.007 C 
ATOM     16  C   UNL     1       7.052   9.280   3.969  0.00  0.00    +0.007 C 
ENDBRANCH   6  10
BRANCH   7  13
ATOM     13  C   UNL     1       9.661   9.819   7.755  0.00  0.00    +0.113 C 
BRANCH  13   3
ATOM      2  O   UNL     1      11.761  10.718   5.992  0.00  0.00    -0.253 OA
ATOM      3  N   UNL     1      11.037   9.432   7.786  0.00  0.00    -0.299 N 
ATOM      5  N   UNL     1      13.258   9.374   7.148  0.00  0.00    -0.297 N 
ATOM     19  C   UNL     1      12.001   9.915   6.892  0.00  0.00    +0.300 C 
ATOM     31  H   UNL     1      11.352   8.825   8.537  0.00  0.00    +0.150 HD
ATOM     32  H   UNL     1      13.340   8.659   7.862  0.00  0.00    +0.150 HD
BRANCH   5  22
ATOM     22  C   UNL     1      14.427   9.708   6.367  0.00  0.00    +0.068 C 
ATOM     24  C   UNL     1      15.364   8.511   6.275  0.00  0.00    +0.027 C 
ATOM     25  C   UNL     1      15.136  10.920   6.959  0.00  0.00    +0.027 C 
ENDBRANCH   5  22
ENDBRANCH  13   3
ENDBRANCH   7  13
BRANCH   9  14
ATOM     14  C   UNL     1      10.481   6.035   4.861  0.00  0.00    +0.103 C 
BRANCH  14  18
ATOM      1  O   UNL     1      10.497   3.692   4.355  0.00  0.00    -0.276 OA
ATOM      4  N   UNL     1      10.533   5.152   2.553  0.00  0.00    -0.300 N 
ATOM     18  C   UNL     1      10.504   4.846   3.919  0.00  0.00    +0.216 C 
ATOM     21  C   UNL     1      10.541   6.524   2.060  0.00  0.00    +0.132 C 
BRANCH   4  20
ATOM     20  C   UNL     1      10.558   4.121   1.519  0.00  0.00    +0.142 C 
BRANCH  20  23
ATOM     23  C   UNL     1      11.913   3.993   0.885  0.00  0.00    -0.030 A 
ATOM     26  C   UNL     1      12.068   4.222  -0.483  0.00  0.00    +0.005 A 
ATOM     27  C   UNL     1      13.017   3.647   1.663  0.00  0.00    +0.005 A 
ATOM     28  C   UNL     1      13.327   4.104  -1.072  0.00  0.00    +0.000 A 
ATOM     29  C   UNL     1      14.276   3.528   1.074  0.00  0.00    +0.000 A 
ATOM     30  C   UNL     1      14.430   3.757  -0.293  0.00  0.00    +0.000 A 
ENDBRANCH  20  23
ENDBRANCH   4  20
ENDBRANCH  14  18
ENDBRANCH   9  14
TORSDOF 8
ENDMDL
MODEL 6
REMARK VINA RESULT:      -5.3     26.537     29.871
REMARK  Name = 38027148
REMARK  14 active torsions:
REMARK  status: ('A' for Active; 'I' for Inactive)
REMARK    1  A    between atoms: N_3  and  C_13
REMARK    2  A    between atoms: N_4  and  C_20
REMARK    3  A    between atoms: N_4  and  C_21
REMARK    4  A    between atoms: N_5  and  C_22
REMARK    5  A    between atoms: C_6  and  C_10
REMARK    6  A    between atoms: C_7  and  C_13
REMARK    7  A    between atoms: C_9  and  C_14
REMARK    8  A    between atoms: C_10  and  C_15
REMARK    9  A    between atoms: C_10  and  C_16
REMARK   10  A    between atoms: C_11  and  C_17
REMARK   11  A    between atoms: C_14  and  C_18
REMARK   12  A    between atoms: C_20  and  C_23
REMARK   13  A    between atoms: C_22  and  C_24
REMARK   14  A    between atoms: C_22  and  C_25
REMARK                            x       y       z     vdW  Elec       q    Type
REMARK                         _______ _______ _______ _____ _____    ______ ____
ROOT
ATOM      6  C   UNL     1      -5.068 -10.578  10.890  0.00  0.00    +0.000 C 
ATOM      7  C   UNL     1      -4.530  -9.640   9.782  0.00  0.00    +0.032 C 
ATOM      8  C   UNL     1      -4.484 -10.186  12.256  0.00  0.00    +0.012 C 
ATOM      9  C   UNL     1      -2.944 -10.245  12.269  0.00  0.00    +0.023 C 
ATOM     11  C   UNL     1      -2.343  -9.567  11.056  0.00  0.00    -0.073 C 
ATOM     12  C   UNL     1      -3.070  -9.292   9.958  0.00  0.00    -0.022 C 
ATOM     17  C   UNL     1      -0.896  -9.169  11.150  0.00  0.00    +0.039 C 
ENDROOT
BRANCH   6  10
ATOM     10  C   UNL     1      -6.598 -10.561  10.957  0.00  0.00    -0.013 C 
ATOM     15  C   UNL     1      -7.089 -11.424  12.114  0.00  0.00    +0.007 C 
ATOM     16  C   UNL     1      -7.108  -9.131  11.093  0.00  0.00    +0.007 C 
ENDBRANCH   6  10
BRANCH   7  13
ATOM     13  C   UNL     1      -4.745 -10.247   8.390  0.00  0.00    +0.113 C 
BRANCH  13   3
ATOM      2  O   UNL     1      -7.528 -10.135   7.636  0.00  0.00    -0.253 OA
ATOM      3  N   UNL     1      -5.362  -9.301   7.514  0.00  0.00    -0.299 N 
ATOM      5  N   UNL     1      -7.061  -8.280   6.322  0.00  0.00    -0.297 N 
ATOM     19  C   UNL     1      -6.726  -9.312   7.196  0.00  0.00    +0.300 C 
ATOM     31  H   UNL     1      -4.800  -8.536   7.152  0.00  0.00    +0.150 HD
ATOM     32  H   UNL     1      -6.315  -7.701   5.952  0.00  0.00    +0.150 HD
BRANCH   5  22
ATOM     22  C   UNL     1      -8.405  -8.071   5.837  0.00  0.00    +0.068 C 
ATOM     24  C   UNL     1      -8.394  -7.819   4.335  0.00  0.00    +0.027 C 
ATOM     25  C   UNL     1      -9.069  -6.921   6.585  0.00  0.00    +0.027 C 
ENDBRANCH   5  22
ENDBRANCH  13   3
ENDBRANCH   7  13
BRANCH   9  14
ATOM     14  C   UNL     1      -2.449 -11.691  12.392  0.00  0.00    +0.103 C 
BRANCH  14  18
ATOM      1  O   UNL     1      -4.111 -13.315  12.979  0.00  0.00    -0.276 OA
ATOM      4  N   UNL     1      -3.016 -12.257  14.729  0.00  0.00    -0.300 N 
ATOM     18  C   UNL     1      -3.273 -12.500  13.375  0.00  0.00    +0.216 C 
ATOM     21  C   UNL     1      -2.021 -11.289  15.174  0.00  0.00    +0.132 C 
BRANCH   4  20
ATOM     20  C   UNL     1      -3.726 -12.954  15.799  0.00  0.00    +0.142 C 
BRANCH  20  23
ATOM     23  C   UNL     1      -4.607 -12.028  16.586  0.00  0.00    -0.030 A 
ATOM     26  C   UNL     1      -4.450 -11.920  17.968  0.00  0.00    +0.005 A 
ATOM     27  C   UNL     1      -5.584 -11.274  15.934  0.00  0.00    +0.005 A 
ATOM     28  C   UNL     1      -5.269 -11.059  18.698  0.00  0.00    +0.000 A 
ATOM     29  C   UNL     1      -6.402 -10.413  16.665  0.00  0.00    +0.000 A 
ATOM     30  C   UNL     1      -6.245 -10.306  18.046  0.00  0.00    +0.000 A 
ENDBRANCH  20  23
ENDBRANCH   4  20
ENDBRANCH  14  18
ENDBRANCH   9  14
TORSDOF 8
ENDMDL
MODEL 7
REMARK VINA RESULT:      -5.3     26.142     29.452
REMARK  Name = 38027148
REMARK  14 active torsions:
REMARK  status: ('A' for Active; 'I' for Inactive)
REMARK    1  A    between atoms: N_3  and  C_13
REMARK    2  A    between atoms: N_4  and  C_20
REMARK    3  A    between atoms: N_4  and  C_21
REMARK    4  A    between atoms: N_5  and  C_22
REMARK    5  A    between atoms: C_6  and  C_10
REMARK    6  A    between atoms: C_7  and  C_13
REMARK    7  A    between atoms: C_9  and  C_14
REMARK    8  A    between atoms: C_10  and  C_15
REMARK    9  A    between atoms: C_10  and  C_16
REMARK   10  A    between atoms: C_11  and  C_17
REMARK   11  A    between atoms: C_14  and  C_18
REMARK   12  A    between atoms: C_20  and  C_23
REMARK   13  A    between atoms: C_22  and  C_24
REMARK   14  A    between atoms: C_22  and  C_25
REMARK                            x       y       z     vdW  Elec       q    Type
REMARK                         _______ _______ _______ _____ _____    ______ ____
ROOT
ATOM      6  C   UNL     1      -5.079 -12.254  16.046  0.00  0.00    +0.000 C 
ATOM      7  C   UNL     1      -4.266 -11.726  17.253  0.00  0.00    +0.032 C 
ATOM      8  C   UNL     1      -4.136 -12.700  14.918  0.00  0.00    +0.012 C 
ATOM      9  C   UNL     1      -3.227 -11.555  14.432  0.00  0.00    +0.023 C 
ATOM     11  C   UNL     1      -2.593 -10.809  15.588  0.00  0.00    -0.073 C 
ATOM     12  C   UNL     1      -3.063 -10.908  16.845  0.00  0.00    -0.022 C 
ATOM     17  C   UNL     1      -1.378  -9.981  15.275  0.00  0.00    +0.039 C 
ENDROOT
BRANCH   6  10
ATOM     10  C   UNL     1      -5.998 -13.414  16.442  0.00  0.00    -0.013 C 
ATOM     15  C   UNL     1      -7.162 -13.528  15.464  0.00  0.00    +0.007 C 
ATOM     16  C   UNL     1      -5.211 -14.719  16.503  0.00  0.00    +0.007 C 
ENDBRANCH   6  10
BRANCH   7  13
ATOM     13  C   UNL     1      -5.148 -10.899  18.196  0.00  0.00    +0.113 C 
BRANCH  13   3
ATOM      2  O   UNL     1      -8.028 -10.927  18.016  0.00  0.00    -0.253 OA
ATOM      3  N   UNL     1      -5.974  -9.996  17.457  0.00  0.00    -0.299 N 
ATOM      5  N   UNL     1      -7.924  -9.074  16.625  0.00  0.00    -0.297 N 
ATOM     19  C   UNL     1      -7.372 -10.076  17.419  0.00  0.00    +0.300 C 
ATOM     31  H   UNL     1      -5.533  -9.213  16.985  0.00  0.00    +0.150 HD
ATOM     32  H   UNL     1      -7.296  -8.466  16.109  0.00  0.00    +0.150 HD
BRANCH   5  22
ATOM     22  C   UNL     1      -9.346  -8.934  16.419  0.00  0.00    +0.068 C 
ATOM     24  C   UNL     1      -9.654  -8.761  14.937  0.00  0.00    +0.027 C 
ATOM     25  C   UNL     1      -9.892  -7.769  17.235  0.00  0.00    +0.027 C 
ENDBRANCH   5  22
ENDBRANCH  13   3
ENDBRANCH   7  13
BRANCH   9  14
ATOM     14  C   UNL     1      -3.991 -10.596  13.512  0.00  0.00    +0.103 C 
BRANCH  14  18
ATOM      1  O   UNL     1      -2.248 -10.991  11.915  0.00  0.00    -0.276 OA
ATOM      4  N   UNL     1      -4.056  -9.726  11.200  0.00  0.00    -0.300 N 
ATOM     18  C   UNL     1      -3.340 -10.467  12.148  0.00  0.00    +0.216 C 
ATOM     21  C   UNL     1      -5.346  -9.116  11.498  0.00  0.00    +0.132 C 
BRANCH   4  20
ATOM     20  C   UNL     1      -3.566  -9.510   9.841  0.00  0.00    +0.142 C 
BRANCH  20  23
ATOM     23  C   UNL     1      -4.325 -10.323   8.833  0.00  0.00    -0.030 A 
ATOM     26  C   UNL     1      -5.093  -9.687   7.858  0.00  0.00    +0.005 A 
ATOM     27  C   UNL     1      -4.261 -11.716   8.871  0.00  0.00    +0.005 A 
ATOM     28  C   UNL     1      -5.799 -10.443   6.922  0.00  0.00    +0.000 A 
ATOM     29  C   UNL     1      -4.967 -12.472   7.935  0.00  0.00    +0.000 A 
ATOM     30  C   UNL     1      -5.735 -11.835   6.961  0.00  0.00    +0.000 A 
ENDBRANCH  20  23
ENDBRANCH   4  20
ENDBRANCH  14  18
ENDBRANCH   9  14
TORSDOF 8
ENDMDL
MODEL 8
REMARK VINA RESULT:      -5.2     26.675     29.863
REMARK  Name = 38027148
REMARK  14 active torsions:
REMARK  status: ('A' for Active; 'I' for Inactive)
REMARK    1  A    between atoms: N_3  and  C_13
REMARK    2  A    between atoms: N_4  and  C_20
REMARK    3  A    between atoms: N_4  and  C_21
REMARK    4  A    between atoms: N_5  and  C_22
REMARK    5  A    between atoms: C_6  and  C_10
REMARK    6  A    between atoms: C_7  and  C_13
REMARK    7  A    between atoms: C_9  and  C_14
REMARK    8  A    between atoms: C_10  and  C_15
REMARK    9  A    between atoms: C_10  and  C_16
REMARK   10  A    between atoms: C_11  and  C_17
REMARK   11  A    between atoms: C_14  and  C_18
REMARK   12  A    between atoms: C_20  and  C_23
REMARK   13  A    between atoms: C_22  and  C_24
REMARK   14  A    between atoms: C_22  and  C_25
REMARK                            x       y       z     vdW  Elec       q    Type
REMARK                         _______ _______ _______ _____ _____    ______ ____
ROOT
ATOM      6  C   UNL     1      -5.434 -11.325  17.311  0.00  0.00    +0.000 C 
ATOM      7  C   UNL     1      -4.373 -12.054  16.452  0.00  0.00    +0.032 C 
ATOM      8  C   UNL     1      -6.717 -12.165  17.408  0.00  0.00    +0.012 C 
ATOM      9  C   UNL     1      -7.326 -12.460  16.023  0.00  0.00    +0.023 C 
ATOM     11  C   UNL     1      -6.279 -12.933  15.036  0.00  0.00    -0.073 C 
ATOM     12  C   UNL     1      -4.963 -12.756  15.250  0.00  0.00    -0.022 C 
ATOM     17  C   UNL     1      -6.777 -13.657  13.816  0.00  0.00    +0.039 C 
ENDROOT
BRANCH   6  10
ATOM     10  C   UNL     1      -4.913 -11.012  18.717  0.00  0.00    -0.013 C 
ATOM     15  C   UNL     1      -6.072 -10.704  19.658  0.00  0.00    +0.007 C 
ATOM     16  C   UNL     1      -4.080 -12.175  19.246  0.00  0.00    +0.007 C 
ENDBRANCH   6  10
BRANCH   7  13
ATOM     13  C   UNL     1      -3.275 -11.089  15.990  0.00  0.00    +0.113 C 
BRANCH  13   3
ATOM      2  O   UNL     1      -1.758 -11.464  13.565  0.00  0.00    -0.253 OA
ATOM      3  N   UNL     1      -3.575 -10.561  14.697  0.00  0.00    -0.299 N 
ATOM      5  N   UNL     1      -3.307 -10.158  12.435  0.00  0.00    -0.297 N 
ATOM     19  C   UNL     1      -2.785 -10.789  13.562  0.00  0.00    +0.300 C 
ATOM     31  H   UNL     1      -4.442 -10.046  14.572  0.00  0.00    +0.150 HD
ATOM     32  H   UNL     1      -4.117  -9.558  12.550  0.00  0.00    +0.150 HD
BRANCH   5  22
ATOM     22  C   UNL     1      -2.682 -10.235  11.136  0.00  0.00    +0.068 C 
ATOM     24  C   UNL     1      -1.561  -9.210  11.025  0.00  0.00    +0.027 C 
ATOM     25  C   UNL     1      -3.716 -10.044  10.033  0.00  0.00    +0.027 C 
ENDBRANCH   5  22
ENDBRANCH  13   3
ENDBRANCH   7  13
BRANCH   9  14
ATOM     14  C   UNL     1      -8.080 -11.240  15.481  0.00  0.00    +0.103 C 
BRANCH  14  18
ATOM      1  O   UNL     1     -10.291 -11.648  16.311  0.00  0.00    -0.276 OA
ATOM      4  N   UNL     1      -9.232  -9.723  17.055  0.00  0.00    -0.300 N 
ATOM     18  C   UNL     1      -9.306 -10.906  16.311  0.00  0.00    +0.216 C 
ATOM     21  C   UNL     1      -8.056  -8.862  17.039  0.00  0.00    +0.132 C 
BRANCH   4  20
ATOM     20  C   UNL     1     -10.328  -9.262  17.904  0.00  0.00    +0.142 C 
BRANCH  20  23
ATOM     23  C   UNL     1     -11.246  -8.324  17.176  0.00  0.00    -0.030 A 
ATOM     26  C   UNL     1     -10.804  -7.049  16.821  0.00  0.00    +0.005 A 
ATOM     27  C   UNL     1     -12.542  -8.727  16.854  0.00  0.00    +0.005 A 
ATOM     28  C   UNL     1     -11.657  -6.177  16.145  0.00  0.00    +0.000 A 
ATOM     29  C   UNL     1     -13.395  -7.855  16.178  0.00  0.00    +0.000 A 
ATOM     30  C   UNL     1     -12.953  -6.581  15.823  0.00  0.00    +0.000 A 
ENDBRANCH  20  23
ENDBRANCH   4  20
ENDBRANCH  14  18
ENDBRANCH   9  14
TORSDOF 8
ENDMDL
MODEL 9
REMARK VINA RESULT:      -5.2      3.052      6.324
REMARK  Name = 38027148
REMARK  14 active torsions:
REMARK  status: ('A' for Active; 'I' for Inactive)
REMARK    1  A    between atoms: N_3  and  C_13
REMARK    2  A    between atoms: N_4  and  C_20
REMARK    3  A    between atoms: N_4  and  C_21
REMARK    4  A    between atoms: N_5  and  C_22
REMARK    5  A    between atoms: C_6  and  C_10
REMARK    6  A    between atoms: C_7  and  C_13
REMARK    7  A    between atoms: C_9  and  C_14
REMARK    8  A    between atoms: C_10  and  C_15
REMARK    9  A    between atoms: C_10  and  C_16
REMARK   10  A    between atoms: C_11  and  C_17
REMARK   11  A    between atoms: C_14  and  C_18
REMARK   12  A    between atoms: C_20  and  C_23
REMARK   13  A    between atoms: C_22  and  C_24
REMARK   14  A    between atoms: C_22  and  C_25
REMARK                            x       y       z     vdW  Elec       q    Type
REMARK                         _______ _______ _______ _____ _____    ______ ____
ROOT
ATOM      6  C   UNL     1      18.083   8.114  20.818  0.00  0.00    +0.000 C 
ATOM      7  C   UNL     1      17.836   6.591  20.684  0.00  0.00    +0.032 C 
ATOM      8  C   UNL     1      16.934   8.778  21.592  0.00  0.00    +0.012 C 
ATOM      9  C   UNL     1      15.570   8.561  20.908  0.00  0.00    +0.023 C 
ATOM     11  C   UNL     1      15.366   7.116  20.501  0.00  0.00    -0.073 C 
ATOM     12  C   UNL     1      16.389   6.246  20.419  0.00  0.00    -0.022 C 
ATOM     17  C   UNL     1      13.952   6.681  20.234  0.00  0.00    +0.039 C 
ENDROOT
BRANCH   6  10
ATOM     10  C   UNL     1      19.416   8.416  21.510  0.00  0.00    -0.013 C 
ATOM     15  C   UNL     1      19.526   9.904  21.826  0.00  0.00    +0.007 C 
ATOM     16  C   UNL     1      19.559   7.580  22.777  0.00  0.00    +0.007 C 
ENDBRANCH   6  10
BRANCH   7  13
ATOM     13  C   UNL     1      18.714   5.983  19.584  0.00  0.00    +0.113 C 
BRANCH  13   3
ATOM      2  O   UNL     1      21.502   5.992  20.330  0.00  0.00    -0.253 OA
ATOM      3  N   UNL     1      19.474   4.883  20.091  0.00  0.00    -0.299 N 
ATOM      5  N   UNL     1      21.320   3.750  20.900  0.00  0.00    -0.297 N 
ATOM     19  C   UNL     1      20.830   4.967  20.432  0.00  0.00    +0.300 C 
ATOM     31  H   UNL     1      18.993   4.008  20.279  0.00  0.00    +0.150 HD
ATOM     32  H   UNL     1      20.709   2.941  20.873  0.00  0.00    +0.150 HD
BRANCH   5  22
ATOM     22  C   UNL     1      22.691   3.568  21.317  0.00  0.00    +0.068 C 
ATOM     24  C   UNL     1      23.233   2.244  20.796  0.00  0.00    +0.027 C 
ATOM     25  C   UNL     1      22.802   3.652  22.835  0.00  0.00    +0.027 C 
ENDBRANCH   5  22
ENDBRANCH  13   3
ENDBRANCH   7  13
BRANCH   9  14
ATOM     14  C   UNL     1      15.399   9.499  19.708  0.00  0.00    +0.103 C 
BRANCH  14  18
ATOM      1  O   UNL     1      13.080   9.621  19.114  0.00  0.00    -0.276 OA
ATOM      4  N   UNL     1      13.943  11.393  20.339  0.00  0.00    -0.300 N 
ATOM     18  C   UNL     1      14.034  10.159  19.684  0.00  0.00    +0.216 C 
ATOM     21  C   UNL     1      15.083  12.010  21.005  0.00  0.00    +0.132 C 
BRANCH   4  20
ATOM     20  C   UNL     1      12.698  12.155  20.405  0.00  0.00    +0.142 C 
BRANCH  20  23
ATOM     23  C   UNL     1      12.017  12.005  21.735  0.00  0.00    -0.030 A 
ATOM     26  C   UNL     1      11.535  10.759  22.136  0.00  0.00    +0.005 A 
ATOM     27  C   UNL     1      11.867  13.112  22.570  0.00  0.00    +0.005 A 
ATOM     28  C   UNL     1      10.902  10.620  23.371  0.00  0.00    +0.000 A 
ATOM     29  C   UNL     1      11.235  12.973  23.805  0.00  0.00    +0.000 A 
ATOM     30  C   UNL     1      10.752  11.727  24.205  0.00  0.00    +0.000 A 
ENDBRANCH  20  23
ENDBRANCH   4  20
ENDBRANCH  14  18
ENDBRANCH   9  14
TORSDOF 8
ENDMDL
MODEL 10
REMARK VINA RESULT:      -5.1      3.476      6.365
REMARK  Name = 38027148
REMARK  14 active torsions:
REMARK  status: ('A' for Active; 'I' for Inactive)
REMARK    1  A    between atoms: N_3  and  C_13
REMARK    2  A    between atoms: N_4  and  C_20
REMARK    3  A    between atoms: N_4  and  C_21
REMARK    4  A    between atoms: N_5  and  C_22
REMARK    5  A    between atoms: C_6  and  C_10
REMARK    6  A    between atoms: C_7  and  C_13
REMARK    7  A    between atoms: C_9  and  C_14
REMARK    8  A    between atoms: C_10  and  C_15
REMARK    9  A    between atoms: C_10  and  C_16
REMARK   10  A    between atoms: C_11  and  C_17
REMARK   11  A    between atoms: C_14  and  C_18
REMARK   12  A    between atoms: C_20  and  C_23
REMARK   13  A    between atoms: C_22  and  C_24
REMARK   14  A    between atoms: C_22  and  C_25
REMARK                            x       y       z     vdW  Elec       q    Type
REMARK                         _______ _______ _______ _____ _____    ______ ____
ROOT
ATOM      6  C   UNL     1      19.533   8.780  21.383  0.00  0.00    +0.000 C 
ATOM      7  C   UNL     1      19.668   7.239  21.310  0.00  0.00    +0.032 C 
ATOM      8  C   UNL     1      18.266   9.172  22.158  0.00  0.00    +0.012 C 
ATOM      9  C   UNL     1      16.989   8.598  21.514  0.00  0.00    +0.023 C 
ATOM     11  C   UNL     1      17.142   7.132  21.165  0.00  0.00    -0.073 C 
ATOM     12  C   UNL     1      18.347   6.538  21.092  0.00  0.00    -0.022 C 
ATOM     17  C   UNL     1      15.876   6.352  20.946  0.00  0.00    +0.039 C 
ENDROOT
BRANCH   6  10
ATOM     10  C   UNL     1      20.759   9.429  22.033  0.00  0.00    -0.013 C 
ATOM     15  C   UNL     1      20.582  10.941  22.110  0.00  0.00    +0.007 C 
ATOM     16  C   UNL     1      21.001   8.840  23.418  0.00  0.00    +0.007 C 
ENDBRANCH   6  10
BRANCH   7  13
ATOM     13  C   UNL     1      20.655   6.820  20.214  0.00  0.00    +0.113 C 
BRANCH  13   3
ATOM      2  O   UNL     1      22.965   5.788  21.601  0.00  0.00    -0.253 OA
ATOM      3  N   UNL     1      21.028   5.449  20.363  0.00  0.00    -0.299 N 
ATOM      5  N   UNL     1      22.293   3.638  21.046  0.00  0.00    -0.297 N 
ATOM     19  C   UNL     1      22.170   5.025  21.054  0.00  0.00    +0.300 C 
ATOM     31  H   UNL     1      20.399   4.734  20.008  0.00  0.00    +0.150 HD
ATOM     32  H   UNL     1      21.629   3.098  20.501  0.00  0.00    +0.150 HD
BRANCH   5  22
ATOM     22  C   UNL     1      23.385   2.946  21.689  0.00  0.00    +0.068 C 
ATOM     24  C   UNL     1      23.820   1.749  20.853  0.00  0.00    +0.027 C 
ATOM     25  C   UNL     1      22.993   2.521  23.099  0.00  0.00    +0.027 C 
ENDBRANCH   5  22
ENDBRANCH  13   3
ENDBRANCH   7  13
BRANCH   9  14
ATOM     14  C   UNL     1      16.576   9.415  20.284  0.00  0.00    +0.103 C 
BRANCH  14  18
ATOM      1  O   UNL     1      14.875  10.737  21.335  0.00  0.00    -0.276 OA
ATOM      4  N   UNL     1      14.266   9.572  19.423  0.00  0.00    -0.300 N 
ATOM     18  C   UNL     1      15.172   9.975  20.410  0.00  0.00    +0.216 C 
ATOM     21  C   UNL     1      14.640   8.671  18.340  0.00  0.00    +0.132 C 
BRANCH   4  20
ATOM     20  C   UNL     1      12.876  10.023  19.404  0.00  0.00    +0.142 C 
BRANCH  20  23
ATOM     23  C   UNL     1      12.038   9.304  20.422  0.00  0.00    -0.030 A 
ATOM     26  C   UNL     1      11.811   7.933  20.298  0.00  0.00    +0.005 A 
ATOM     27  C   UNL     1      11.487  10.008  21.493  0.00  0.00    +0.005 A 
ATOM     28  C   UNL     1      11.033   7.266  21.244  0.00  0.00    +0.000 A 
ATOM     29  C   UNL     1      10.708   9.341  22.438  0.00  0.00    +0.000 A 
ATOM     30  C   UNL     1      10.481   7.971  22.314  0.00  0.00    +0.000 A 
ENDBRANCH  20  23
ENDBRANCH   4  20
ENDBRANCH  14  18
ENDBRANCH   9  14
TORSDOF 8
ENDMDL
