MODEL 1
REMARK VINA RESULT:      -7.1      0.000      0.000
REMARK  Name = 44715906
REMARK  13 active torsions:
REMARK  status: ('A' for Active; 'I' for Inactive)
REMARK    1  A    between atoms: O_1  and  C_37
REMARK    2  A    between atoms: O_1  and  C_43
REMARK    3  A    between atoms: O_2  and  C_38
REMARK    4  A    between atoms: O_2  and  C_44
REMARK    5  A    between atoms: N_4  and  C_14
REMARK    6  A    between atoms: N_4  and  C_17
REMARK    7  A    between atoms: N_4  and  C_18
REMARK    8  A    between atoms: N_5  and  C_20
REMARK    9  A    between atoms: C_8  and  C_15
REMARK   10  A    between atoms: C_9  and  C_14
REMARK   11  A    between atoms: C_17  and  C_21
REMARK   12  A    between atoms: C_18  and  C_22
REMARK   13  A    between atoms: C_19  and  C_23
REMARK                            x       y       z     vdW  Elec       q    Type
REMARK                         _______ _______ _______ _____ _____    ______ ____
ROOT
ATOM      3  N   UNL     1      -5.733 -10.899   9.053  0.00  0.00    -0.298 NA
ATOM      7  C   UNL     1      -4.789  -8.901  10.432  0.00  0.00    +0.002 C 
ATOM      8  C   UNL     1      -4.210 -10.245  10.956  0.00  0.00    +0.055 C 
ATOM      9  C   UNL     1      -6.845 -10.022   9.503  0.00  0.00    +0.071 C 
ATOM     10  C   UNL     1      -6.330  -8.952  10.491  0.00  0.00    +0.024 C 
ATOM     11  C   UNL     1      -4.394  -8.797   8.943  0.00  0.00    +0.019 C 
ATOM     12  C   UNL     1      -4.967 -11.392  10.225  0.00  0.00    +0.094 C 
ATOM     13  C   UNL     1      -4.821 -10.084   8.214  0.00  0.00    +0.085 C 
ENDROOT
BRANCH   8  15
ATOM      5  N   UNL     1      -2.979 -10.452  13.165  0.00  0.00    -0.270 N 
ATOM      6  N   UNL     1      -3.138 -10.665  14.483  0.00  0.00    -0.171 NA
ATOM     15  C   UNL     1      -4.146 -10.463  12.460  0.00  0.00    +0.044 A 
ATOM     16  C   UNL     1      -5.138 -10.699  13.380  0.00  0.00    +0.053 A 
ATOM     19  C   UNL     1      -4.459 -10.815  14.608  0.00  0.00    +0.093 A 
ATOM     20  C   UNL     1      -1.649 -10.243  12.639  0.00  0.00    +0.172 C 
BRANCH  19  23
ATOM     23  C   UNL     1      -5.047 -11.068  15.898  0.00  0.00    +0.003 A 
ATOM     28  C   UNL     1      -6.135 -11.935  16.009  0.00  0.00    +0.018 A 
ATOM     29  C   UNL     1      -4.531 -10.449  17.031  0.00  0.00    +0.011 A 
ATOM     30  C   UNL     1      -6.721 -12.193  17.259  0.00  0.00    -0.017 A 
ATOM     31  C   UNL     1      -5.100 -10.693  18.282  0.00  0.00    +0.009 A 
ATOM     36  C   UNL     1      -6.195 -11.563  18.413  0.00  0.00    -0.018 A 
ATOM     39  C   UNL     1      -7.815 -13.063  17.390  0.00  0.00    +0.008 A 
ATOM     40  C   UNL     1      -6.781 -11.821  19.663  0.00  0.00    +0.008 A 
ATOM     41  C   UNL     1      -8.385 -13.307  18.641  0.00  0.00    +0.001 A 
ATOM     42  C   UNL     1      -7.868 -12.687  19.775  0.00  0.00    +0.001 A 
ENDBRANCH  19  23
ENDBRANCH   8  15
BRANCH   9  14
ATOM     14  C   UNL     1      -8.017 -10.816  10.084  0.00  0.00    +0.104 C 
BRANCH  14   4
ATOM      4  N   UNL     1      -9.109  -9.931  10.454  0.00  0.00    -0.293 NA
BRANCH   4  17
ATOM     17  C   UNL     1      -9.883  -9.540   9.273  0.00  0.00    +0.120 C 
BRANCH  17  21
ATOM     21  C   UNL     1     -10.026  -8.044   9.166  0.00  0.00    -0.033 A 
ATOM     24  C   UNL     1      -9.049  -7.295   8.508  0.00  0.00    +0.008 A 
ATOM     26  C   UNL     1     -11.135  -7.409   9.724  0.00  0.00    +0.008 A 
ATOM     32  C   UNL     1      -9.182  -5.910   8.410  0.00  0.00    +0.046 A 
ATOM     34  C   UNL     1     -11.267  -6.024   9.625  0.00  0.00    +0.046 A 
ATOM     37  C   UNL     1     -10.291  -5.274   8.968  0.00  0.00    +0.120 A 
BRANCH  37   1
ATOM      1  O   UNL     1     -10.420  -3.923   8.871  0.00  0.00    -0.495 OA
ATOM     43  C   UNL     1     -11.668  -3.360   9.275  0.00  0.00    +0.277 C 
ENDBRANCH  37   1
ENDBRANCH  17  21
ENDBRANCH   4  17
BRANCH   4  18
ATOM     18  C   UNL     1      -9.983 -10.569  11.442  0.00  0.00    +0.120 C 
BRANCH  18  22
ATOM     22  C   UNL     1      -9.883  -9.906  12.790  0.00  0.00    -0.033 A 
ATOM     25  C   UNL     1      -8.755 -10.107  13.584  0.00  0.00    +0.008 A 
ATOM     27  C   UNL     1     -10.920  -9.090  13.243  0.00  0.00    +0.008 A 
ATOM     33  C   UNL     1      -8.663  -9.492  14.833  0.00  0.00    +0.046 A 
ATOM     35  C   UNL     1     -10.828  -8.475  14.492  0.00  0.00    +0.046 A 
ATOM     38  C   UNL     1      -9.701  -8.676  15.287  0.00  0.00    +0.120 A 
BRANCH  38   2
ATOM      2  O   UNL     1      -9.610  -8.076  16.505  0.00  0.00    -0.495 OA
ATOM     44  C   UNL     1     -10.764  -7.382  16.975  0.00  0.00    +0.277 C 
ENDBRANCH  38   2
ENDBRANCH  18  22
ENDBRANCH   4  18
ENDBRANCH  14   4
ENDBRANCH   9  14
TORSDOF 10
ENDMDL
MODEL 2
REMARK VINA RESULT:      -7.0      3.422      7.454
REMARK  Name = 44715906
REMARK  13 active torsions:
REMARK  status: ('A' for Active; 'I' for Inactive)
REMARK    1  A    between atoms: O_1  and  C_37
REMARK    2  A    between atoms: O_1  and  C_43
REMARK    3  A    between atoms: O_2  and  C_38
REMARK    4  A    between atoms: O_2  and  C_44
REMARK    5  A    between atoms: N_4  and  C_14
REMARK    6  A    between atoms: N_4  and  C_17
REMARK    7  A    between atoms: N_4  and  C_18
REMARK    8  A    between atoms: N_5  and  C_20
REMARK    9  A    between atoms: C_8  and  C_15
REMARK   10  A    between atoms: C_9  and  C_14
REMARK   11  A    between atoms: C_17  and  C_21
REMARK   12  A    between atoms: C_18  and  C_22
REMARK   13  A    between atoms: C_19  and  C_23
REMARK                            x       y       z     vdW  Elec       q    Type
REMARK                         _______ _______ _______ _____ _____    ______ ____
ROOT
ATOM      3  N   UNL     1      -6.521 -11.013  18.197  0.00  0.00    -0.298 NA
ATOM      7  C   UNL     1      -4.202 -12.076  17.673  0.00  0.00    +0.002 C 
ATOM      8  C   UNL     1      -4.372 -10.736  16.904  0.00  0.00    +0.055 C 
ATOM      9  C   UNL     1      -6.691 -12.439  17.813  0.00  0.00    +0.071 C 
ATOM     10  C   UNL     1      -5.359 -13.028  17.300  0.00  0.00    +0.024 C 
ATOM     11  C   UNL     1      -4.348 -11.749  19.174  0.00  0.00    +0.019 C 
ATOM     12  C   UNL     1      -5.843 -10.270  17.105  0.00  0.00    +0.094 C 
ATOM     13  C   UNL     1      -5.653 -10.966  19.398  0.00  0.00    +0.085 C 
ENDROOT
BRANCH   8  15
ATOM      5  N   UNL     1      -2.643 -10.609  15.052  0.00  0.00    -0.270 N 
ATOM      6  N   UNL     1      -2.478 -10.574  13.718  0.00  0.00    -0.171 NA
ATOM     15  C   UNL     1      -3.946 -10.685  15.444  0.00  0.00    +0.044 A 
ATOM     16  C   UNL     1      -4.686 -10.701  14.287  0.00  0.00    +0.053 A 
ATOM     19  C   UNL     1      -3.730 -10.631  13.256  0.00  0.00    +0.093 A 
ATOM     20  C   UNL     1      -1.479 -10.563  15.907  0.00  0.00    +0.172 C 
BRANCH  19  23
ATOM     23  C   UNL     1      -3.989 -10.613  11.840  0.00  0.00    +0.003 A 
ATOM     28  C   UNL     1      -3.894 -11.792  11.100  0.00  0.00    +0.018 A 
ATOM     29  C   UNL     1      -4.334  -9.421  11.211  0.00  0.00    +0.011 A 
ATOM     30  C   UNL     1      -4.143 -11.793   9.718  0.00  0.00    -0.017 A 
ATOM     31  C   UNL     1      -4.584  -9.403   9.838  0.00  0.00    +0.009 A 
ATOM     36  C   UNL     1      -4.494 -10.580   9.078  0.00  0.00    -0.018 A 
ATOM     39  C   UNL     1      -4.053 -12.970   8.958  0.00  0.00    +0.008 A 
ATOM     40  C   UNL     1      -4.743 -10.581   7.696  0.00  0.00    +0.008 A 
ATOM     41  C   UNL     1      -4.303 -12.952   7.585  0.00  0.00    +0.001 A 
ATOM     42  C   UNL     1      -4.648 -11.759   6.955  0.00  0.00    +0.001 A 
ENDBRANCH  19  23
ENDBRANCH   8  15
BRANCH   9  14
ATOM     14  C   UNL     1      -7.827 -12.642  16.808  0.00  0.00    +0.104 C 
BRANCH  14   4
ATOM      4  N   UNL     1      -9.002 -11.879  17.197  0.00  0.00    -0.293 NA
BRANCH   4  17
ATOM     17  C   UNL     1      -9.808 -11.533  16.022  0.00  0.00    +0.120 C 
BRANCH  17  21
ATOM     21  C   UNL     1     -10.249 -10.094  16.049  0.00  0.00    -0.033 A 
ATOM     24  C   UNL     1     -11.557  -9.757  15.699  0.00  0.00    +0.008 A 
ATOM     26  C   UNL     1      -9.350  -9.097  16.427  0.00  0.00    +0.008 A 
ATOM     32  C   UNL     1     -11.965  -8.423  15.725  0.00  0.00    +0.046 A 
ATOM     34  C   UNL     1      -9.758  -7.763  16.453  0.00  0.00    +0.046 A 
ATOM     37  C   UNL     1     -11.065  -7.426  16.102  0.00  0.00    +0.120 A 
BRANCH  37   1
ATOM      1  O   UNL     1     -11.463  -6.126  16.127  0.00  0.00    -0.495 OA
ATOM     43  C   UNL     1     -12.050  -5.603  14.936  0.00  0.00    +0.277 C 
ENDBRANCH  37   1
ENDBRANCH  17  21
ENDBRANCH   4  17
BRANCH   4  18
ATOM     18  C   UNL     1      -9.813 -12.628  18.161  0.00  0.00    +0.120 C 
BRANCH  18  22
ATOM     22  C   UNL     1     -10.819 -11.747  18.852  0.00  0.00    -0.033 A 
ATOM     25  C   UNL     1     -12.183 -11.981  18.684  0.00  0.00    +0.008 A 
ATOM     27  C   UNL     1     -10.386 -10.696  19.661  0.00  0.00    +0.008 A 
ATOM     33  C   UNL     1     -13.115 -11.164  19.324  0.00  0.00    +0.046 A 
ATOM     35  C   UNL     1     -11.317  -9.879  20.302  0.00  0.00    +0.046 A 
ATOM     38  C   UNL     1     -12.682 -10.113  20.133  0.00  0.00    +0.120 A 
BRANCH  38   2
ATOM      2  O   UNL     1     -13.591  -9.317  20.758  0.00  0.00    -0.495 OA
ATOM     44  C   UNL     1     -14.952  -9.744  20.736  0.00  0.00    +0.277 C 
ENDBRANCH  38   2
ENDBRANCH  18  22
ENDBRANCH   4  18
ENDBRANCH  14   4
ENDBRANCH   9  14
TORSDOF 10
ENDMDL
MODEL 3
REMARK VINA RESULT:      -7.0      3.266      8.319
REMARK  Name = 44715906
REMARK  13 active torsions:
REMARK  status: ('A' for Active; 'I' for Inactive)
REMARK    1  A    between atoms: O_1  and  C_37
REMARK    2  A    between atoms: O_1  and  C_43
REMARK    3  A    between atoms: O_2  and  C_38
REMARK    4  A    between atoms: O_2  and  C_44
REMARK    5  A    between atoms: N_4  and  C_14
REMARK    6  A    between atoms: N_4  and  C_17
REMARK    7  A    between atoms: N_4  and  C_18
REMARK    8  A    between atoms: N_5  and  C_20
REMARK    9  A    between atoms: C_8  and  C_15
REMARK   10  A    between atoms: C_9  and  C_14
REMARK   11  A    between atoms: C_17  and  C_21
REMARK   12  A    between atoms: C_18  and  C_22
REMARK   13  A    between atoms: C_19  and  C_23
REMARK                            x       y       z     vdW  Elec       q    Type
REMARK                         _______ _______ _______ _____ _____    ______ ____
ROOT
ATOM      3  N   UNL     1      -6.364  -9.988  17.780  0.00  0.00    -0.298 NA
ATOM      7  C   UNL     1      -5.143 -12.065  16.791  0.00  0.00    +0.002 C 
ATOM      8  C   UNL     1      -4.477 -10.753  16.290  0.00  0.00    +0.055 C 
ATOM      9  C   UNL     1      -7.353 -10.923  17.184  0.00  0.00    +0.071 C 
ATOM     10  C   UNL     1      -6.639 -12.054  16.413  0.00  0.00    +0.024 C 
ATOM     11  C   UNL     1      -5.064 -12.043  18.332  0.00  0.00    +0.019 C 
ATOM     12  C   UNL     1      -5.376  -9.571  16.754  0.00  0.00    +0.094 C 
ATOM     13  C   UNL     1      -5.640 -10.715  18.851  0.00  0.00    +0.085 C 
ENDROOT
BRANCH   8  15
ATOM      5  N   UNL     1      -2.816 -10.669  14.374  0.00  0.00    -0.270 N 
ATOM      6  N   UNL     1      -2.701 -10.568  13.038  0.00  0.00    -0.171 NA
ATOM     15  C   UNL     1      -4.105 -10.651  14.818  0.00  0.00    +0.044 A 
ATOM     16  C   UNL     1      -4.888 -10.531  13.696  0.00  0.00    +0.053 A 
ATOM     19  C   UNL     1      -3.970 -10.484  12.630  0.00  0.00    +0.093 A 
ATOM     20  C   UNL     1      -1.621 -10.781  15.178  0.00  0.00    +0.172 C 
BRANCH  19  23
ATOM     23  C   UNL     1      -4.281 -10.357  11.230  0.00  0.00    +0.003 A 
ATOM     28  C   UNL     1      -4.149 -11.458  10.384  0.00  0.00    +0.018 A 
ATOM     29  C   UNL     1      -4.713  -9.136  10.722  0.00  0.00    +0.011 A 
ATOM     30  C   UNL     1      -4.448 -11.352   9.016  0.00  0.00    -0.017 A 
ATOM     31  C   UNL     1      -5.015  -9.012   9.365  0.00  0.00    +0.009 A 
ATOM     36  C   UNL     1      -4.888 -10.109   8.499  0.00  0.00    -0.018 A 
ATOM     39  C   UNL     1      -4.321 -12.450   8.150  0.00  0.00    +0.008 A 
ATOM     40  C   UNL     1      -5.187 -10.003   7.131  0.00  0.00    +0.008 A 
ATOM     41  C   UNL     1      -4.622 -12.326   6.794  0.00  0.00    +0.001 A 
ATOM     42  C   UNL     1      -5.055 -11.105   6.285  0.00  0.00    +0.001 A 
ENDBRANCH  19  23
ENDBRANCH   8  15
BRANCH   9  14
ATOM     14  C   UNL     1      -8.385 -10.203  16.313  0.00  0.00    +0.104 C 
BRANCH  14   4
ATOM      4  N   UNL     1      -9.555  -9.836  17.093  0.00  0.00    -0.293 NA
BRANCH   4  17
ATOM     17  C   UNL     1      -9.602 -10.595  18.346  0.00  0.00    +0.120 C 
BRANCH  17  21
ATOM     21  C   UNL     1     -10.989 -10.625  18.932  0.00  0.00    -0.033 A 
ATOM     24  C   UNL     1     -11.989 -11.380  18.320  0.00  0.00    +0.008 A 
ATOM     26  C   UNL     1     -11.272  -9.898  20.088  0.00  0.00    +0.008 A 
ATOM     32  C   UNL     1     -13.274 -11.407  18.863  0.00  0.00    +0.046 A 
ATOM     34  C   UNL     1     -12.557  -9.925  20.631  0.00  0.00    +0.046 A 
ATOM     37  C   UNL     1     -13.558 -10.679  20.019  0.00  0.00    +0.120 A 
BRANCH  37   1
ATOM      1  O   UNL     1     -14.811 -10.707  20.548  0.00  0.00    -0.495 OA
ATOM     43  C   UNL     1     -15.403  -9.451  20.880  0.00  0.00    +0.277 C 
ENDBRANCH  37   1
ENDBRANCH  17  21
ENDBRANCH   4  17
BRANCH   4  18
ATOM     18  C   UNL     1      -9.563  -8.398  17.374  0.00  0.00    +0.120 C 
BRANCH  18  22
ATOM     22  C   UNL     1     -10.653  -7.685  16.619  0.00  0.00    -0.033 A 
ATOM     25  C   UNL     1     -10.345  -6.577  15.830  0.00  0.00    +0.008 A 
ATOM     27  C   UNL     1     -11.970  -8.134  16.708  0.00  0.00    +0.008 A 
ATOM     33  C   UNL     1     -11.355  -5.917  15.131  0.00  0.00    +0.046 A 
ATOM     35  C   UNL     1     -12.981  -7.474  16.009  0.00  0.00    +0.046 A 
ATOM     38  C   UNL     1     -12.674  -6.366  15.221  0.00  0.00    +0.120 A 
BRANCH  38   2
ATOM      2  O   UNL     1     -13.659  -5.722  14.538  0.00  0.00    -0.495 OA
ATOM     44  C   UNL     1     -13.253  -4.779  13.547  0.00  0.00    +0.277 C 
ENDBRANCH  38   2
ENDBRANCH  18  22
ENDBRANCH   4  18
ENDBRANCH  14   4
ENDBRANCH   9  14
TORSDOF 10
ENDMDL
MODEL 4
REMARK VINA RESULT:      -6.9     23.531     27.942
REMARK  Name = 44715906
REMARK  13 active torsions:
REMARK  status: ('A' for Active; 'I' for Inactive)
REMARK    1  A    between atoms: O_1  and  C_37
REMARK    2  A    between atoms: O_1  and  C_43
REMARK    3  A    between atoms: O_2  and  C_38
REMARK    4  A    between atoms: O_2  and  C_44
REMARK    5  A    between atoms: N_4  and  C_14
REMARK    6  A    between atoms: N_4  and  C_17
REMARK    7  A    between atoms: N_4  and  C_18
REMARK    8  A    between atoms: N_5  and  C_20
REMARK    9  A    between atoms: C_8  and  C_15
REMARK   10  A    between atoms: C_9  and  C_14
REMARK   11  A    between atoms: C_17  and  C_21
REMARK   12  A    between atoms: C_18  and  C_22
REMARK   13  A    between atoms: C_19  and  C_23
REMARK                            x       y       z     vdW  Elec       q    Type
REMARK                         _______ _______ _______ _____ _____    ______ ____
ROOT
ATOM      3  N   UNL     1      13.661   5.807   1.440  0.00  0.00    -0.298 NA
ATOM      7  C   UNL     1      12.569   3.499   0.931  0.00  0.00    +0.002 C 
ATOM      8  C   UNL     1      12.685   4.344  -0.368  0.00  0.00    +0.055 C 
ATOM      9  C   UNL     1      12.552   5.549   2.395  0.00  0.00    +0.071 C 
ATOM     10  C   UNL     1      11.761   4.288   1.983  0.00  0.00    +0.024 C 
ATOM     11  C   UNL     1      14.001   3.337   1.485  0.00  0.00    +0.019 C 
ATOM     12  C   UNL     1      13.153   5.769   0.047  0.00  0.00    +0.094 C 
ATOM     13  C   UNL     1      14.660   4.723   1.599  0.00  0.00    +0.085 C 
ENDROOT
BRANCH   8  15
ATOM      5  N   UNL     1      11.172   3.353  -2.148  0.00  0.00    -0.270 N 
ATOM      6  N   UNL     1      10.081   3.584  -2.899  0.00  0.00    -0.171 NA
ATOM     15  C   UNL     1      11.491   4.382  -1.311  0.00  0.00    +0.044 A 
ATOM     16  C   UNL     1      10.543   5.351  -1.529  0.00  0.00    +0.053 A 
ATOM     19  C   UNL     1       9.701   4.805  -2.516  0.00  0.00    +0.093 A 
ATOM     20  C   UNL     1      11.875   2.099  -2.291  0.00  0.00    +0.172 C 
BRANCH  19  23
ATOM     23  C   UNL     1       8.544   5.429  -3.103  0.00  0.00    +0.003 A 
ATOM     28  C   UNL     1       7.914   6.486  -2.446  0.00  0.00    +0.018 A 
ATOM     29  C   UNL     1       8.054   4.976  -4.324  0.00  0.00    +0.011 A 
ATOM     30  C   UNL     1       6.784   7.106  -3.004  0.00  0.00    -0.017 A 
ATOM     31  C   UNL     1       6.931   5.579  -4.893  0.00  0.00    +0.009 A 
ATOM     36  C   UNL     1       6.285   6.645  -4.246  0.00  0.00    -0.018 A 
ATOM     39  C   UNL     1       6.138   8.171  -2.357  0.00  0.00    +0.008 A 
ATOM     40  C   UNL     1       5.155   7.264  -4.804  0.00  0.00    +0.008 A 
ATOM     41  C   UNL     1       5.015   8.775  -2.926  0.00  0.00    +0.001 A 
ATOM     42  C   UNL     1       4.525   8.322  -4.148  0.00  0.00    +0.001 A 
ENDBRANCH  19  23
ENDBRANCH   8  15
BRANCH   9  14
ATOM     14  C   UNL     1      11.637   6.763   2.570  0.00  0.00    +0.104 C 
BRANCH  14   4
ATOM      4  N   UNL     1      11.528   7.129   3.972  0.00  0.00    -0.293 NA
BRANCH   4  17
ATOM     17  C   UNL     1      12.027   8.489   4.194  0.00  0.00    +0.120 C 
BRANCH  17  21
ATOM     21  C   UNL     1      13.439   8.488   4.719  0.00  0.00    -0.033 A 
ATOM     24  C   UNL     1      14.433   9.204   4.051  0.00  0.00    +0.008 A 
ATOM     26  C   UNL     1      13.752   7.772   5.875  0.00  0.00    +0.008 A 
ATOM     32  C   UNL     1      15.740   9.203   4.538  0.00  0.00    +0.046 A 
ATOM     34  C   UNL     1      15.059   7.771   6.362  0.00  0.00    +0.046 A 
ATOM     37  C   UNL     1      16.053   8.486   5.694  0.00  0.00    +0.120 A 
BRANCH  37   1
ATOM      1  O   UNL     1      17.328   8.486   6.169  0.00  0.00    -0.495 OA
ATOM     43  C   UNL     1      18.359   8.876   5.262  0.00  0.00    +0.277 C 
ENDBRANCH  37   1
ENDBRANCH  17  21
ENDBRANCH   4  17
BRANCH   4  18
ATOM     18  C   UNL     1      10.140   7.021   4.431  0.00  0.00    +0.120 C 
BRANCH  18  22
ATOM     22  C   UNL     1      10.030   6.219   5.700  0.00  0.00    -0.033 A 
ATOM     25  C   UNL     1      10.055   6.863   6.936  0.00  0.00    +0.008 A 
ATOM     27  C   UNL     1       9.901   4.831   5.638  0.00  0.00    +0.008 A 
ATOM     33  C   UNL     1       9.953   6.119   8.112  0.00  0.00    +0.046 A 
ATOM     35  C   UNL     1       9.799   4.087   6.814  0.00  0.00    +0.046 A 
ATOM     38  C   UNL     1       9.825   4.731   8.051  0.00  0.00    +0.120 A 
BRANCH  38   2
ATOM      2  O   UNL     1       9.724   4.006   9.198  0.00  0.00    -0.495 OA
ATOM     44  C   UNL     1       9.040   4.614  10.292  0.00  0.00    +0.277 C 
ENDBRANCH  38   2
ENDBRANCH  18  22
ENDBRANCH   4  18
ENDBRANCH  14   4
ENDBRANCH   9  14
TORSDOF 10
ENDMDL
MODEL 5
REMARK VINA RESULT:      -6.8     24.351     28.606
REMARK  Name = 44715906
REMARK  13 active torsions:
REMARK  status: ('A' for Active; 'I' for Inactive)
REMARK    1  A    between atoms: O_1  and  C_37
REMARK    2  A    between atoms: O_1  and  C_43
REMARK    3  A    between atoms: O_2  and  C_38
REMARK    4  A    between atoms: O_2  and  C_44
REMARK    5  A    between atoms: N_4  and  C_14
REMARK    6  A    between atoms: N_4  and  C_17
REMARK    7  A    between atoms: N_4  and  C_18
REMARK    8  A    between atoms: N_5  and  C_20
REMARK    9  A    between atoms: C_8  and  C_15
REMARK   10  A    between atoms: C_9  and  C_14
REMARK   11  A    between atoms: C_17  and  C_21
REMARK   12  A    between atoms: C_18  and  C_22
REMARK   13  A    between atoms: C_19  and  C_23
REMARK                            x       y       z     vdW  Elec       q    Type
REMARK                         _______ _______ _______ _____ _____    ______ ____
ROOT
ATOM      3  N   UNL     1      11.772  11.114   5.055  0.00  0.00    -0.298 NA
ATOM      7  C   UNL     1      13.327   9.198   5.885  0.00  0.00    +0.002 C 
ATOM      8  C   UNL     1      13.929   9.879   4.624  0.00  0.00    +0.055 C 
ATOM      9  C   UNL     1      10.981   9.873   5.265  0.00  0.00    +0.071 C 
ATOM     10  C   UNL     1      11.912   8.676   5.556  0.00  0.00    +0.024 C 
ATOM     11  C   UNL     1      13.168  10.300   6.953  0.00  0.00    +0.019 C 
ATOM     12  C   UNL     1      12.858  10.865   4.075  0.00  0.00    +0.094 C 
ATOM     13  C   UNL     1      12.392  11.483   6.350  0.00  0.00    +0.085 C 
ENDROOT
BRANCH   8  15
ATOM      5  N   UNL     1      15.825   8.640   3.481  0.00  0.00    -0.270 N 
ATOM      6  N   UNL     1      16.136   7.849   2.439  0.00  0.00    -0.171 NA
ATOM     15  C   UNL     1      14.509   8.991   3.533  0.00  0.00    +0.044 A 
ATOM     16  C   UNL     1      13.916   8.388   2.451  0.00  0.00    +0.053 A 
ATOM     19  C   UNL     1      14.965   7.699   1.813  0.00  0.00    +0.093 A 
ATOM     20  C   UNL     1      16.866   9.029   4.405  0.00  0.00    +0.172 C 
BRANCH  19  23
ATOM     23  C   UNL     1      14.872   6.903   0.618  0.00  0.00    +0.003 A 
ATOM     28  C   UNL     1      13.720   6.957  -0.168  0.00  0.00    +0.018 A 
ATOM     29  C   UNL     1      15.930   6.079   0.246  0.00  0.00    +0.011 A 
ATOM     30  C   UNL     1      13.612   6.187  -1.337  0.00  0.00    -0.017 A 
ATOM     31  C   UNL     1      15.840   5.306  -0.912  0.00  0.00    +0.009 A 
ATOM     36  C   UNL     1      14.689   5.349  -1.714  0.00  0.00    -0.018 A 
ATOM     39  C   UNL     1      12.461   6.229  -2.139  0.00  0.00    +0.008 A 
ATOM     40  C   UNL     1      14.581   4.578  -2.884  0.00  0.00    +0.008 A 
ATOM     41  C   UNL     1      12.371   5.456  -3.298  0.00  0.00    +0.001 A 
ATOM     42  C   UNL     1      13.430   4.633  -3.669  0.00  0.00    +0.001 A 
ENDBRANCH  19  23
ENDBRANCH   8  15
BRANCH   9  14
ATOM     14  C   UNL     1      10.028   9.584   4.103  0.00  0.00    +0.104 C 
BRANCH  14   4
ATOM      4  N   UNL     1       9.696   8.170   4.047  0.00  0.00    -0.293 NA
BRANCH   4  17
ATOM     17  C   UNL     1       8.553   7.871   4.914  0.00  0.00    +0.120 C 
BRANCH  17  21
ATOM     21  C   UNL     1       8.916   6.895   6.002  0.00  0.00    -0.033 A 
ATOM     24  C   UNL     1       9.376   5.620   5.671  0.00  0.00    +0.008 A 
ATOM     26  C   UNL     1       8.793   7.267   7.341  0.00  0.00    +0.008 A 
ATOM     32  C   UNL     1       9.712   4.716   6.680  0.00  0.00    +0.046 A 
ATOM     34  C   UNL     1       9.129   6.363   8.349  0.00  0.00    +0.046 A 
ATOM     37  C   UNL     1       9.589   5.088   8.019  0.00  0.00    +0.120 A 
BRANCH  37   1
ATOM      1  O   UNL     1       9.917   4.207   9.002  0.00  0.00    -0.495 OA
ATOM     43  C   UNL     1       9.494   4.525  10.328  0.00  0.00    +0.277 C 
ENDBRANCH  37   1
ENDBRANCH  17  21
ENDBRANCH   4  17
BRANCH   4  18
ATOM     18  C   UNL     1       9.406   7.759   2.670  0.00  0.00    +0.120 C 
BRANCH  18  22
ATOM     22  C   UNL     1      10.246   6.583   2.248  0.00  0.00    -0.033 A 
ATOM     25  C   UNL     1       9.934   5.887   1.081  0.00  0.00    +0.008 A 
ATOM     27  C   UNL     1      11.337   6.192   3.024  0.00  0.00    +0.008 A 
ATOM     33  C   UNL     1      10.713   4.797   0.690  0.00  0.00    +0.046 A 
ATOM     35  C   UNL     1      12.116   5.103   2.633  0.00  0.00    +0.046 A 
ATOM     38  C   UNL     1      11.804   4.405   1.467  0.00  0.00    +0.120 A 
BRANCH  38   2
ATOM      2  O   UNL     1      12.564   3.343   1.084  0.00  0.00    -0.495 OA
ATOM     44  C   UNL     1      13.905   3.296   1.568  0.00  0.00    +0.277 C 
ENDBRANCH  38   2
ENDBRANCH  18  22
ENDBRANCH   4  18
ENDBRANCH  14   4
ENDBRANCH   9  14
TORSDOF 10
ENDMDL
MODEL 6
REMARK VINA RESULT:      -6.8     23.359     27.324
REMARK  Name = 44715906
REMARK  13 active torsions:
REMARK  status: ('A' for Active; 'I' for Inactive)
REMARK    1  A    between atoms: O_1  and  C_37
REMARK    2  A    between atoms: O_1  and  C_43
REMARK    3  A    between atoms: O_2  and  C_38
REMARK    4  A    between atoms: O_2  and  C_44
REMARK    5  A    between atoms: N_4  and  C_14
REMARK    6  A    between atoms: N_4  and  C_17
REMARK    7  A    between atoms: N_4  and  C_18
REMARK    8  A    between atoms: N_5  and  C_20
REMARK    9  A    between atoms: C_8  and  C_15
REMARK   10  A    between atoms: C_9  and  C_14
REMARK   11  A    between atoms: C_17  and  C_21
REMARK   12  A    between atoms: C_18  and  C_22
REMARK   13  A    between atoms: C_19  and  C_23
REMARK                            x       y       z     vdW  Elec       q    Type
REMARK                         _______ _______ _______ _____ _____    ______ ____
ROOT
ATOM      3  N   UNL     1      13.746   5.761   1.166  0.00  0.00    -0.298 NA
ATOM      7  C   UNL     1      12.281   3.614   1.012  0.00  0.00    +0.002 C 
ATOM      8  C   UNL     1      12.519   4.212  -0.402  0.00  0.00    +0.055 C 
ATOM      9  C   UNL     1      12.620   5.844   2.133  0.00  0.00    +0.071 C 
ATOM     10  C   UNL     1      11.627   4.683   1.914  0.00  0.00    +0.024 C 
ATOM     11  C   UNL     1      13.672   3.308   1.606  0.00  0.00    +0.019 C 
ATOM     12  C   UNL     1      13.221   5.587  -0.211  0.00  0.00    +0.094 C 
ATOM     13  C   UNL     1      14.553   4.566   1.509  0.00  0.00    +0.085 C 
ENDROOT
BRANCH   8  15
ATOM      5  N   UNL     1      11.027   3.309  -2.245  0.00  0.00    -0.270 N 
ATOM      6  N   UNL     1       9.945   3.576  -2.997  0.00  0.00    -0.171 NA
ATOM     15  C   UNL     1      11.337   4.296  -1.357  0.00  0.00    +0.044 A 
ATOM     16  C   UNL     1      10.393   5.276  -1.539  0.00  0.00    +0.053 A 
ATOM     19  C   UNL     1       9.562   4.779  -2.562  0.00  0.00    +0.093 A 
ATOM     20  C   UNL     1      11.730   2.062  -2.438  0.00  0.00    +0.172 C 
BRANCH  19  23
ATOM     23  C   UNL     1       8.413   5.432  -3.132  0.00  0.00    +0.003 A 
ATOM     28  C   UNL     1       7.793   6.476  -2.446  0.00  0.00    +0.018 A 
ATOM     29  C   UNL     1       7.920   5.020  -4.367  0.00  0.00    +0.011 A 
ATOM     30  C   UNL     1       6.670   7.124  -2.988  0.00  0.00    -0.017 A 
ATOM     31  C   UNL     1       6.806   5.652  -4.920  0.00  0.00    +0.009 A 
ATOM     36  C   UNL     1       6.170   6.705  -4.244  0.00  0.00    -0.018 A 
ATOM     39  C   UNL     1       6.034   8.177  -2.311  0.00  0.00    +0.008 A 
ATOM     40  C   UNL     1       5.047   7.352  -4.785  0.00  0.00    +0.008 A 
ATOM     41  C   UNL     1       4.920   8.809  -2.865  0.00  0.00    +0.001 A 
ATOM     42  C   UNL     1       4.427   8.397  -4.099  0.00  0.00    +0.001 A 
ENDBRANCH  19  23
ENDBRANCH   8  15
BRANCH   9  14
ATOM     14  C   UNL     1      11.921   7.205   2.100  0.00  0.00    +0.104 C 
BRANCH  14   4
ATOM      4  N   UNL     1      11.270   7.483   3.370  0.00  0.00    -0.293 NA
BRANCH   4  17
ATOM     17  C   UNL     1      12.117   7.061   4.490  0.00  0.00    +0.120 C 
BRANCH  17  21
ATOM     21  C   UNL     1      11.306   6.473   5.614  0.00  0.00    -0.033 A 
ATOM     24  C   UNL     1      10.128   5.778   5.337  0.00  0.00    +0.008 A 
ATOM     26  C   UNL     1      11.733   6.622   6.933  0.00  0.00    +0.008 A 
ATOM     32  C   UNL     1       9.377   5.234   6.379  0.00  0.00    +0.046 A 
ATOM     34  C   UNL     1      10.982   6.078   7.976  0.00  0.00    +0.046 A 
ATOM     37  C   UNL     1       9.805   5.383   7.699  0.00  0.00    +0.120 A 
BRANCH  37   1
ATOM      1  O   UNL     1       9.073   4.851   8.714  0.00  0.00    -0.495 OA
ATOM     43  C   UNL     1       9.751   4.609   9.946  0.00  0.00    +0.277 C 
ENDBRANCH  37   1
ENDBRANCH  17  21
ENDBRANCH   4  17
BRANCH   4  18
ATOM     18  C   UNL     1      10.949   8.908   3.489  0.00  0.00    +0.120 C 
BRANCH  18  22
ATOM     22  C   UNL     1       9.463   9.150   3.484  0.00  0.00    -0.033 A 
ATOM     25  C   UNL     1       8.782   9.324   4.688  0.00  0.00    +0.008 A 
ATOM     27  C   UNL     1       8.770   9.202   2.275  0.00  0.00    +0.008 A 
ATOM     33  C   UNL     1       7.405   9.548   4.683  0.00  0.00    +0.046 A 
ATOM     35  C   UNL     1       7.394   9.426   2.270  0.00  0.00    +0.046 A 
ATOM     38  C   UNL     1       6.710   9.600   3.473  0.00  0.00    +0.120 A 
BRANCH  38   2
ATOM      2  O   UNL     1       5.368   9.820   3.469  0.00  0.00    -0.495 OA
ATOM     44  C   UNL     1       4.932  11.176   3.400  0.00  0.00    +0.277 C 
ENDBRANCH  38   2
ENDBRANCH  18  22
ENDBRANCH   4  18
ENDBRANCH  14   4
ENDBRANCH   9  14
TORSDOF 10
ENDMDL
MODEL 7
REMARK VINA RESULT:      -6.7     21.936     26.617
REMARK  Name = 44715906
REMARK  13 active torsions:
REMARK  status: ('A' for Active; 'I' for Inactive)
REMARK    1  A    between atoms: O_1  and  C_37
REMARK    2  A    between atoms: O_1  and  C_43
REMARK    3  A    between atoms: O_2  and  C_38
REMARK    4  A    between atoms: O_2  and  C_44
REMARK    5  A    between atoms: N_4  and  C_14
REMARK    6  A    between atoms: N_4  and  C_17
REMARK    7  A    between atoms: N_4  and  C_18
REMARK    8  A    between atoms: N_5  and  C_20
REMARK    9  A    between atoms: C_8  and  C_15
REMARK   10  A    between atoms: C_9  and  C_14
REMARK   11  A    between atoms: C_17  and  C_21
REMARK   12  A    between atoms: C_18  and  C_22
REMARK   13  A    between atoms: C_19  and  C_23
REMARK                            x       y       z     vdW  Elec       q    Type
REMARK                         _______ _______ _______ _____ _____    ______ ____
ROOT
ATOM      3  N   UNL     1      -5.543 -10.403  38.966  0.00  0.00    -0.298 NA
ATOM      7  C   UNL     1      -6.933 -12.328  40.036  0.00  0.00    +0.002 C 
ATOM      8  C   UNL     1      -6.838 -12.517  38.497  0.00  0.00    +0.055 C 
ATOM      9  C   UNL     1      -6.585  -9.839  39.863  0.00  0.00    +0.071 C 
ATOM     10  C   UNL     1      -7.549 -10.946  40.343  0.00  0.00    +0.024 C 
ATOM     11  C   UNL     1      -5.486 -12.310  40.572  0.00  0.00    +0.019 C 
ATOM     12  C   UNL     1      -6.175 -11.236  37.913  0.00  0.00    +0.094 C 
ATOM     13  C   UNL     1      -4.665 -11.276  39.782  0.00  0.00    +0.085 C 
ENDROOT
BRANCH   8  15
ATOM      5  N   UNL     1      -8.527 -14.199  37.628  0.00  0.00    -0.270 N 
ATOM      6  N   UNL     1      -9.662 -14.334  36.920  0.00  0.00    -0.171 NA
ATOM     15  C   UNL     1      -8.099 -12.910  37.740  0.00  0.00    +0.044 A 
ATOM     16  C   UNL     1      -9.017 -12.148  37.060  0.00  0.00    +0.053 A 
ATOM     19  C   UNL     1      -9.956 -13.078  36.576  0.00  0.00    +0.093 A 
ATOM     20  C   UNL     1      -7.894 -15.376  38.176  0.00  0.00    +0.172 C 
BRANCH  19  23
ATOM     23  C   UNL     1     -11.127 -12.789  35.790  0.00  0.00    +0.003 A 
ATOM     28  C   UNL     1     -11.463 -13.610  34.712  0.00  0.00    +0.018 A 
ATOM     29  C   UNL     1     -11.923 -11.692  36.104  0.00  0.00    +0.011 A 
ATOM     30  C   UNL     1     -12.601 -13.343  33.935  0.00  0.00    -0.017 A 
ATOM     31  C   UNL     1     -13.058 -11.411  35.342  0.00  0.00    +0.009 A 
ATOM     36  C   UNL     1     -13.411 -12.226  34.255  0.00  0.00    -0.018 A 
ATOM     39  C   UNL     1     -12.954 -14.158  32.848  0.00  0.00    +0.008 A 
ATOM     40  C   UNL     1     -14.550 -11.959  33.478  0.00  0.00    +0.008 A 
ATOM     41  C   UNL     1     -14.089 -13.877  32.086  0.00  0.00    +0.001 A 
ATOM     42  C   UNL     1     -14.885 -12.780  32.400  0.00  0.00    +0.001 A 
ENDBRANCH  19  23
ENDBRANCH   8  15
BRANCH   9  14
ATOM     14  C   UNL     1      -7.336  -8.670  39.222  0.00  0.00    +0.104 C 
BRANCH  14   4
ATOM      4  N   UNL     1      -7.345  -7.515  40.105  0.00  0.00    -0.293 NA
BRANCH   4  17
ATOM     17  C   UNL     1      -8.699  -7.252  40.602  0.00  0.00    +0.120 C 
BRANCH  17  21
ATOM     21  C   UNL     1      -9.180  -5.879  40.213  0.00  0.00    -0.033 A 
ATOM     24  C   UNL     1      -8.272  -4.825  40.107  0.00  0.00    +0.008 A 
ATOM     26  C   UNL     1     -10.534  -5.662  39.959  0.00  0.00    +0.008 A 
ATOM     32  C   UNL     1      -8.719  -3.553  39.748  0.00  0.00    +0.046 A 
ATOM     34  C   UNL     1     -10.981  -4.390  39.599  0.00  0.00    +0.046 A 
ATOM     37  C   UNL     1     -10.074  -3.335  39.493  0.00  0.00    +0.120 A 
BRANCH  37   1
ATOM      1  O   UNL     1     -10.509  -2.095  39.142  0.00  0.00    -0.495 OA
ATOM     43  C   UNL     1      -9.569  -1.237  38.496  0.00  0.00    +0.277 C 
ENDBRANCH  37   1
ENDBRANCH  17  21
ENDBRANCH   4  17
BRANCH   4  18
ATOM     18  C   UNL     1      -6.425  -7.713  41.229  0.00  0.00    +0.120 C 
BRANCH  18  22
ATOM     22  C   UNL     1      -5.224  -6.810  41.136  0.00  0.00    -0.033 A 
ATOM     25  C   UNL     1      -4.934  -5.926  42.174  0.00  0.00    +0.008 A 
ATOM     27  C   UNL     1      -4.400  -6.861  40.011  0.00  0.00    +0.008 A 
ATOM     33  C   UNL     1      -3.821  -5.090  42.087  0.00  0.00    +0.046 A 
ATOM     35  C   UNL     1      -3.287  -6.025  39.924  0.00  0.00    +0.046 A 
ATOM     38  C   UNL     1      -2.997  -5.139  40.962  0.00  0.00    +0.120 A 
BRANCH  38   2
ATOM      2  O   UNL     1      -1.911  -4.324  40.878  0.00  0.00    -0.495 OA
ATOM     44  C   UNL     1      -1.633  -3.495  42.005  0.00  0.00    +0.277 C 
ENDBRANCH  38   2
ENDBRANCH  18  22
ENDBRANCH   4  18
ENDBRANCH  14   4
ENDBRANCH   9  14
TORSDOF 10
ENDMDL
MODEL 8
REMARK VINA RESULT:      -6.5     12.786     17.293
REMARK  Name = 44715906
REMARK  13 active torsions:
REMARK  status: ('A' for Active; 'I' for Inactive)
REMARK    1  A    between atoms: O_1  and  C_37
REMARK    2  A    between atoms: O_1  and  C_43
REMARK    3  A    between atoms: O_2  and  C_38
REMARK    4  A    between atoms: O_2  and  C_44
REMARK    5  A    between atoms: N_4  and  C_14
REMARK    6  A    between atoms: N_4  and  C_17
REMARK    7  A    between atoms: N_4  and  C_18
REMARK    8  A    between atoms: N_5  and  C_20
REMARK    9  A    between atoms: C_8  and  C_15
REMARK   10  A    between atoms: C_9  and  C_14
REMARK   11  A    between atoms: C_17  and  C_21
REMARK   12  A    between atoms: C_18  and  C_22
REMARK   13  A    between atoms: C_19  and  C_23
REMARK                            x       y       z     vdW  Elec       q    Type
REMARK                         _______ _______ _______ _____ _____    ______ ____
ROOT
ATOM      3  N   UNL     1      -3.687 -14.428  -6.840  0.00  0.00    -0.298 NA
ATOM      7  C   UNL     1      -2.951 -12.151  -5.813  0.00  0.00    +0.002 C 
ATOM      8  C   UNL     1      -1.709 -13.025  -6.144  0.00  0.00    +0.055 C 
ATOM      9  C   UNL     1      -4.447 -14.165  -5.590  0.00  0.00    +0.071 C 
ATOM     10  C   UNL     1      -3.882 -12.928  -4.859  0.00  0.00    +0.024 C 
ATOM     11  C   UNL     1      -3.720 -11.952  -7.136  0.00  0.00    +0.019 C 
ATOM     12  C   UNL     1      -2.231 -14.432  -6.558  0.00  0.00    +0.094 C 
ATOM     13  C   UNL     1      -3.973 -13.323  -7.787  0.00  0.00    +0.085 C 
ENDROOT
BRANCH   8  15
ATOM      5  N   UNL     1       0.631 -12.528  -5.299  0.00  0.00    -0.270 N 
ATOM      6  N   UNL     1       1.479 -12.714  -4.272  0.00  0.00    -0.171 NA
ATOM     15  C   UNL     1      -0.591 -13.105  -5.115  0.00  0.00    +0.044 A 
ATOM     16  C   UNL     1      -0.540 -13.710  -3.884  0.00  0.00    +0.053 A 
ATOM     19  C   UNL     1       0.758 -13.437  -3.411  0.00  0.00    +0.093 A 
ATOM     20  C   UNL     1       1.071 -11.772  -6.448  0.00  0.00    +0.172 C 
BRANCH  19  23
ATOM     23  C   UNL     1       1.323 -13.855  -2.154  0.00  0.00    +0.003 A 
ATOM     28  C   UNL     1       2.691 -14.111  -2.056  0.00  0.00    +0.018 A 
ATOM     29  C   UNL     1       0.504 -14.004  -1.039  0.00  0.00    +0.011 A 
ATOM     30  C   UNL     1       3.258 -14.520  -0.838  0.00  0.00    -0.017 A 
ATOM     31  C   UNL     1       1.051 -14.409   0.179  0.00  0.00    +0.009 A 
ATOM     36  C   UNL     1       2.425 -14.671   0.297  0.00  0.00    -0.018 A 
ATOM     39  C   UNL     1       4.633 -14.781  -0.721  0.00  0.00    +0.008 A 
ATOM     40  C   UNL     1       2.993 -15.080   1.515  0.00  0.00    +0.008 A 
ATOM     41  C   UNL     1       5.179 -15.187   0.498  0.00  0.00    +0.001 A 
ATOM     42  C   UNL     1       4.360 -15.336   1.613  0.00  0.00    +0.001 A 
ENDBRANCH  19  23
ENDBRANCH   8  15
BRANCH   9  14
ATOM     14  C   UNL     1      -4.508 -15.390  -4.675  0.00  0.00    +0.104 C 
BRANCH  14   4
ATOM      4  N   UNL     1      -4.749 -14.994  -3.297  0.00  0.00    -0.293 NA
BRANCH   4  17
ATOM     17  C   UNL     1      -6.171 -15.114  -2.964  0.00  0.00    +0.120 C 
BRANCH  17  21
ATOM     21  C   UNL     1      -6.819 -13.767  -2.780  0.00  0.00    -0.033 A 
ATOM     24  C   UNL     1      -7.479 -13.158  -3.847  0.00  0.00    +0.008 A 
ATOM     26  C   UNL     1      -6.760 -13.130  -1.540  0.00  0.00    +0.008 A 
ATOM     32  C   UNL     1      -8.079 -11.910  -3.675  0.00  0.00    +0.046 A 
ATOM     34  C   UNL     1      -7.360 -11.883  -1.369  0.00  0.00    +0.046 A 
ATOM     37  C   UNL     1      -8.020 -11.273  -2.435  0.00  0.00    +0.120 A 
BRANCH  37   1
ATOM      1  O   UNL     1      -8.606 -10.056  -2.268  0.00  0.00    -0.495 OA
ATOM     43  C   UNL     1      -7.739  -8.928  -2.158  0.00  0.00    +0.277 C 
ENDBRANCH  37   1
ENDBRANCH  17  21
ENDBRANCH   4  17
BRANCH   4  18
ATOM     18  C   UNL     1      -3.945 -15.802  -2.376  0.00  0.00    +0.120 C 
BRANCH  18  22
ATOM     22  C   UNL     1      -3.486 -15.004  -1.185  0.00  0.00    -0.033 A 
ATOM     25  C   UNL     1      -3.303 -15.632   0.047  0.00  0.00    +0.008 A 
ATOM     27  C   UNL     1      -3.243 -13.636  -1.314  0.00  0.00    +0.008 A 
ATOM     33  C   UNL     1      -2.878 -14.892   1.150  0.00  0.00    +0.046 A 
ATOM     35  C   UNL     1      -2.818 -12.896  -0.211  0.00  0.00    +0.046 A 
ATOM     38  C   UNL     1      -2.635 -13.523   1.021  0.00  0.00    +0.120 A 
BRANCH  38   2
ATOM      2  O   UNL     1      -2.219 -12.803   2.098  0.00  0.00    -0.495 OA
ATOM     44  C   UNL     1      -3.183 -12.541   3.116  0.00  0.00    +0.277 C 
ENDBRANCH  38   2
ENDBRANCH  18  22
ENDBRANCH   4  18
ENDBRANCH  14   4
ENDBRANCH   9  14
TORSDOF 10
ENDMDL
MODEL 9
REMARK VINA RESULT:      -6.5     27.349     30.299
REMARK  Name = 44715906
REMARK  13 active torsions:
REMARK  status: ('A' for Active; 'I' for Inactive)
REMARK    1  A    between atoms: O_1  and  C_37
REMARK    2  A    between atoms: O_1  and  C_43
REMARK    3  A    between atoms: O_2  and  C_38
REMARK    4  A    between atoms: O_2  and  C_44
REMARK    5  A    between atoms: N_4  and  C_14
REMARK    6  A    between atoms: N_4  and  C_17
REMARK    7  A    between atoms: N_4  and  C_18
REMARK    8  A    between atoms: N_5  and  C_20
REMARK    9  A    between atoms: C_8  and  C_15
REMARK   10  A    between atoms: C_9  and  C_14
REMARK   11  A    between atoms: C_17  and  C_21
REMARK   12  A    between atoms: C_18  and  C_22
REMARK   13  A    between atoms: C_19  and  C_23
REMARK                            x       y       z     vdW  Elec       q    Type
REMARK                         _______ _______ _______ _____ _____    ______ ____
ROOT
ATOM      3  N   UNL     1      18.334  -5.111  22.604  0.00  0.00    -0.298 NA
ATOM      7  C   UNL     1      19.424  -6.642  24.406  0.00  0.00    +0.002 C 
ATOM      8  C   UNL     1      17.897  -6.913  24.315  0.00  0.00    +0.055 C 
ATOM      9  C   UNL     1      19.174  -4.297  23.522  0.00  0.00    +0.071 C 
ATOM     10  C   UNL     1      19.660  -5.148  24.715  0.00  0.00    +0.024 C 
ATOM     11  C   UNL     1      20.009  -6.915  23.004  0.00  0.00    +0.019 C 
ATOM     12  C   UNL     1      17.291  -5.831  23.375  0.00  0.00    +0.094 C 
ATOM     13  C   UNL     1      19.211  -6.117  21.958  0.00  0.00    +0.085 C 
ENDROOT
BRANCH   8  15
ATOM      5  N   UNL     1      16.586  -8.239  26.036  0.00  0.00    -0.270 N 
ATOM      6  N   UNL     1      15.929  -8.153  27.206  0.00  0.00    -0.171 NA
ATOM     15  C   UNL     1      17.112  -7.055  25.611  0.00  0.00    +0.044 A 
ATOM     16  C   UNL     1      16.777  -6.130  26.569  0.00  0.00    +0.053 A 
ATOM     19  C   UNL     1      16.049  -6.862  27.526  0.00  0.00    +0.093 A 
ATOM     20  C   UNL     1      16.669  -9.517  25.366  0.00  0.00    +0.172 C 
BRANCH  19  23
ATOM     23  C   UNL     1      15.464  -6.352  28.739  0.00  0.00    +0.003 A 
ATOM     28  C   UNL     1      14.206  -6.794  29.146  0.00  0.00    +0.018 A 
ATOM     29  C   UNL     1      16.155  -5.417  29.504  0.00  0.00    +0.011 A 
ATOM     30  C   UNL     1      13.621  -6.307  30.326  0.00  0.00    -0.017 A 
ATOM     31  C   UNL     1      15.589  -4.921  30.679  0.00  0.00    +0.009 A 
ATOM     36  C   UNL     1      14.324  -5.356  31.104  0.00  0.00    -0.018 A 
ATOM     39  C   UNL     1      12.355  -6.742  30.750  0.00  0.00    +0.008 A 
ATOM     40  C   UNL     1      13.738  -4.868  32.284  0.00  0.00    +0.008 A 
ATOM     41  C   UNL     1      11.789  -6.246  31.926  0.00  0.00    +0.001 A 
ATOM     42  C   UNL     1      12.480  -5.311  32.691  0.00  0.00    +0.001 A 
ENDBRANCH  19  23
ENDBRANCH   8  15
BRANCH   9  14
ATOM     14  C   UNL     1      18.467  -3.021  23.983  0.00  0.00    +0.104 C 
BRANCH  14   4
ATOM      4  N   UNL     1      18.890  -2.652  25.324  0.00  0.00    -0.293 NA
BRANCH   4  17
ATOM     17  C   UNL     1      19.448  -1.297  25.337  0.00  0.00    +0.120 C 
BRANCH  17  21
ATOM     21  C   UNL     1      20.945  -1.309  25.502  0.00  0.00    -0.033 A 
ATOM     24  C   UNL     1      21.600  -2.494  25.840  0.00  0.00    +0.008 A 
ATOM     26  C   UNL     1      21.676  -0.136  25.317  0.00  0.00    +0.008 A 
ATOM     32  C   UNL     1      22.987  -2.505  25.993  0.00  0.00    +0.046 A 
ATOM     34  C   UNL     1      23.063  -0.147  25.470  0.00  0.00    +0.046 A 
ATOM     37  C   UNL     1      23.718  -1.330  25.807  0.00  0.00    +0.120 A 
BRANCH  37   1
ATOM      1  O   UNL     1      25.071  -1.342  25.956  0.00  0.00    -0.495 OA
ATOM     43  C   UNL     1      25.724  -2.608  25.860  0.00  0.00    +0.277 C 
ENDBRANCH  37   1
ENDBRANCH  17  21
ENDBRANCH   4  17
BRANCH   4  18
ATOM     18  C   UNL     1      17.772  -2.746  26.267  0.00  0.00    +0.120 C 
BRANCH  18  22
ATOM     22  C   UNL     1      18.247  -2.931  27.684  0.00  0.00    -0.033 A 
ATOM     25  C   UNL     1      19.225  -3.882  27.972  0.00  0.00    +0.008 A 
ATOM     27  C   UNL     1      17.708  -2.151  28.706  0.00  0.00    +0.008 A 
ATOM     33  C   UNL     1      19.665  -4.053  29.285  0.00  0.00    +0.046 A 
ATOM     35  C   UNL     1      18.147  -2.322  30.019  0.00  0.00    +0.046 A 
ATOM     38  C   UNL     1      19.125  -3.273  30.309  0.00  0.00    +0.120 A 
BRANCH  38   2
ATOM      2  O   UNL     1      19.555  -3.440  31.589  0.00  0.00    -0.495 OA
ATOM     44  C   UNL     1      18.836  -2.752  32.611  0.00  0.00    +0.277 C 
ENDBRANCH  38   2
ENDBRANCH  18  22
ENDBRANCH   4  18
ENDBRANCH  14   4
ENDBRANCH   9  14
TORSDOF 10
ENDMDL
MODEL 10
REMARK VINA RESULT:      -6.4      3.181      6.143
REMARK  Name = 44715906
REMARK  13 active torsions:
REMARK  status: ('A' for Active; 'I' for Inactive)
REMARK    1  A    between atoms: O_1  and  C_37
REMARK    2  A    between atoms: O_1  and  C_43
REMARK    3  A    between atoms: O_2  and  C_38
REMARK    4  A    between atoms: O_2  and  C_44
REMARK    5  A    between atoms: N_4  and  C_14
REMARK    6  A    between atoms: N_4  and  C_17
REMARK    7  A    between atoms: N_4  and  C_18
REMARK    8  A    between atoms: N_5  and  C_20
REMARK    9  A    between atoms: C_8  and  C_15
REMARK   10  A    between atoms: C_9  and  C_14
REMARK   11  A    between atoms: C_17  and  C_21
REMARK   12  A    between atoms: C_18  and  C_22
REMARK   13  A    between atoms: C_19  and  C_23
REMARK                            x       y       z     vdW  Elec       q    Type
REMARK                         _______ _______ _______ _____ _____    ______ ____
ROOT
ATOM      3  N   UNL     1      -5.494 -12.669  15.036  0.00  0.00    -0.298 NA
ATOM      7  C   UNL     1      -5.382 -10.417  16.339  0.00  0.00    +0.002 C 
ATOM      8  C   UNL     1      -5.972 -11.538  17.240  0.00  0.00    +0.055 C 
ATOM      9  C   UNL     1      -6.105 -11.583  14.227  0.00  0.00    +0.071 C 
ATOM     10  C   UNL     1      -6.236 -10.289  15.060  0.00  0.00    +0.024 C 
ATOM     11  C   UNL     1      -3.979 -10.889  15.904  0.00  0.00    +0.019 C 
ATOM     12  C   UNL     1      -6.194 -12.787  16.340  0.00  0.00    +0.094 C 
ATOM     13  C   UNL     1      -4.083 -12.300  15.300  0.00  0.00    +0.085 C 
ENDROOT
BRANCH   8  15
ATOM      5  N   UNL     1      -7.153 -11.116  19.446  0.00  0.00    -0.270 N 
ATOM      6  N   UNL     1      -8.339 -10.820  20.006  0.00  0.00    -0.171 NA
ATOM     15  C   UNL     1      -7.194 -11.212  18.087  0.00  0.00    +0.044 A 
ATOM     16  C   UNL     1      -8.496 -10.962  17.731  0.00  0.00    +0.053 A 
ATOM     19  C   UNL     1      -9.156 -10.727  18.953  0.00  0.00    +0.093 A 
ATOM     20  C   UNL     1      -5.998 -11.299  20.296  0.00  0.00    +0.172 C 
BRANCH  19  23
ATOM     23  C   UNL     1     -10.550 -10.419  19.134  0.00  0.00    +0.003 A 
ATOM     28  C   UNL     1     -11.291  -9.894  18.075  0.00  0.00    +0.018 A 
ATOM     29  C   UNL     1     -11.158 -10.645  20.365  0.00  0.00    +0.011 A 
ATOM     30  C   UNL     1     -12.653  -9.587  18.235  0.00  0.00    -0.017 A 
ATOM     31  C   UNL     1     -12.509 -10.346  20.543  0.00  0.00    +0.009 A 
ATOM     36  C   UNL     1     -13.270  -9.817  19.488  0.00  0.00    -0.018 A 
ATOM     39  C   UNL     1     -13.414  -9.058  17.181  0.00  0.00    +0.008 A 
ATOM     40  C   UNL     1     -14.632  -9.510  19.648  0.00  0.00    +0.008 A 
ATOM     41  C   UNL     1     -14.765  -8.759  17.358  0.00  0.00    +0.001 A 
ATOM     42  C   UNL     1     -15.373  -8.985  18.589  0.00  0.00    +0.001 A 
ENDBRANCH  19  23
ENDBRANCH   8  15
BRANCH   9  14
ATOM     14  C   UNL     1      -7.441 -11.998  13.606  0.00  0.00    +0.104 C 
BRANCH  14   4
ATOM      4  N   UNL     1      -8.257 -10.832  13.309  0.00  0.00    -0.293 NA
BRANCH   4  17
ATOM     17  C   UNL     1      -8.342 -10.612  11.863  0.00  0.00    +0.120 C 
BRANCH  17  21
ATOM     21  C   UNL     1      -7.017 -10.194  11.281  0.00  0.00    -0.033 A 
ATOM     24  C   UNL     1      -6.325 -11.056  10.430  0.00  0.00    +0.008 A 
ATOM     26  C   UNL     1      -6.484  -8.943  11.593  0.00  0.00    +0.008 A 
ATOM     32  C   UNL     1      -5.098 -10.667   9.892  0.00  0.00    +0.046 A 
ATOM     34  C   UNL     1      -5.257  -8.555  11.055  0.00  0.00    +0.046 A 
ATOM     37  C   UNL     1      -4.564  -9.417  10.204  0.00  0.00    +0.120 A 
BRANCH  37   1
ATOM      1  O   UNL     1      -3.368  -9.038   9.679  0.00  0.00    -0.495 OA
ATOM     43  C   UNL     1      -2.220  -9.167  10.517  0.00  0.00    +0.277 C 
ENDBRANCH  37   1
ENDBRANCH  17  21
ENDBRANCH   4  17
BRANCH   4  18
ATOM     18  C   UNL     1      -9.601 -10.980  13.877  0.00  0.00    +0.120 C 
BRANCH  18  22
ATOM     22  C   UNL     1     -10.219  -9.649  14.211  0.00  0.00    -0.033 A 
ATOM     25  C   UNL     1      -9.590  -8.797  15.118  0.00  0.00    +0.008 A 
ATOM     27  C   UNL     1     -11.419  -9.268  13.611  0.00  0.00    +0.008 A 
ATOM     33  C   UNL     1     -10.163  -7.563  15.427  0.00  0.00    +0.046 A 
ATOM     35  C   UNL     1     -11.992  -8.035  13.920  0.00  0.00    +0.046 A 
ATOM     38  C   UNL     1     -11.365  -7.182  14.828  0.00  0.00    +0.120 A 
BRANCH  38   2
ATOM      2  O   UNL     1     -11.923  -5.978  15.129  0.00  0.00    -0.495 OA
ATOM     44  C   UNL     1     -12.784  -5.398  14.151  0.00  0.00    +0.277 C 
ENDBRANCH  38   2
ENDBRANCH  18  22
ENDBRANCH   4  18
ENDBRANCH  14   4
ENDBRANCH   9  14
TORSDOF 10
ENDMDL
