MODEL 1
REMARK VINA RESULT:      -7.9      0.000      0.000
REMARK  Name = 40777854
REMARK  7 active torsions:
REMARK  status: ('A' for Active; 'I' for Inactive)
REMARK    1  A    between atoms: O_2  and  C_9
REMARK    2  A    between atoms: O_3  and  C_10
REMARK    3  A    between atoms: N_7  and  C_13
REMARK    4  A    between atoms: C_8  and  C_12
REMARK    5  A    between atoms: C_11  and  C_13
REMARK    6  A    between atoms: C_12  and  C_14
REMARK    7  A    between atoms: C_21  and  C_24
REMARK                            x       y       z     vdW  Elec       q    Type
REMARK                         _______ _______ _______ _____ _____    ______ ____
ROOT
ATOM      1  O   UNL     1      13.017   8.656  22.325  0.00  0.00    -0.366 OA
ATOM      8  C   UNL     1      13.879   9.811  22.440  0.00  0.00    +0.159 C 
ATOM      9  C   UNL     1      12.970  10.998  22.737  0.00  0.00    +0.175 C 
ATOM     10  C   UNL     1      11.677  10.579  22.070  0.00  0.00    +0.176 C 
ATOM     11  C   UNL     1      11.646   9.090  22.373  0.00  0.00    +0.167 C 
ENDROOT
BRANCH   9   2
ATOM      2  O   UNL     1      12.795  11.078  24.152  0.00  0.00    -0.387 OA
ATOM     30  H   UNL     1      12.855  12.017  24.399  0.00  0.00    +0.210 HD
ENDBRANCH   9   2
BRANCH  10   3
ATOM      3  O   UNL     1      10.543  11.247  22.580  0.00  0.00    -0.387 OA
ATOM     31  H   UNL     1      10.835  12.118  22.898  0.00  0.00    +0.210 HD
ENDBRANCH  10   3
BRANCH   8  12
ATOM     12  C   UNL     1      14.642   9.955  21.130  0.00  0.00    +0.130 C 
BRANCH  12  14
ATOM      4  O   UNL     1      16.850  10.172  21.962  0.00  0.00    -0.275 OA
ATOM      6  N   UNL     1      16.360   8.273  20.696  0.00  0.00    -0.271 N 
ATOM     14  C   UNL     1      16.066   9.483  21.310  0.00  0.00    +0.222 C 
ATOM     15  C   UNL     1      15.415   7.449  19.914  0.00  0.00    +0.118 C 
ATOM     16  C   UNL     1      16.168   6.203  19.435  0.00  0.00    +0.056 C 
ATOM     17  C   UNL     1      17.610   7.621  20.713  0.00  0.00    +0.039 A 
ATOM     18  C   UNL     1      17.534   6.425  19.995  0.00  0.00    -0.024 A 
ATOM     19  C   UNL     1      18.798   8.008  21.315  0.00  0.00    +0.024 A 
ATOM     20  C   UNL     1      18.635   5.594  19.861  0.00  0.00    +0.005 A 
ATOM     22  C   UNL     1      19.914   7.176  21.185  0.00  0.00    +0.002 A 
ATOM     23  C   UNL     1      19.834   5.977  20.464  0.00  0.00    +0.000 A 
ENDBRANCH  12  14
ENDBRANCH   8  12
BRANCH  11  13
ATOM     13  C   UNL     1      10.821   8.291  21.379  0.00  0.00    +0.138 C 
BRANCH  13   7
ATOM      5  O   UNL     1      12.043   6.769  19.274  0.00  0.00    -0.270 OA
ATOM      7  N   UNL     1      11.062   8.728  20.036  0.00  0.00    -0.309 N 
ATOM     21  C   UNL     1      11.663   7.920  19.075  0.00  0.00    +0.244 C 
ATOM     32  H   UNL     1      10.723   9.652  19.788  0.00  0.00    +0.149 HD
BRANCH  21  24
ATOM     24  C   UNL     1      11.867   8.530  17.736  0.00  0.00    +0.037 A 
ATOM     25  C   UNL     1      10.797   8.631  16.846  0.00  0.00    +0.013 A 
ATOM     26  C   UNL     1      13.126   9.003  17.369  0.00  0.00    +0.013 A 
ATOM     27  C   UNL     1      10.988   9.203  15.589  0.00  0.00    +0.001 A 
ATOM     28  C   UNL     1      13.317   9.575  16.111  0.00  0.00    +0.001 A 
ATOM     29  C   UNL     1      12.248   9.676  15.221  0.00  0.00    +0.000 A 
ENDBRANCH  21  24
ENDBRANCH  13   7
ENDBRANCH  11  13
TORSDOF 7
ENDMDL
MODEL 2
REMARK VINA RESULT:      -7.8      2.646      4.285
REMARK  Name = 40777854
REMARK  7 active torsions:
REMARK  status: ('A' for Active; 'I' for Inactive)
REMARK    1  A    between atoms: O_2  and  C_9
REMARK    2  A    between atoms: O_3  and  C_10
REMARK    3  A    between atoms: N_7  and  C_13
REMARK    4  A    between atoms: C_8  and  C_12
REMARK    5  A    between atoms: C_11  and  C_13
REMARK    6  A    between atoms: C_12  and  C_14
REMARK    7  A    between atoms: C_21  and  C_24
REMARK                            x       y       z     vdW  Elec       q    Type
REMARK                         _______ _______ _______ _____ _____    ______ ____
ROOT
ATOM      1  O   UNL     1      13.289   7.317  17.558  0.00  0.00    -0.366 OA
ATOM      8  C   UNL     1      13.766   6.940  18.870  0.00  0.00    +0.159 C 
ATOM      9  C   UNL     1      12.616   7.200  19.836  0.00  0.00    +0.175 C 
ATOM     10  C   UNL     1      11.879   8.333  19.152  0.00  0.00    +0.176 C 
ATOM     11  C   UNL     1      11.996   7.933  17.691  0.00  0.00    +0.167 C 
ENDROOT
BRANCH   9   2
ATOM      2  O   UNL     1      11.798   6.031  19.877  0.00  0.00    -0.387 OA
ATOM     30  H   UNL     1      11.861   5.602  19.006  0.00  0.00    +0.210 HD
ENDBRANCH   9   2
BRANCH  10   3
ATOM      3  O   UNL     1      10.535   8.455  19.562  0.00  0.00    -0.387 OA
ATOM     31  H   UNL     1      10.172   7.556  19.645  0.00  0.00    +0.210 HD
ENDBRANCH  10   3
BRANCH   8  12
ATOM     12  C   UNL     1      15.002   7.775  19.174  0.00  0.00    +0.130 C 
BRANCH  12  14
ATOM      4  O   UNL     1      16.259   5.832  18.660  0.00  0.00    -0.275 OA
ATOM      6  N   UNL     1      17.178   7.334  20.193  0.00  0.00    -0.271 N 
ATOM     14  C   UNL     1      16.208   6.876  19.311  0.00  0.00    +0.222 C 
ATOM     15  C   UNL     1      17.115   8.588  20.972  0.00  0.00    +0.118 C 
ATOM     16  C   UNL     1      18.400   8.689  21.800  0.00  0.00    +0.056 C 
ATOM     17  C   UNL     1      18.392   6.683  20.497  0.00  0.00    +0.039 A 
ATOM     18  C   UNL     1      19.119   7.436  21.421  0.00  0.00    -0.024 A 
ATOM     19  C   UNL     1      18.891   5.481  20.016  0.00  0.00    +0.024 A 
ATOM     20  C   UNL     1      20.355   7.011  21.884  0.00  0.00    +0.005 A 
ATOM     22  C   UNL     1      20.136   5.044  20.479  0.00  0.00    +0.002 A 
ATOM     23  C   UNL     1      20.864   5.803  21.406  0.00  0.00    +0.000 A 
ENDBRANCH  12  14
ENDBRANCH   8  12
BRANCH  11  13
ATOM     13  C   UNL     1      11.888   9.108  16.734  0.00  0.00    +0.138 C 
BRANCH  13   7
ATOM      5  O   UNL     1      14.152   9.508  15.015  0.00  0.00    -0.270 OA
ATOM      7  N   UNL     1      12.960  10.037  16.934  0.00  0.00    -0.309 N 
ATOM     21  C   UNL     1      14.024  10.166  16.044  0.00  0.00    +0.244 C 
ATOM     32  H   UNL     1      12.890  10.652  17.738  0.00  0.00    +0.149 HD
BRANCH  21  24
ATOM     24  C   UNL     1      15.069  11.156  16.407  0.00  0.00    +0.037 A 
ATOM     25  C   UNL     1      15.948  11.632  15.433  0.00  0.00    +0.013 A 
ATOM     26  C   UNL     1      15.172  11.612  17.721  0.00  0.00    +0.013 A 
ATOM     27  C   UNL     1      16.930  12.561  15.774  0.00  0.00    +0.001 A 
ATOM     28  C   UNL     1      16.155  12.542  18.062  0.00  0.00    +0.001 A 
ATOM     29  C   UNL     1      17.033  13.017  17.089  0.00  0.00    +0.000 A 
ENDBRANCH  21  24
ENDBRANCH  13   7
ENDBRANCH  11  13
TORSDOF 7
ENDMDL
MODEL 3
REMARK VINA RESULT:      -7.6      2.588      7.855
REMARK  Name = 40777854
REMARK  7 active torsions:
REMARK  status: ('A' for Active; 'I' for Inactive)
REMARK    1  A    between atoms: O_2  and  C_9
REMARK    2  A    between atoms: O_3  and  C_10
REMARK    3  A    between atoms: N_7  and  C_13
REMARK    4  A    between atoms: C_8  and  C_12
REMARK    5  A    between atoms: C_11  and  C_13
REMARK    6  A    between atoms: C_12  and  C_14
REMARK    7  A    between atoms: C_21  and  C_24
REMARK                            x       y       z     vdW  Elec       q    Type
REMARK                         _______ _______ _______ _____ _____    ______ ____
ROOT
ATOM      1  O   UNL     1      13.233   8.253  21.768  0.00  0.00    -0.366 OA
ATOM      8  C   UNL     1      11.812   8.261  22.037  0.00  0.00    +0.159 C 
ATOM      9  C   UNL     1      11.209   7.144  21.192  0.00  0.00    +0.175 C 
ATOM     10  C   UNL     1      12.166   7.083  20.020  0.00  0.00    +0.176 C 
ATOM     11  C   UNL     1      13.502   7.322  20.706  0.00  0.00    +0.167 C 
ENDROOT
BRANCH   9   2
ATOM      2  O   UNL     1      11.272   5.934  21.947  0.00  0.00    -0.387 OA
ATOM     30  H   UNL     1      12.008   5.408  21.591  0.00  0.00    +0.210 HD
ENDBRANCH   9   2
BRANCH  10   3
ATOM      3  O   UNL     1      12.135   5.850  19.335  0.00  0.00    -0.387 OA
ATOM     31  H   UNL     1      12.394   5.158  19.968  0.00  0.00    +0.210 HD
ENDBRANCH  10   3
BRANCH   8  12
ATOM     12  C   UNL     1      11.277   9.639  21.675  0.00  0.00    +0.130 C 
BRANCH  12  14
ATOM      4  O   UNL     1      10.904   9.885  24.003  0.00  0.00    -0.275 OA
ATOM      6  N   UNL     1      11.118  11.834  22.737  0.00  0.00    -0.271 N 
ATOM     14  C   UNL     1      11.080  10.460  22.928  0.00  0.00    +0.222 C 
ATOM     15  C   UNL     1      11.330  12.521  21.445  0.00  0.00    +0.118 C 
ATOM     16  C   UNL     1      11.303  14.030  21.709  0.00  0.00    +0.056 C 
ATOM     17  C   UNL     1      10.961  12.813  23.740  0.00  0.00    +0.039 A 
ATOM     18  C   UNL     1      11.061  14.089  23.182  0.00  0.00    -0.024 A 
ATOM     19  C   UNL     1      10.739  12.653  25.100  0.00  0.00    +0.024 A 
ATOM     20  C   UNL     1      10.943  15.229  23.962  0.00  0.00    +0.005 A 
ATOM     22  C   UNL     1      10.617  13.797  25.895  0.00  0.00    +0.002 A 
ATOM     23  C   UNL     1      10.719  15.076  25.331  0.00  0.00    +0.000 A 
ENDBRANCH  12  14
ENDBRANCH   8  12
BRANCH  11  13
ATOM     13  C   UNL     1      14.561   7.894  19.779  0.00  0.00    +0.138 C 
BRANCH  13   7
ATOM      5  O   UNL     1      16.388   5.876  18.869  0.00  0.00    -0.270 OA
ATOM      7  N   UNL     1      15.879   7.643  20.283  0.00  0.00    -0.309 N 
ATOM     21  C   UNL     1      16.701   6.638  19.780  0.00  0.00    +0.244 C 
ATOM     32  H   UNL     1      16.221   8.273  21.001  0.00  0.00    +0.149 HD
BRANCH  21  24
ATOM     24  C   UNL     1      18.029   6.489  20.428  0.00  0.00    +0.037 A 
ATOM     25  C   UNL     1      18.918   5.512  19.978  0.00  0.00    +0.013 A 
ATOM     26  C   UNL     1      18.388   7.326  21.484  0.00  0.00    +0.013 A 
ATOM     27  C   UNL     1      20.165   5.372  20.587  0.00  0.00    +0.001 A 
ATOM     28  C   UNL     1      19.635   7.185  22.093  0.00  0.00    +0.001 A 
ATOM     29  C   UNL     1      20.524   6.209  21.644  0.00  0.00    +0.000 A 
ENDBRANCH  21  24
ENDBRANCH  13   7
ENDBRANCH  11  13
TORSDOF 7
ENDMDL
MODEL 4
REMARK VINA RESULT:      -7.5      2.511      7.231
REMARK  Name = 40777854
REMARK  7 active torsions:
REMARK  status: ('A' for Active; 'I' for Inactive)
REMARK    1  A    between atoms: O_2  and  C_9
REMARK    2  A    between atoms: O_3  and  C_10
REMARK    3  A    between atoms: N_7  and  C_13
REMARK    4  A    between atoms: C_8  and  C_12
REMARK    5  A    between atoms: C_11  and  C_13
REMARK    6  A    between atoms: C_12  and  C_14
REMARK    7  A    between atoms: C_21  and  C_24
REMARK                            x       y       z     vdW  Elec       q    Type
REMARK                         _______ _______ _______ _____ _____    ______ ____
ROOT
ATOM      1  O   UNL     1      13.273   7.415  21.064  0.00  0.00    -0.366 OA
ATOM      8  C   UNL     1      12.363   8.333  21.711  0.00  0.00    +0.159 C 
ATOM      9  C   UNL     1      11.233   8.589  20.720  0.00  0.00    +0.175 C 
ATOM     10  C   UNL     1      11.930   8.393  19.390  0.00  0.00    +0.176 C 
ATOM     11  C   UNL     1      12.855   7.228  19.700  0.00  0.00    +0.167 C 
ENDROOT
BRANCH   9   2
ATOM      2  O   UNL     1      10.239   7.582  20.912  0.00  0.00    -0.387 OA
ATOM     30  H   UNL     1      10.411   6.877  20.265  0.00  0.00    +0.210 HD
ENDBRANCH   9   2
BRANCH  10   3
ATOM      3  O   UNL     1      11.044   8.099  18.332  0.00  0.00    -0.387 OA
ATOM     31  H   UNL     1      10.805   8.941  17.908  0.00  0.00    +0.210 HD
ENDBRANCH  10   3
BRANCH   8  12
ATOM     12  C   UNL     1      13.144   9.591  22.065  0.00  0.00    +0.130 C 
BRANCH  12  14
ATOM      4  O   UNL     1      11.415  10.696  23.252  0.00  0.00    -0.275 OA
ATOM      6  N   UNL     1      12.285  11.771  21.372  0.00  0.00    -0.271 N 
ATOM     14  C   UNL     1      12.190  10.740  22.296  0.00  0.00    +0.222 C 
ATOM     15  C   UNL     1      13.217  11.821  20.226  0.00  0.00    +0.118 C 
ATOM     16  C   UNL     1      12.977  13.141  19.486  0.00  0.00    +0.056 C 
ATOM     17  C   UNL     1      11.510  12.949  21.366  0.00  0.00    +0.039 A 
ATOM     18  C   UNL     1      11.883  13.760  20.292  0.00  0.00    -0.024 A 
ATOM     19  C   UNL     1      10.508  13.349  22.238  0.00  0.00    +0.024 A 
ATOM     20  C   UNL     1      11.268  14.982  20.063  0.00  0.00    +0.005 A 
ATOM     22  C   UNL     1       9.882  14.579  22.015  0.00  0.00    +0.002 A 
ATOM     23  C   UNL     1      10.259  15.391  20.936  0.00  0.00    +0.000 A 
ENDBRANCH  12  14
ENDBRANCH   8  12
BRANCH  11  13
ATOM     13  C   UNL     1      14.074   7.169  18.795  0.00  0.00    +0.138 C 
BRANCH  13   7
ATOM      5  O   UNL     1      16.482   5.628  18.539  0.00  0.00    -0.270 OA
ATOM      7  N   UNL     1      15.283   7.341  19.544  0.00  0.00    -0.309 N 
ATOM     21  C   UNL     1      16.409   6.545  19.353  0.00  0.00    +0.244 C 
ATOM     32  H   UNL     1      15.310   8.117  20.197  0.00  0.00    +0.149 HD
BRANCH  21  24
ATOM     24  C   UNL     1      17.575   6.834  20.228  0.00  0.00    +0.037 A 
ATOM     25  C   UNL     1      17.562   7.955  21.059  0.00  0.00    +0.013 A 
ATOM     26  C   UNL     1      18.681   5.984  20.219  0.00  0.00    +0.013 A 
ATOM     27  C   UNL     1      18.656   8.226  21.879  0.00  0.00    +0.001 A 
ATOM     28  C   UNL     1      19.776   6.257  21.040  0.00  0.00    +0.001 A 
ATOM     29  C   UNL     1      19.764   7.376  21.870  0.00  0.00    +0.000 A 
ENDBRANCH  21  24
ENDBRANCH  13   7
ENDBRANCH  11  13
TORSDOF 7
ENDMDL
MODEL 5
REMARK VINA RESULT:      -7.3     27.504     30.551
REMARK  Name = 40777854
REMARK  7 active torsions:
REMARK  status: ('A' for Active; 'I' for Inactive)
REMARK    1  A    between atoms: O_2  and  C_9
REMARK    2  A    between atoms: O_3  and  C_10
REMARK    3  A    between atoms: N_7  and  C_13
REMARK    4  A    between atoms: C_8  and  C_12
REMARK    5  A    between atoms: C_11  and  C_13
REMARK    6  A    between atoms: C_12  and  C_14
REMARK    7  A    between atoms: C_21  and  C_24
REMARK                            x       y       z     vdW  Elec       q    Type
REMARK                         _______ _______ _______ _____ _____    ______ ____
ROOT
ATOM      1  O   UNL     1      -5.791 -10.516  18.140  0.00  0.00    -0.366 OA
ATOM      8  C   UNL     1      -5.745 -11.787  18.828  0.00  0.00    +0.159 C 
ATOM      9  C   UNL     1      -4.559 -12.547  18.247  0.00  0.00    +0.175 C 
ATOM     10  C   UNL     1      -4.482 -11.987  16.842  0.00  0.00    +0.176 C 
ATOM     11  C   UNL     1      -4.819 -10.524  17.080  0.00  0.00    +0.167 C 
ENDROOT
BRANCH   9   2
ATOM      2  O   UNL     1      -3.394 -12.186  18.989  0.00  0.00    -0.387 OA
ATOM     30  H   UNL     1      -3.489 -12.565  19.880  0.00  0.00    +0.210 HD
ENDBRANCH   9   2
BRANCH  10   3
ATOM      3  O   UNL     1      -3.214 -12.148  16.244  0.00  0.00    -0.387 OA
ATOM     31  H   UNL     1      -3.278 -12.892  15.620  0.00  0.00    +0.210 HD
ENDBRANCH  10   3
BRANCH   8  12
ATOM     12  C   UNL     1      -7.076 -12.489  18.597  0.00  0.00    +0.130 C 
BRANCH  12  14
ATOM      4  O   UNL     1      -7.963 -10.903  20.119  0.00  0.00    -0.275 OA
ATOM      6  N   UNL     1      -9.437 -11.861  18.583  0.00  0.00    -0.271 N 
ATOM     14  C   UNL     1      -8.200 -11.666  19.183  0.00  0.00    +0.222 C 
ATOM     15  C   UNL     1      -9.718 -12.778  17.459  0.00  0.00    +0.118 C 
ATOM     16  C   UNL     1     -11.208 -12.661  17.122  0.00  0.00    +0.056 C 
ATOM     17  C   UNL     1     -10.639 -11.217  18.943  0.00  0.00    +0.039 A 
ATOM     18  C   UNL     1     -11.680 -11.657  18.121  0.00  0.00    -0.024 A 
ATOM     19  C   UNL     1     -10.873 -10.279  19.937  0.00  0.00    +0.024 A 
ATOM     20  C   UNL     1     -12.970 -11.173  18.272  0.00  0.00    +0.005 A 
ATOM     22  C   UNL     1     -12.172  -9.785  20.097  0.00  0.00    +0.002 A 
ATOM     23  C   UNL     1     -13.214 -10.229  19.270  0.00  0.00    +0.000 A 
ENDBRANCH  12  14
ENDBRANCH   8  12
BRANCH  11  13
ATOM     13  C   UNL     1      -5.391  -9.831  15.855  0.00  0.00    +0.138 C 
BRANCH  13   7
ATOM      5  O   UNL     1      -7.867 -11.035  15.042  0.00  0.00    -0.270 OA
ATOM      7  N   UNL     1      -6.710  -9.333  16.112  0.00  0.00    -0.309 N 
ATOM     21  C   UNL     1      -7.861  -9.985  15.678  0.00  0.00    +0.244 C 
ATOM     32  H   UNL     1      -6.780  -8.496  16.681  0.00  0.00    +0.149 HD
BRANCH  21  24
ATOM     24  C   UNL     1      -9.152  -9.326  16.002  0.00  0.00    +0.037 A 
ATOM     25  C   UNL     1     -10.296  -9.631  15.263  0.00  0.00    +0.013 A 
ATOM     26  C   UNL     1      -9.222  -8.404  17.046  0.00  0.00    +0.013 A 
ATOM     27  C   UNL     1     -11.508  -9.012  15.566  0.00  0.00    +0.001 A 
ATOM     28  C   UNL     1     -10.435  -7.784  17.349  0.00  0.00    +0.001 A 
ATOM     29  C   UNL     1     -11.578  -8.089  16.611  0.00  0.00    +0.000 A 
ENDBRANCH  21  24
ENDBRANCH  13   7
ENDBRANCH  11  13
TORSDOF 7
ENDMDL
MODEL 6
REMARK VINA RESULT:      -7.3      2.532      5.188
REMARK  Name = 40777854
REMARK  7 active torsions:
REMARK  status: ('A' for Active; 'I' for Inactive)
REMARK    1  A    between atoms: O_2  and  C_9
REMARK    2  A    between atoms: O_3  and  C_10
REMARK    3  A    between atoms: N_7  and  C_13
REMARK    4  A    between atoms: C_8  and  C_12
REMARK    5  A    between atoms: C_11  and  C_13
REMARK    6  A    between atoms: C_12  and  C_14
REMARK    7  A    between atoms: C_21  and  C_24
REMARK                            x       y       z     vdW  Elec       q    Type
REMARK                         _______ _______ _______ _____ _____    ______ ____
ROOT
ATOM      1  O   UNL     1      13.102   8.215  19.173  0.00  0.00    -0.366 OA
ATOM      8  C   UNL     1      14.078   7.305  19.730  0.00  0.00    +0.159 C 
ATOM      9  C   UNL     1      13.632   7.017  21.159  0.00  0.00    +0.175 C 
ATOM     10  C   UNL     1      12.895   8.290  21.521  0.00  0.00    +0.176 C 
ATOM     11  C   UNL     1      12.194   8.618  20.213  0.00  0.00    +0.167 C 
ENDROOT
BRANCH   9   2
ATOM      2  O   UNL     1      12.728   5.913  21.127  0.00  0.00    -0.387 OA
ATOM     30  H   UNL     1      13.220   5.145  20.789  0.00  0.00    +0.210 HD
ENDBRANCH   9   2
BRANCH  10   3
ATOM      3  O   UNL     1      11.982   8.124  22.585  0.00  0.00    -0.387 OA
ATOM     31  H   UNL     1      11.092   8.305  22.237  0.00  0.00    +0.210 HD
ENDBRANCH  10   3
BRANCH   8  12
ATOM     12  C   UNL     1      15.441   7.980  19.654  0.00  0.00    +0.130 C 
BRANCH  12  14
ATOM      4  O   UNL     1      16.397   5.940  18.917  0.00  0.00    -0.275 OA
ATOM      6  N   UNL     1      17.620   7.211  20.446  0.00  0.00    -0.271 N 
ATOM     14  C   UNL     1      16.532   6.935  19.630  0.00  0.00    +0.222 C 
ATOM     15  C   UNL     1      17.780   8.407  21.299  0.00  0.00    +0.118 C 
ATOM     16  C   UNL     1      19.131   8.295  22.013  0.00  0.00    +0.056 C 
ATOM     17  C   UNL     1      18.763   6.400  20.601  0.00  0.00    +0.039 A 
ATOM     18  C   UNL     1      19.653   6.995  21.498  0.00  0.00    -0.024 A 
ATOM     19  C   UNL     1      19.066   5.183  20.008  0.00  0.00    +0.024 A 
ATOM     20  C   UNL     1      20.859   6.393  21.823  0.00  0.00    +0.005 A 
ATOM     22  C   UNL     1      20.280   4.568  20.331  0.00  0.00    +0.002 A 
ATOM     23  C   UNL     1      21.171   5.169  21.231  0.00  0.00    +0.000 A 
ENDBRANCH  12  14
ENDBRANCH   8  12
BRANCH  11  13
ATOM     13  C   UNL     1      11.863  10.092  20.060  0.00  0.00    +0.138 C 
BRANCH  13   7
ATOM      5  O   UNL     1      11.891  12.885  20.726  0.00  0.00    -0.270 OA
ATOM      7  N   UNL     1      11.506  10.675  21.320  0.00  0.00    -0.309 N 
ATOM     21  C   UNL     1      11.548  12.047  21.556  0.00  0.00    +0.244 C 
ATOM     32  H   UNL     1      11.161  10.044  22.035  0.00  0.00    +0.149 HD
BRANCH  21  24
ATOM     24  C   UNL     1      11.173  12.491  22.922  0.00  0.00    +0.037 A 
ATOM     25  C   UNL     1      11.369  11.640  24.011  0.00  0.00    +0.013 A 
ATOM     26  C   UNL     1      10.624  13.759  23.118  0.00  0.00    +0.013 A 
ATOM     27  C   UNL     1      11.016  12.057  25.294  0.00  0.00    +0.001 A 
ATOM     28  C   UNL     1      10.270  14.175  24.402  0.00  0.00    +0.001 A 
ATOM     29  C   UNL     1      10.467  13.325  25.490  0.00  0.00    +0.000 A 
ENDBRANCH  21  24
ENDBRANCH  13   7
ENDBRANCH  11  13
TORSDOF 7
ENDMDL
MODEL 7
REMARK VINA RESULT:      -7.2      2.560      7.286
REMARK  Name = 40777854
REMARK  7 active torsions:
REMARK  status: ('A' for Active; 'I' for Inactive)
REMARK    1  A    between atoms: O_2  and  C_9
REMARK    2  A    between atoms: O_3  and  C_10
REMARK    3  A    between atoms: N_7  and  C_13
REMARK    4  A    between atoms: C_8  and  C_12
REMARK    5  A    between atoms: C_11  and  C_13
REMARK    6  A    between atoms: C_12  and  C_14
REMARK    7  A    between atoms: C_21  and  C_24
REMARK                            x       y       z     vdW  Elec       q    Type
REMARK                         _______ _______ _______ _____ _____    ______ ____
ROOT
ATOM      1  O   UNL     1      11.875   9.055  19.114  0.00  0.00    -0.366 OA
ATOM      8  C   UNL     1      12.449  10.268  18.577  0.00  0.00    +0.159 C 
ATOM      9  C   UNL     1      13.212   9.863  17.321  0.00  0.00    +0.175 C 
ATOM     10  C   UNL     1      13.607   8.436  17.638  0.00  0.00    +0.176 C 
ATOM     11  C   UNL     1      12.370   7.932  18.364  0.00  0.00    +0.167 C 
ENDROOT
BRANCH   9   2
ATOM      2  O   UNL     1      12.302   9.892  16.221  0.00  0.00    -0.387 OA
ATOM     30  H   UNL     1      12.170  10.825  15.978  0.00  0.00    +0.210 HD
ENDBRANCH   9   2
BRANCH  10   3
ATOM      3  O   UNL     1      13.898   7.667  16.492  0.00  0.00    -0.387 OA
ATOM     31  H   UNL     1      14.068   8.286  15.760  0.00  0.00    +0.210 HD
ENDBRANCH  10   3
BRANCH   8  12
ATOM     12  C   UNL     1      13.343  10.876  19.649  0.00  0.00    +0.130 C 
BRANCH  12  14
ATOM      4  O   UNL     1      12.687  13.153  19.612  0.00  0.00    -0.275 OA
ATOM      6  N   UNL     1      12.103  11.895  21.490  0.00  0.00    -0.271 N 
ATOM     14  C   UNL     1      12.679  12.095  20.243  0.00  0.00    +0.222 C 
ATOM     15  C   UNL     1      12.095  10.625  22.244  0.00  0.00    +0.118 C 
ATOM     16  C   UNL     1      11.345  10.867  23.559  0.00  0.00    +0.056 C 
ATOM     17  C   UNL     1      11.426  12.869  22.253  0.00  0.00    +0.039 A 
ATOM     18  C   UNL     1      10.977  12.310  23.451  0.00  0.00    -0.024 A 
ATOM     19  C   UNL     1      11.182  14.203  21.962  0.00  0.00    +0.024 A 
ATOM     20  C   UNL     1      10.279  13.064  24.382  0.00  0.00    +0.005 A 
ATOM     22  C   UNL     1      10.478  14.972  22.895  0.00  0.00    +0.002 A 
ATOM     23  C   UNL     1      10.029  14.406  24.097  0.00  0.00    +0.000 A 
ENDBRANCH  12  14
ENDBRANCH   8  12
BRANCH  11  13
ATOM     13  C   UNL     1      12.652   6.773  19.303  0.00  0.00    +0.138 C 
BRANCH  13   7
ATOM      5  O   UNL     1      14.410   7.592  21.421  0.00  0.00    -0.270 OA
ATOM      7  N   UNL     1      14.059   6.514  19.397  0.00  0.00    -0.309 N 
ATOM     21  C   UNL     1      14.838   6.951  20.465  0.00  0.00    +0.244 C 
ATOM     32  H   UNL     1      14.468   5.941  18.666  0.00  0.00    +0.149 HD
BRANCH  21  24
ATOM     24  C   UNL     1      16.285   6.624  20.400  0.00  0.00    +0.037 A 
ATOM     25  C   UNL     1      17.128   6.978  21.455  0.00  0.00    +0.013 A 
ATOM     26  C   UNL     1      16.802   5.962  19.287  0.00  0.00    +0.013 A 
ATOM     27  C   UNL     1      18.487   6.672  21.394  0.00  0.00    +0.001 A 
ATOM     28  C   UNL     1      18.162   5.656  19.226  0.00  0.00    +0.001 A 
ATOM     29  C   UNL     1      19.004   6.010  20.280  0.00  0.00    +0.000 A 
ENDBRANCH  21  24
ENDBRANCH  13   7
ENDBRANCH  11  13
TORSDOF 7
ENDMDL
MODEL 8
REMARK VINA RESULT:      -7.2     27.255     30.789
REMARK  Name = 40777854
REMARK  7 active torsions:
REMARK  status: ('A' for Active; 'I' for Inactive)
REMARK    1  A    between atoms: O_2  and  C_9
REMARK    2  A    between atoms: O_3  and  C_10
REMARK    3  A    between atoms: N_7  and  C_13
REMARK    4  A    between atoms: C_8  and  C_12
REMARK    5  A    between atoms: C_11  and  C_13
REMARK    6  A    between atoms: C_12  and  C_14
REMARK    7  A    between atoms: C_21  and  C_24
REMARK                            x       y       z     vdW  Elec       q    Type
REMARK                         _______ _______ _______ _____ _____    ______ ____
ROOT
ATOM      1  O   UNL     1     -15.380   3.443  24.689  0.00  0.00    -0.366 OA
ATOM      8  C   UNL     1     -16.435   2.479  24.908  0.00  0.00    +0.159 C 
ATOM      9  C   UNL     1     -17.368   2.585  23.707  0.00  0.00    +0.175 C 
ATOM     10  C   UNL     1     -17.186   4.029  23.291  0.00  0.00    +0.176 C 
ATOM     11  C   UNL     1     -15.697   4.228  23.526  0.00  0.00    +0.167 C 
ENDROOT
BRANCH   9   2
ATOM      2  O   UNL     1     -16.881   1.710  22.689  0.00  0.00    -0.387 OA
ATOM     30  H   UNL     1     -17.224   0.821  22.881  0.00  0.00    +0.210 HD
ENDBRANCH   9   2
BRANCH  10   3
ATOM      3  O   UNL     1     -17.547   4.276  21.949  0.00  0.00    -0.387 OA
ATOM     31  H   UNL     1     -18.281   4.914  21.957  0.00  0.00    +0.210 HD
ENDBRANCH  10   3
BRANCH   8  12
ATOM     12  C   UNL     1     -17.116   2.825  26.225  0.00  0.00    +0.130 C 
BRANCH  12  14
ATOM      4  O   UNL     1     -16.721   0.659  27.102  0.00  0.00    -0.275 OA
ATOM      6  N   UNL     1     -16.202   2.482  28.464  0.00  0.00    -0.271 N 
ATOM     14  C   UNL     1     -16.661   1.872  27.305  0.00  0.00    +0.222 C 
ATOM     15  C   UNL     1     -16.130   3.939  28.704  0.00  0.00    +0.118 C 
ATOM     16  C   UNL     1     -15.557   4.153  30.109  0.00  0.00    +0.056 C 
ATOM     17  C   UNL     1     -15.724   1.818  29.613  0.00  0.00    +0.039 A 
ATOM     18  C   UNL     1     -15.345   2.752  30.581  0.00  0.00    -0.024 A 
ATOM     19  C   UNL     1     -15.603   0.459  29.859  0.00  0.00    +0.024 A 
ATOM     20  C   UNL     1     -14.840   2.353  31.808  0.00  0.00    +0.005 A 
ATOM     22  C   UNL     1     -15.095   0.047  31.095  0.00  0.00    +0.002 A 
ATOM     23  C   UNL     1     -14.715   0.987  32.063  0.00  0.00    +0.000 A 
ENDBRANCH  12  14
ENDBRANCH   8  12
BRANCH  11  13
ATOM     13  C   UNL     1     -15.313   5.677  23.767  0.00  0.00    +0.138 C 
BRANCH  13   7
ATOM      5  O   UNL     1     -15.973   6.785  21.202  0.00  0.00    -0.270 OA
ATOM      7  N   UNL     1     -14.392   6.140  22.772  0.00  0.00    -0.309 N 
ATOM     21  C   UNL     1     -14.801   6.666  21.549  0.00  0.00    +0.244 C 
ATOM     32  H   UNL     1     -13.407   6.121  23.016  0.00  0.00    +0.149 HD
BRANCH  21  24
ATOM     24  C   UNL     1     -13.722   7.077  20.616  0.00  0.00    +0.037 A 
ATOM     25  C   UNL     1     -14.045   7.664  19.391  0.00  0.00    +0.013 A 
ATOM     26  C   UNL     1     -12.385   6.877  20.962  0.00  0.00    +0.013 A 
ATOM     27  C   UNL     1     -13.032   8.050  18.515  0.00  0.00    +0.001 A 
ATOM     28  C   UNL     1     -11.372   7.263  20.084  0.00  0.00    +0.001 A 
ATOM     29  C   UNL     1     -11.694   7.850  18.861  0.00  0.00    +0.000 A 
ENDBRANCH  21  24
ENDBRANCH  13   7
ENDBRANCH  11  13
TORSDOF 7
ENDMDL
MODEL 9
REMARK VINA RESULT:      -7.0     26.706     28.995
REMARK  Name = 40777854
REMARK  7 active torsions:
REMARK  status: ('A' for Active; 'I' for Inactive)
REMARK    1  A    between atoms: O_2  and  C_9
REMARK    2  A    between atoms: O_3  and  C_10
REMARK    3  A    between atoms: N_7  and  C_13
REMARK    4  A    between atoms: C_8  and  C_12
REMARK    5  A    between atoms: C_11  and  C_13
REMARK    6  A    between atoms: C_12  and  C_14
REMARK    7  A    between atoms: C_21  and  C_24
REMARK                            x       y       z     vdW  Elec       q    Type
REMARK                         _______ _______ _______ _____ _____    ______ ____
ROOT
ATOM      1  O   UNL     1      -3.919 -10.297  13.625  0.00  0.00    -0.366 OA
ATOM      8  C   UNL     1      -2.567 -10.778  13.797  0.00  0.00    +0.159 C 
ATOM      9  C   UNL     1      -2.096 -11.239  12.422  0.00  0.00    +0.175 C 
ATOM     10  C   UNL     1      -3.397 -11.649  11.765  0.00  0.00    +0.176 C 
ATOM     11  C   UNL     1      -4.349 -10.583  12.282  0.00  0.00    +0.167 C 
ENDROOT
BRANCH   9   2
ATOM      2  O   UNL     1      -1.533 -10.115  11.746  0.00  0.00    -0.387 OA
ATOM     30  H   UNL     1      -2.196  -9.795  11.112  0.00  0.00    +0.210 HD
ENDBRANCH   9   2
BRANCH  10   3
ATOM      3  O   UNL     1      -3.333 -11.663  10.355  0.00  0.00    -0.387 OA
ATOM     31  H   UNL     1      -2.498 -11.234  10.097  0.00  0.00    +0.210 HD
ENDBRANCH  10   3
BRANCH   8  12
ATOM     12  C   UNL     1      -2.599 -11.901  14.825  0.00  0.00    +0.130 C 
BRANCH  12  14
ATOM      4  O   UNL     1      -2.841 -10.425  16.664  0.00  0.00    -0.275 OA
ATOM      6  N   UNL     1      -4.365 -12.184  16.489  0.00  0.00    -0.271 N 
ATOM     14  C   UNL     1      -3.277 -11.422  16.087  0.00  0.00    +0.222 C 
ATOM     15  C   UNL     1      -4.886 -13.381  15.794  0.00  0.00    +0.118 C 
ATOM     16  C   UNL     1      -6.095 -13.890  16.585  0.00  0.00    +0.056 C 
ATOM     17  C   UNL     1      -5.163 -11.950  17.627  0.00  0.00    +0.039 A 
ATOM     18  C   UNL     1      -6.169 -12.915  17.713  0.00  0.00    -0.024 A 
ATOM     19  C   UNL     1      -5.062 -10.950  18.583  0.00  0.00    +0.024 A 
ATOM     20  C   UNL     1      -7.091 -12.906  18.748  0.00  0.00    +0.005 A 
ATOM     22  C   UNL     1      -5.987 -10.933  19.632  0.00  0.00    +0.002 A 
ATOM     23  C   UNL     1      -6.996 -11.903  19.714  0.00  0.00    +0.000 A 
ENDBRANCH  12  14
ENDBRANCH   8  12
BRANCH  11  13
ATOM     13  C   UNL     1      -5.802 -11.027  12.294  0.00  0.00    +0.138 C 
BRANCH  13   7
ATOM      5  O   UNL     1      -7.793 -12.505  13.740  0.00  0.00    -0.270 OA
ATOM      7  N   UNL     1      -6.456 -10.624  13.503  0.00  0.00    -0.309 N 
ATOM     21  C   UNL     1      -7.414 -11.407  14.141  0.00  0.00    +0.244 C 
ATOM     32  H   UNL     1      -6.151  -9.750  13.919  0.00  0.00    +0.149 HD
BRANCH  21  24
ATOM     24  C   UNL     1      -8.018 -10.837  15.372  0.00  0.00    +0.037 A 
ATOM     25  C   UNL     1      -9.150 -11.430  15.933  0.00  0.00    +0.013 A 
ATOM     26  C   UNL     1      -7.453  -9.709  15.967  0.00  0.00    +0.013 A 
ATOM     27  C   UNL     1      -9.717 -10.893  17.088  0.00  0.00    +0.001 A 
ATOM     28  C   UNL     1      -8.022  -9.172  17.123  0.00  0.00    +0.001 A 
ATOM     29  C   UNL     1      -9.153  -9.764  17.684  0.00  0.00    +0.000 A 
ENDBRANCH  21  24
ENDBRANCH  13   7
ENDBRANCH  11  13
TORSDOF 7
ENDMDL
MODEL 10
REMARK VINA RESULT:      -6.9      3.583      6.360
REMARK  Name = 40777854
REMARK  7 active torsions:
REMARK  status: ('A' for Active; 'I' for Inactive)
REMARK    1  A    between atoms: O_2  and  C_9
REMARK    2  A    between atoms: O_3  and  C_10
REMARK    3  A    between atoms: N_7  and  C_13
REMARK    4  A    between atoms: C_8  and  C_12
REMARK    5  A    between atoms: C_11  and  C_13
REMARK    6  A    between atoms: C_12  and  C_14
REMARK    7  A    between atoms: C_21  and  C_24
REMARK                            x       y       z     vdW  Elec       q    Type
REMARK                         _______ _______ _______ _____ _____    ______ ____
ROOT
ATOM      1  O   UNL     1      13.422  10.362  16.665  0.00  0.00    -0.366 OA
ATOM      8  C   UNL     1      13.914  11.673  16.306  0.00  0.00    +0.159 C 
ATOM      9  C   UNL     1      14.696  11.499  15.009  0.00  0.00    +0.175 C 
ATOM     10  C   UNL     1      15.184  10.069  15.124  0.00  0.00    +0.176 C 
ATOM     11  C   UNL     1      13.985   9.390  15.766  0.00  0.00    +0.167 C 
ENDROOT
BRANCH   9   2
ATOM      2  O   UNL     1      13.782  11.624  13.920  0.00  0.00    -0.387 OA
ATOM     30  H   UNL     1      13.670  12.573  13.742  0.00  0.00    +0.210 HD
ENDBRANCH   9   2
BRANCH  10   3
ATOM      3  O   UNL     1      15.519   9.490  13.882  0.00  0.00    -0.387 OA
ATOM     31  H   UNL     1      14.821   9.732  13.249  0.00  0.00    +0.210 HD
ENDBRANCH  10   3
BRANCH   8  12
ATOM     12  C   UNL     1      14.773  12.180  17.457  0.00  0.00    +0.130 C 
BRANCH  12  14
ATOM      4  O   UNL     1      13.069  13.387  18.578  0.00  0.00    -0.275 OA
ATOM      6  N   UNL     1      14.135  11.682  19.762  0.00  0.00    -0.271 N 
ATOM     14  C   UNL     1      13.901  12.483  18.653  0.00  0.00    +0.222 C 
ATOM     15  C   UNL     1      15.135  10.597  19.849  0.00  0.00    +0.118 C 
ATOM     16  C   UNL     1      15.036   9.982  21.249  0.00  0.00    +0.056 C 
ATOM     17  C   UNL     1      13.459  11.763  20.997  0.00  0.00    +0.039 A 
ATOM     18  C   UNL     1      13.955  10.798  21.877  0.00  0.00    -0.024 A 
ATOM     19  C   UNL     1      12.445  12.624  21.392  0.00  0.00    +0.024 A 
ATOM     20  C   UNL     1      13.454  10.670  23.163  0.00  0.00    +0.005 A 
ATOM     22  C   UNL     1      11.934  12.502  22.688  0.00  0.00    +0.002 A 
ATOM     23  C   UNL     1      12.434  11.532  23.568  0.00  0.00    +0.000 A 
ENDBRANCH  12  14
ENDBRANCH   8  12
BRANCH  11  13
ATOM     13  C   UNL     1      14.346   8.131  16.534  0.00  0.00    +0.138 C 
BRANCH  13   7
ATOM      5  O   UNL     1      11.723   7.235  17.279  0.00  0.00    -0.270 OA
ATOM      7  N   UNL     1      13.778   8.147  17.850  0.00  0.00    -0.309 N 
ATOM     21  C   UNL     1      12.491   7.690  18.122  0.00  0.00    +0.244 C 
ATOM     32  H   UNL     1      14.380   8.461  18.604  0.00  0.00    +0.149 HD
BRANCH  21  24
ATOM     24  C   UNL     1      12.040   7.799  19.533  0.00  0.00    +0.037 A 
ATOM     25  C   UNL     1      11.237   8.870  19.928  0.00  0.00    +0.013 A 
ATOM     26  C   UNL     1      12.417   6.830  20.463  0.00  0.00    +0.013 A 
ATOM     27  C   UNL     1      10.814   8.973  21.252  0.00  0.00    +0.001 A 
ATOM     28  C   UNL     1      11.993   6.933  21.788  0.00  0.00    +0.001 A 
ATOM     29  C   UNL     1      11.191   8.003  22.183  0.00  0.00    +0.000 A 
ENDBRANCH  21  24
ENDBRANCH  13   7
ENDBRANCH  11  13
TORSDOF 7
ENDMDL
