MODEL 1
REMARK VINA RESULT:      -6.6      0.000      0.000
REMARK  Name = 56774347
REMARK  10 active torsions:
REMARK  status: ('A' for Active; 'I' for Inactive)
REMARK    1  A    between atoms: O_3  and  C_19
REMARK    2  A    between atoms: O_3  and  C_23
REMARK    3  A    between atoms: N_4  and  C_9
REMARK    4  A    between atoms: N_6  and  C_18
REMARK    5  A    between atoms: C_7  and  C_12
REMARK    6  A    between atoms: C_7  and  C_13
REMARK    7  A    between atoms: C_8  and  C_11
REMARK    8  A    between atoms: C_11  and  C_14
REMARK    9  A    between atoms: C_17  and  C_19
REMARK   10  A    between atoms: C_18  and  C_20
REMARK                            x       y       z     vdW  Elec       q    Type
REMARK                         _______ _______ _______ _____ _____    ______ ____
ROOT
ATOM      7  C   UNL     1      -4.433 -11.918  18.387  0.00  0.00    -0.013 C 
ATOM      8  C   UNL     1      -5.306 -10.677  18.666  0.00  0.00    +0.004 C 
ATOM      9  C   UNL     1      -3.831 -11.131  17.203  0.00  0.00    +0.081 C 
ATOM     10  C   UNL     1      -5.142 -10.319  17.175  0.00  0.00    +0.027 C 
ATOM     12  C   UNL     1      -3.484 -12.258  19.515  0.00  0.00    +0.013 C 
ATOM     13  C   UNL     1      -5.179 -13.163  17.943  0.00  0.00    +0.013 C 
ENDROOT
BRANCH   9   4
ATOM      2  O   UNL     1      -2.048 -10.457  15.033  0.00  0.00    -0.253 OA
ATOM      4  N   UNL     1      -3.591 -11.909  15.976  0.00  0.00    -0.296 N 
ATOM      6  N   UNL     1      -2.661 -12.406  13.929  0.00  0.00    -0.295 N 
ATOM     15  C   UNL     1      -2.705 -11.496  14.982  0.00  0.00    +0.300 C 
ATOM     32  H   UNL     1      -4.085 -12.784  15.822  0.00  0.00    +0.151 HD
ATOM     33  H   UNL     1      -3.222 -13.250  13.987  0.00  0.00    +0.151 HD
BRANCH   6  18
ATOM     18  C   UNL     1      -1.822 -12.216  12.770  0.00  0.00    +0.141 C 
BRANCH  18  20
ATOM     20  C   UNL     1      -2.543 -11.495  11.667  0.00  0.00    -0.030 A 
ATOM     21  C   UNL     1      -2.336 -10.129  11.476  0.00  0.00    +0.005 A 
ATOM     22  C   UNL     1      -3.418 -12.191  10.834  0.00  0.00    +0.005 A 
ATOM     24  C   UNL     1      -3.005  -9.459  10.451  0.00  0.00    +0.000 A 
ATOM     25  C   UNL     1      -4.087 -11.522   9.810  0.00  0.00    +0.000 A 
ATOM     26  C   UNL     1      -3.881 -10.155   9.619  0.00  0.00    +0.000 A 
ENDBRANCH  18  20
ENDBRANCH   6  18
ENDBRANCH   9   4
BRANCH   8  11
ATOM     11  C   UNL     1      -6.730 -10.918  19.109  0.00  0.00    +0.063 C 
BRANCH  11  14
ATOM      1  O   UNL     1      -8.848  -9.232  16.722  0.00  0.00    -0.356 OA
ATOM      5  N   UNL     1      -7.935  -9.236  17.770  0.00  0.00    -0.083 NA
ATOM     14  C   UNL     1      -7.694 -10.527  18.014  0.00  0.00    +0.084 A 
ATOM     16  C   UNL     1      -8.417 -11.376  17.160  0.00  0.00    +0.074 A 
ATOM     17  C   UNL     1      -9.127 -10.512  16.366  0.00  0.00    +0.175 A 
BRANCH  17  19
ATOM     19  C   UNL     1     -10.080 -10.694  15.265  0.00  0.00    +0.306 C 
BRANCH  19   3
ATOM      3  O   UNL     1      -9.489 -11.472  14.221  0.00  0.00    -0.484 OA
BRANCH   3  23
ATOM     23  C   UNL     1      -8.326 -10.991  13.687  0.00  0.00    +0.121 A 
ATOM     27  C   UNL     1      -8.311  -9.748  13.056  0.00  0.00    +0.045 A 
ATOM     28  C   UNL     1      -7.156 -11.743  13.775  0.00  0.00    +0.045 A 
ATOM     29  C   UNL     1      -7.125  -9.256  12.511  0.00  0.00    +0.004 A 
ATOM     30  C   UNL     1      -5.969 -11.252  13.230  0.00  0.00    +0.004 A 
ATOM     31  C   UNL     1      -5.953 -10.009  12.599  0.00  0.00    +0.000 A 
ENDBRANCH   3  23
ENDBRANCH  19   3
ENDBRANCH  17  19
ENDBRANCH  11  14
ENDBRANCH   8  11
TORSDOF 8
ENDMDL
MODEL 2
REMARK VINA RESULT:      -6.4      4.350      8.489
REMARK  Name = 56774347
REMARK  10 active torsions:
REMARK  status: ('A' for Active; 'I' for Inactive)
REMARK    1  A    between atoms: O_3  and  C_19
REMARK    2  A    between atoms: O_3  and  C_23
REMARK    3  A    between atoms: N_4  and  C_9
REMARK    4  A    between atoms: N_6  and  C_18
REMARK    5  A    between atoms: C_7  and  C_12
REMARK    6  A    between atoms: C_7  and  C_13
REMARK    7  A    between atoms: C_8  and  C_11
REMARK    8  A    between atoms: C_11  and  C_14
REMARK    9  A    between atoms: C_17  and  C_19
REMARK   10  A    between atoms: C_18  and  C_20
REMARK                            x       y       z     vdW  Elec       q    Type
REMARK                         _______ _______ _______ _____ _____    ______ ____
ROOT
ATOM      7  C   UNL     1      -5.656  -9.526  10.385  0.00  0.00    -0.013 C 
ATOM      8  C   UNL     1      -4.435 -10.234   9.762  0.00  0.00    +0.004 C 
ATOM      9  C   UNL     1      -6.169  -9.312   8.946  0.00  0.00    +0.081 C 
ATOM     10  C   UNL     1      -4.699  -9.404   8.489  0.00  0.00    +0.027 C 
ATOM     12  C   UNL     1      -6.493 -10.426  11.267  0.00  0.00    +0.013 C 
ATOM     13  C   UNL     1      -5.366  -8.220  11.104  0.00  0.00    +0.013 C 
ENDROOT
BRANCH   9   4
ATOM      2  O   UNL     1      -8.870  -8.817   8.049  0.00  0.00    -0.253 OA
ATOM      4  N   UNL     1      -6.791  -8.004   8.678  0.00  0.00    -0.296 N 
ATOM      6  N   UNL     1      -8.453  -6.533   8.066  0.00  0.00    -0.295 N 
ATOM     15  C   UNL     1      -8.110  -7.870   8.246  0.00  0.00    +0.300 C 
ATOM     32  H   UNL     1      -6.254  -7.150   8.800  0.00  0.00    +0.151 HD
ATOM     33  H   UNL     1      -7.764  -5.817   8.277  0.00  0.00    +0.151 HD
BRANCH   6  18
ATOM     18  C   UNL     1      -9.763  -6.117   7.622  0.00  0.00    +0.141 C 
BRANCH  18  20
ATOM     20  C   UNL     1     -10.563  -5.500   8.732  0.00  0.00    -0.030 A 
ATOM     21  C   UNL     1     -10.549  -4.117   8.916  0.00  0.00    +0.005 A 
ATOM     22  C   UNL     1     -11.320  -6.308   9.580  0.00  0.00    +0.005 A 
ATOM     24  C   UNL     1     -11.293  -3.543   9.947  0.00  0.00    +0.000 A 
ATOM     25  C   UNL     1     -12.062  -5.735  10.611  0.00  0.00    +0.000 A 
ATOM     26  C   UNL     1     -12.049  -4.351  10.796  0.00  0.00    +0.000 A 
ENDBRANCH  18  20
ENDBRANCH   6  18
ENDBRANCH   9   4
BRANCH   8  11
ATOM     11  C   UNL     1      -3.091  -9.995  10.409  0.00  0.00    +0.063 C 
BRANCH  11  14
ATOM      1  O   UNL     1      -3.045 -12.505  13.002  0.00  0.00    -0.356 OA
ATOM      5  N   UNL     1      -3.248 -12.095  11.689  0.00  0.00    -0.083 NA
ATOM     14  C   UNL     1      -2.976 -10.787  11.690  0.00  0.00    +0.084 A 
ATOM     16  C   UNL     1      -2.600 -10.320  12.960  0.00  0.00    +0.074 A 
ATOM     17  C   UNL     1      -2.659 -11.439  13.749  0.00  0.00    +0.175 A 
BRANCH  17  19
ATOM     19  C   UNL     1      -2.400 -11.695  15.171  0.00  0.00    +0.306 C 
BRANCH  19   3
ATOM      3  O   UNL     1      -2.770 -10.557  15.955  0.00  0.00    -0.484 OA
BRANCH   3  23
ATOM     23  C   UNL     1      -3.953 -10.645  16.635  0.00  0.00    +0.121 A 
ATOM     27  C   UNL     1      -4.050 -11.459  17.763  0.00  0.00    +0.045 A 
ATOM     28  C   UNL     1      -5.061  -9.919  16.201  0.00  0.00    +0.045 A 
ATOM     29  C   UNL     1      -5.256 -11.548  18.458  0.00  0.00    +0.004 A 
ATOM     30  C   UNL     1      -6.268 -10.007  16.895  0.00  0.00    +0.004 A 
ATOM     31  C   UNL     1      -6.366 -10.822  18.023  0.00  0.00    +0.000 A 
ENDBRANCH   3  23
ENDBRANCH  19   3
ENDBRANCH  17  19
ENDBRANCH  11  14
ENDBRANCH   8  11
TORSDOF 8
ENDMDL
MODEL 3
REMARK VINA RESULT:      -6.3      2.816      8.058
REMARK  Name = 56774347
REMARK  10 active torsions:
REMARK  status: ('A' for Active; 'I' for Inactive)
REMARK    1  A    between atoms: O_3  and  C_19
REMARK    2  A    between atoms: O_3  and  C_23
REMARK    3  A    between atoms: N_4  and  C_9
REMARK    4  A    between atoms: N_6  and  C_18
REMARK    5  A    between atoms: C_7  and  C_12
REMARK    6  A    between atoms: C_7  and  C_13
REMARK    7  A    between atoms: C_8  and  C_11
REMARK    8  A    between atoms: C_11  and  C_14
REMARK    9  A    between atoms: C_17  and  C_19
REMARK   10  A    between atoms: C_18  and  C_20
REMARK                            x       y       z     vdW  Elec       q    Type
REMARK                         _______ _______ _______ _____ _____    ______ ____
ROOT
ATOM      7  C   UNL     1      -5.820 -11.621  17.840  0.00  0.00    -0.013 C 
ATOM      8  C   UNL     1      -4.966 -11.138  16.649  0.00  0.00    +0.004 C 
ATOM      9  C   UNL     1      -7.020 -10.928  17.161  0.00  0.00    +0.081 C 
ATOM     10  C   UNL     1      -5.997 -10.005  16.467  0.00  0.00    +0.027 C 
ATOM     12  C   UNL     1      -5.898 -13.127  17.959  0.00  0.00    +0.013 C 
ATOM     13  C   UNL     1      -5.478 -11.011  19.188  0.00  0.00    +0.013 C 
ENDROOT
BRANCH   9   4
ATOM      2  O   UNL     1      -9.210 -12.063  18.664  0.00  0.00    -0.253 OA
ATOM      4  N   UNL     1      -7.941 -10.216  18.063  0.00  0.00    -0.296 N 
ATOM      6  N   UNL     1      -9.696  -9.964  19.531  0.00  0.00    -0.295 N 
ATOM     15  C   UNL     1      -8.973 -10.858  18.747  0.00  0.00    +0.300 C 
ATOM     32  H   UNL     1      -7.845  -9.215  18.203  0.00  0.00    +0.151 HD
ATOM     33  H   UNL     1      -9.411  -8.990  19.555  0.00  0.00    +0.151 HD
BRANCH   6  18
ATOM     18  C   UNL     1     -10.820 -10.372  20.342  0.00  0.00    +0.141 C 
BRANCH  18  20
ATOM     20  C   UNL     1     -12.131 -10.006  19.709  0.00  0.00    -0.030 A 
ATOM     21  C   UNL     1     -13.278  -9.894  20.495  0.00  0.00    +0.005 A 
ATOM     22  C   UNL     1     -12.203  -9.777  18.335  0.00  0.00    +0.005 A 
ATOM     24  C   UNL     1     -14.496  -9.554  19.907  0.00  0.00    +0.000 A 
ATOM     25  C   UNL     1     -13.420  -9.437  17.747  0.00  0.00    +0.000 A 
ATOM     26  C   UNL     1     -14.568  -9.326  18.533  0.00  0.00    +0.000 A 
ENDBRANCH  18  20
ENDBRANCH   6  18
ENDBRANCH   9   4
BRANCH   8  11
ATOM     11  C   UNL     1      -3.559 -10.675  16.949  0.00  0.00    +0.063 C 
BRANCH  11  14
ATOM      1  O   UNL     1      -1.125  -9.972  14.379  0.00  0.00    -0.356 OA
ATOM      5  N   UNL     1      -1.548  -9.985  15.703  0.00  0.00    -0.083 NA
ATOM     14  C   UNL     1      -2.778 -10.506  15.668  0.00  0.00    +0.084 A 
ATOM     16  C   UNL     1      -3.180 -10.838  14.363  0.00  0.00    +0.074 A 
ATOM     17  C   UNL     1      -2.105 -10.484  13.590  0.00  0.00    +0.175 A 
BRANCH  17  19
ATOM     19  C   UNL     1      -1.824 -10.546  12.151  0.00  0.00    +0.306 C 
BRANCH  19   3
ATOM      3  O   UNL     1      -2.778 -11.385  11.495  0.00  0.00    -0.484 OA
BRANCH   3  23
ATOM     23  C   UNL     1      -3.462 -10.827  10.451  0.00  0.00    +0.121 A 
ATOM     27  C   UNL     1      -3.451  -9.444  10.269  0.00  0.00    +0.045 A 
ATOM     28  C   UNL     1      -4.170 -11.641   9.567  0.00  0.00    +0.045 A 
ATOM     29  C   UNL     1      -4.148  -8.874   9.204  0.00  0.00    +0.004 A 
ATOM     30  C   UNL     1      -4.867 -11.072   8.502  0.00  0.00    +0.004 A 
ATOM     31  C   UNL     1      -4.857  -9.689   8.319  0.00  0.00    +0.000 A 
ENDBRANCH   3  23
ENDBRANCH  19   3
ENDBRANCH  17  19
ENDBRANCH  11  14
ENDBRANCH   8  11
TORSDOF 8
ENDMDL
MODEL 4
REMARK VINA RESULT:      -6.2      2.510      3.596
REMARK  Name = 56774347
REMARK  10 active torsions:
REMARK  status: ('A' for Active; 'I' for Inactive)
REMARK    1  A    between atoms: O_3  and  C_19
REMARK    2  A    between atoms: O_3  and  C_23
REMARK    3  A    between atoms: N_4  and  C_9
REMARK    4  A    between atoms: N_6  and  C_18
REMARK    5  A    between atoms: C_7  and  C_12
REMARK    6  A    between atoms: C_7  and  C_13
REMARK    7  A    between atoms: C_8  and  C_11
REMARK    8  A    between atoms: C_11  and  C_14
REMARK    9  A    between atoms: C_17  and  C_19
REMARK   10  A    between atoms: C_18  and  C_20
REMARK                            x       y       z     vdW  Elec       q    Type
REMARK                         _______ _______ _______ _____ _____    ______ ____
ROOT
ATOM      7  C   UNL     1      -4.628 -11.831  18.349  0.00  0.00    -0.013 C 
ATOM      8  C   UNL     1      -5.504 -10.579  18.556  0.00  0.00    +0.004 C 
ATOM      9  C   UNL     1      -3.955 -11.073  17.185  0.00  0.00    +0.081 C 
ATOM     10  C   UNL     1      -5.255 -10.252  17.069  0.00  0.00    +0.027 C 
ATOM     12  C   UNL     1      -3.745 -12.156  19.534  0.00  0.00    +0.013 C 
ATOM     13  C   UNL     1      -5.359 -13.080  17.889  0.00  0.00    +0.013 C 
ENDROOT
BRANCH   9   4
ATOM      2  O   UNL     1      -2.201 -10.363  15.003  0.00  0.00    -0.253 OA
ATOM      4  N   UNL     1      -3.654 -11.877  15.988  0.00  0.00    -0.296 N 
ATOM      6  N   UNL     1      -2.676 -12.386  13.967  0.00  0.00    -0.295 N 
ATOM     15  C   UNL     1      -2.788 -11.443  14.986  0.00  0.00    +0.300 C 
ATOM     32  H   UNL     1      -4.090 -12.787  15.863  0.00  0.00    +0.151 HD
ATOM     33  H   UNL     1      -3.182 -13.261  14.052  0.00  0.00    +0.151 HD
BRANCH   6  18
ATOM     18  C   UNL     1      -1.841 -12.183  12.807  0.00  0.00    +0.141 C 
BRANCH  18  20
ATOM     20  C   UNL     1      -2.530 -11.361  11.756  0.00  0.00    -0.030 A 
ATOM     21  C   UNL     1      -2.063 -10.082  11.453  0.00  0.00    +0.005 A 
ATOM     22  C   UNL     1      -3.636 -11.877  11.080  0.00  0.00    +0.005 A 
ATOM     24  C   UNL     1      -2.703  -9.319  10.476  0.00  0.00    +0.000 A 
ATOM     25  C   UNL     1      -4.276 -11.115  10.104  0.00  0.00    +0.000 A 
ATOM     26  C   UNL     1      -3.810  -9.835   9.802  0.00  0.00    +0.000 A 
ENDBRANCH  18  20
ENDBRANCH   6  18
ENDBRANCH   9   4
BRANCH   8  11
ATOM     11  C   UNL     1      -6.953 -10.801  18.924  0.00  0.00    +0.063 C 
BRANCH  11  14
ATOM      1  O   UNL     1      -9.181 -10.447  16.107  0.00  0.00    -0.356 OA
ATOM      5  N   UNL     1      -8.430 -11.210  16.994  0.00  0.00    -0.083 NA
ATOM     14  C   UNL     1      -7.856 -10.323  17.812  0.00  0.00    +0.084 A 
ATOM     16  C   UNL     1      -8.205  -9.000  17.494  0.00  0.00    +0.074 A 
ATOM     17  C   UNL     1      -9.040  -9.132  16.416  0.00  0.00    +0.175 A 
BRANCH  17  19
ATOM     19  C   UNL     1      -9.771  -8.179  15.573  0.00  0.00    +0.306 C 
BRANCH  19   3
ATOM      3  O   UNL     1     -10.661  -7.394  16.371  0.00  0.00    -0.484 OA
BRANCH   3  23
ATOM     23  C   UNL     1     -11.781  -6.920  15.746  0.00  0.00    +0.121 A 
ATOM     27  C   UNL     1     -13.029  -7.469  16.040  0.00  0.00    +0.045 A 
ATOM     28  C   UNL     1     -11.676  -5.887  14.815  0.00  0.00    +0.045 A 
ATOM     29  C   UNL     1     -14.172  -6.986  15.404  0.00  0.00    +0.004 A 
ATOM     30  C   UNL     1     -12.819  -5.403  14.178  0.00  0.00    +0.004 A 
ATOM     31  C   UNL     1     -14.067  -5.952  14.472  0.00  0.00    +0.000 A 
ENDBRANCH   3  23
ENDBRANCH  19   3
ENDBRANCH  17  19
ENDBRANCH  11  14
ENDBRANCH   8  11
TORSDOF 8
ENDMDL
MODEL 5
REMARK VINA RESULT:      -6.1     22.462     26.152
REMARK  Name = 56774347
REMARK  10 active torsions:
REMARK  status: ('A' for Active; 'I' for Inactive)
REMARK    1  A    between atoms: O_3  and  C_19
REMARK    2  A    between atoms: O_3  and  C_23
REMARK    3  A    between atoms: N_4  and  C_9
REMARK    4  A    between atoms: N_6  and  C_18
REMARK    5  A    between atoms: C_7  and  C_12
REMARK    6  A    between atoms: C_7  and  C_13
REMARK    7  A    between atoms: C_8  and  C_11
REMARK    8  A    between atoms: C_11  and  C_14
REMARK    9  A    between atoms: C_17  and  C_19
REMARK   10  A    between atoms: C_18  and  C_20
REMARK                            x       y       z     vdW  Elec       q    Type
REMARK                         _______ _______ _______ _____ _____    ______ ____
ROOT
ATOM      7  C   UNL     1       4.660  10.405   0.781  0.00  0.00    -0.013 C 
ATOM      8  C   UNL     1       5.867  10.533   1.733  0.00  0.00    +0.004 C 
ATOM      9  C   UNL     1       3.774  10.828   1.972  0.00  0.00    +0.081 C 
ATOM     10  C   UNL     1       4.882  10.279   2.893  0.00  0.00    +0.027 C 
ATOM     12  C   UNL     1       4.708  11.362  -0.389  0.00  0.00    +0.013 C 
ATOM     13  C   UNL     1       4.351   9.002   0.292  0.00  0.00    +0.013 C 
ENDROOT
BRANCH   9   4
ATOM      2  O   UNL     1       1.147  12.000   2.238  0.00  0.00    -0.253 OA
ATOM      4  N   UNL     1       2.492  10.115   2.099  0.00  0.00    -0.296 N 
ATOM      6  N   UNL     1       0.213   9.875   2.327  0.00  0.00    -0.295 N 
ATOM     15  C   UNL     1       1.270  10.776   2.223  0.00  0.00    +0.300 C 
ATOM     32  H   UNL     1       2.472   9.099   2.105  0.00  0.00    +0.151 HD
ATOM     33  H   UNL     1       0.410   8.881   2.279  0.00  0.00    +0.151 HD
BRANCH   6  18
ATOM     18  C   UNL     1      -1.160  10.299   2.466  0.00  0.00    +0.141 C 
BRANCH  18  20
ATOM     20  C   UNL     1      -1.829   9.656   3.647  0.00  0.00    -0.030 A 
ATOM     21  C   UNL     1      -1.102   9.409   4.811  0.00  0.00    +0.005 A 
ATOM     22  C   UNL     1      -3.178   9.306   3.580  0.00  0.00    +0.005 A 
ATOM     24  C   UNL     1      -1.723   8.812   5.908  0.00  0.00    +0.000 A 
ATOM     25  C   UNL     1      -3.799   8.709   4.676  0.00  0.00    +0.000 A 
ATOM     26  C   UNL     1      -3.071   8.461   5.841  0.00  0.00    +0.000 A 
ENDBRANCH  18  20
ENDBRANCH   6  18
ENDBRANCH   9   4
BRANCH   8  11
ATOM     11  C   UNL     1       6.967   9.507   1.598  0.00  0.00    +0.063 C 
BRANCH  11  14
ATOM      1  O   UNL     1       9.138  10.134   4.412  0.00  0.00    -0.356 OA
ATOM      5  N   UNL     1       8.513  10.516   3.231  0.00  0.00    -0.083 NA
ATOM     14  C   UNL     1       7.793   9.453   2.860  0.00  0.00    +0.084 A 
ATOM     16  C   UNL     1       7.922   8.382   3.760  0.00  0.00    +0.074 A 
ATOM     17  C   UNL     1       8.778   8.861   4.718  0.00  0.00    +0.175 A 
BRANCH  17  19
ATOM     19  C   UNL     1       9.350   8.294   5.945  0.00  0.00    +0.306 C 
BRANCH  19   3
ATOM      3  O   UNL     1       9.606   6.898   5.773  0.00  0.00    -0.484 OA
BRANCH   3  23
ATOM     23  C   UNL     1       9.536   6.123   6.898  0.00  0.00    +0.121 A 
ATOM     27  C   UNL     1       9.130   6.686   8.108  0.00  0.00    +0.045 A 
ATOM     28  C   UNL     1       9.870   4.771   6.835  0.00  0.00    +0.045 A 
ATOM     29  C   UNL     1       9.058   5.897   9.255  0.00  0.00    +0.004 A 
ATOM     30  C   UNL     1       9.798   3.981   7.982  0.00  0.00    +0.004 A 
ATOM     31  C   UNL     1       9.392   4.543   9.192  0.00  0.00    +0.000 A 
ENDBRANCH   3  23
ENDBRANCH  19   3
ENDBRANCH  17  19
ENDBRANCH  11  14
ENDBRANCH   8  11
TORSDOF 8
ENDMDL
MODEL 6
REMARK VINA RESULT:      -6.1      4.148      7.416
REMARK  Name = 56774347
REMARK  10 active torsions:
REMARK  status: ('A' for Active; 'I' for Inactive)
REMARK    1  A    between atoms: O_3  and  C_19
REMARK    2  A    between atoms: O_3  and  C_23
REMARK    3  A    between atoms: N_4  and  C_9
REMARK    4  A    between atoms: N_6  and  C_18
REMARK    5  A    between atoms: C_7  and  C_12
REMARK    6  A    between atoms: C_7  and  C_13
REMARK    7  A    between atoms: C_8  and  C_11
REMARK    8  A    between atoms: C_11  and  C_14
REMARK    9  A    between atoms: C_17  and  C_19
REMARK   10  A    between atoms: C_18  and  C_20
REMARK                            x       y       z     vdW  Elec       q    Type
REMARK                         _______ _______ _______ _____ _____    ______ ____
ROOT
ATOM      7  C   UNL     1      -4.275  -9.934  10.696  0.00  0.00    -0.013 C 
ATOM      8  C   UNL     1      -3.642 -10.974  11.644  0.00  0.00    +0.004 C 
ATOM      9  C   UNL     1      -4.688 -11.119   9.798  0.00  0.00    +0.081 C 
ATOM     10  C   UNL     1      -3.511 -11.900  10.418  0.00  0.00    +0.027 C 
ATOM     12  C   UNL     1      -5.404  -9.149  11.326  0.00  0.00    +0.013 C 
ATOM     13  C   UNL     1      -3.305  -8.989  10.010  0.00  0.00    +0.013 C 
ENDROOT
BRANCH   9   4
ATOM      2  O   UNL     1      -6.242 -12.347   7.695  0.00  0.00    -0.253 OA
ATOM      4  N   UNL     1      -4.552 -10.898   8.348  0.00  0.00    -0.296 N 
ATOM      6  N   UNL     1      -5.027 -11.162   6.111  0.00  0.00    -0.295 N 
ATOM     15  C   UNL     1      -5.356 -11.543   7.408  0.00  0.00    +0.300 C 
ATOM     32  H   UNL     1      -3.847 -10.259   7.994  0.00  0.00    +0.151 HD
ATOM     33  H   UNL     1      -4.295 -10.472   5.973  0.00  0.00    +0.151 HD
BRANCH   6  18
ATOM     18  C   UNL     1      -5.708 -11.684   4.949  0.00  0.00    +0.141 C 
BRANCH  18  20
ATOM     20  C   UNL     1      -4.746 -12.234   3.935  0.00  0.00    -0.030 A 
ATOM     21  C   UNL     1      -5.216 -12.680   2.699  0.00  0.00    +0.005 A 
ATOM     22  C   UNL     1      -3.384 -12.300   4.228  0.00  0.00    +0.005 A 
ATOM     24  C   UNL     1      -4.323 -13.191   1.757  0.00  0.00    +0.000 A 
ATOM     25  C   UNL     1      -2.492 -12.811   3.286  0.00  0.00    +0.000 A 
ATOM     26  C   UNL     1      -2.962 -13.257   2.050  0.00  0.00    +0.000 A 
ENDBRANCH  18  20
ENDBRANCH   6  18
ENDBRANCH   9   4
BRANCH   8  11
ATOM     11  C   UNL     1      -2.334 -10.603  12.303  0.00  0.00    +0.063 C 
BRANCH  11  14
ATOM      1  O   UNL     1      -1.944 -10.324  15.880  0.00  0.00    -0.356 OA
ATOM      5  N   UNL     1      -1.492 -10.157  14.576  0.00  0.00    -0.083 NA
ATOM     14  C   UNL     1      -2.478 -10.627  13.806  0.00  0.00    +0.084 A 
ATOM     16  C   UNL     1      -3.567 -11.097  14.560  0.00  0.00    +0.074 A 
ATOM     17  C   UNL     1      -3.181 -10.884  15.858  0.00  0.00    +0.175 A 
BRANCH  17  19
ATOM     19  C   UNL     1      -3.812 -11.131  17.160  0.00  0.00    +0.306 C 
BRANCH  19   3
ATOM      3  O   UNL     1      -4.846 -10.172  17.400  0.00  0.00    -0.484 OA
BRANCH   3  23
ATOM     23  C   UNL     1      -5.959 -10.627  18.049  0.00  0.00    +0.121 A 
ATOM     27  C   UNL     1      -7.227 -10.237  17.616  0.00  0.00    +0.045 A 
ATOM     28  C   UNL     1      -5.828 -11.481  19.144  0.00  0.00    +0.045 A 
ATOM     29  C   UNL     1      -8.364 -10.701  18.278  0.00  0.00    +0.004 A 
ATOM     30  C   UNL     1      -6.964 -11.946  19.806  0.00  0.00    +0.004 A 
ATOM     31  C   UNL     1      -8.232 -11.556  19.373  0.00  0.00    +0.000 A 
ENDBRANCH   3  23
ENDBRANCH  19   3
ENDBRANCH  17  19
ENDBRANCH  11  14
ENDBRANCH   8  11
TORSDOF 8
ENDMDL
MODEL 7
REMARK VINA RESULT:      -6.1     28.688     30.753
REMARK  Name = 56774347
REMARK  10 active torsions:
REMARK  status: ('A' for Active; 'I' for Inactive)
REMARK    1  A    between atoms: O_3  and  C_19
REMARK    2  A    between atoms: O_3  and  C_23
REMARK    3  A    between atoms: N_4  and  C_9
REMARK    4  A    between atoms: N_6  and  C_18
REMARK    5  A    between atoms: C_7  and  C_12
REMARK    6  A    between atoms: C_7  and  C_13
REMARK    7  A    between atoms: C_8  and  C_11
REMARK    8  A    between atoms: C_11  and  C_14
REMARK    9  A    between atoms: C_17  and  C_19
REMARK   10  A    between atoms: C_18  and  C_20
REMARK                            x       y       z     vdW  Elec       q    Type
REMARK                         _______ _______ _______ _____ _____    ______ ____
ROOT
ATOM      7  C   UNL     1      20.983   6.320  21.159  0.00  0.00    -0.013 C 
ATOM      8  C   UNL     1      19.638   6.173  20.417  0.00  0.00    +0.004 C 
ATOM      9  C   UNL     1      21.447   5.054  20.408  0.00  0.00    +0.081 C 
ATOM     10  C   UNL     1      19.957   4.669  20.293  0.00  0.00    +0.027 C 
ATOM     12  C   UNL     1      21.720   7.599  20.829  0.00  0.00    +0.013 C 
ATOM     13  C   UNL     1      20.932   6.123  22.663  0.00  0.00    +0.013 C 
ENDROOT
BRANCH   9   4
ATOM      2  O   UNL     1      24.138   4.159  19.860  0.00  0.00    -0.253 OA
ATOM      4  N   UNL     1      22.244   4.100  21.197  0.00  0.00    -0.296 N 
ATOM      6  N   UNL     1      24.073   2.819  21.755  0.00  0.00    -0.295 N 
ATOM     15  C   UNL     1      23.542   3.731  20.847  0.00  0.00    +0.300 C 
ATOM     32  H   UNL     1      21.850   3.675  22.033  0.00  0.00    +0.151 HD
ATOM     33  H   UNL     1      23.514   2.541  22.555  0.00  0.00    +0.151 HD
BRANCH   6  18
ATOM     18  C   UNL     1      25.405   2.274  21.624  0.00  0.00    +0.141 C 
BRANCH  18  20
ATOM     20  C   UNL     1      25.674   1.199  22.636  0.00  0.00    -0.030 A 
ATOM     21  C   UNL     1      25.963  -0.100  22.215  0.00  0.00    +0.005 A 
ATOM     22  C   UNL     1      25.637   1.497  23.998  0.00  0.00    +0.005 A 
ATOM     24  C   UNL     1      26.214  -1.098  23.156  0.00  0.00    +0.000 A 
ATOM     25  C   UNL     1      25.887   0.499  24.939  0.00  0.00    +0.000 A 
ATOM     26  C   UNL     1      26.175  -0.800  24.517  0.00  0.00    +0.000 A 
ENDBRANCH  18  20
ENDBRANCH   6  18
ENDBRANCH   9   4
BRANCH   8  11
ATOM     11  C   UNL     1      18.382   6.494  21.191  0.00  0.00    +0.063 C 
BRANCH  11  14
ATOM      1  O   UNL     1      15.988   6.092  18.521  0.00  0.00    -0.356 OA
ATOM      5  N   UNL     1      17.223   5.854  19.112  0.00  0.00    -0.083 NA
ATOM     14  C   UNL     1      17.188   6.526  20.267  0.00  0.00    +0.084 A 
ATOM     16  C   UNL     1      15.969   7.198  20.456  0.00  0.00    +0.074 A 
ATOM     17  C   UNL     1      15.250   6.893  19.331  0.00  0.00    +0.175 A 
BRANCH  17  19
ATOM     19  C   UNL     1      13.906   7.246  18.856  0.00  0.00    +0.306 C 
BRANCH  19   3
ATOM      3  O   UNL     1      12.912   6.607  19.661  0.00  0.00    -0.484 OA
BRANCH   3  23
ATOM     23  C   UNL     1      12.170   7.421  20.471  0.00  0.00    +0.121 A 
ATOM     27  C   UNL     1      11.266   6.867  21.377  0.00  0.00    +0.045 A 
ATOM     28  C   UNL     1      12.317   8.806  20.392  0.00  0.00    +0.045 A 
ATOM     29  C   UNL     1      10.508   7.697  22.204  0.00  0.00    +0.004 A 
ATOM     30  C   UNL     1      11.561   9.636  21.218  0.00  0.00    +0.004 A 
ATOM     31  C   UNL     1      10.656   9.082  22.124  0.00  0.00    +0.000 A 
ENDBRANCH   3  23
ENDBRANCH  19   3
ENDBRANCH  17  19
ENDBRANCH  11  14
ENDBRANCH   8  11
TORSDOF 8
ENDMDL
MODEL 8
REMARK VINA RESULT:      -6.1      3.312      8.637
REMARK  Name = 56774347
REMARK  10 active torsions:
REMARK  status: ('A' for Active; 'I' for Inactive)
REMARK    1  A    between atoms: O_3  and  C_19
REMARK    2  A    between atoms: O_3  and  C_23
REMARK    3  A    between atoms: N_4  and  C_9
REMARK    4  A    between atoms: N_6  and  C_18
REMARK    5  A    between atoms: C_7  and  C_12
REMARK    6  A    between atoms: C_7  and  C_13
REMARK    7  A    between atoms: C_8  and  C_11
REMARK    8  A    between atoms: C_11  and  C_14
REMARK    9  A    between atoms: C_17  and  C_19
REMARK   10  A    between atoms: C_18  and  C_20
REMARK                            x       y       z     vdW  Elec       q    Type
REMARK                         _______ _______ _______ _____ _____    ______ ____
ROOT
ATOM      7  C   UNL     1      -6.454 -11.623  18.008  0.00  0.00    -0.013 C 
ATOM      8  C   UNL     1      -5.859 -10.696  16.928  0.00  0.00    +0.004 C 
ATOM      9  C   UNL     1      -7.803 -10.915  17.764  0.00  0.00    +0.081 C 
ATOM     10  C   UNL     1      -6.989  -9.702  17.268  0.00  0.00    +0.027 C 
ATOM     12  C   UNL     1      -6.395 -13.091  17.645  0.00  0.00    +0.013 C 
ATOM     13  C   UNL     1      -5.930 -11.416  19.417  0.00  0.00    +0.013 C 
ENDROOT
BRANCH   9   4
ATOM      2  O   UNL     1     -10.644 -10.409  17.887  0.00  0.00    -0.253 OA
ATOM      4  N   UNL     1      -8.605 -10.636  18.967  0.00  0.00    -0.296 N 
ATOM      6  N   UNL     1     -10.497 -10.167  20.191  0.00  0.00    -0.295 N 
ATOM     15  C   UNL     1      -9.979 -10.404  18.921  0.00  0.00    +0.300 C 
ATOM     32  H   UNL     1      -8.158 -10.600  19.880  0.00  0.00    +0.151 HD
ATOM     33  H   UNL     1      -9.873 -10.207  20.991  0.00  0.00    +0.151 HD
BRANCH   6  18
ATOM     18  C   UNL     1     -11.897  -9.898  20.424  0.00  0.00    +0.141 C 
BRANCH  18  20
ATOM     20  C   UNL     1     -12.647 -11.134  20.828  0.00  0.00    -0.030 A 
ATOM     21  C   UNL     1     -13.973 -11.038  21.252  0.00  0.00    +0.005 A 
ATOM     22  C   UNL     1     -12.019 -12.379  20.780  0.00  0.00    +0.005 A 
ATOM     24  C   UNL     1     -14.669 -12.187  21.627  0.00  0.00    +0.000 A 
ATOM     25  C   UNL     1     -12.715 -13.527  21.155  0.00  0.00    +0.000 A 
ATOM     26  C   UNL     1     -14.041 -13.431  21.580  0.00  0.00    +0.000 A 
ENDBRANCH  18  20
ENDBRANCH   6  18
ENDBRANCH   9   4
BRANCH   8  11
ATOM     11  C   UNL     1      -4.461 -10.172  17.159  0.00  0.00    +0.063 C 
BRANCH  11  14
ATOM      1  O   UNL     1      -1.637 -11.367  15.256  0.00  0.00    -0.356 OA
ATOM      5  N   UNL     1      -2.208 -10.818  16.399  0.00  0.00    -0.083 NA
ATOM     14  C   UNL     1      -3.513 -10.732  16.126  0.00  0.00    +0.084 A 
ATOM     16  C   UNL     1      -3.822 -11.207  14.840  0.00  0.00    +0.074 A 
ATOM     17  C   UNL     1      -2.609 -11.595  14.335  0.00  0.00    +0.175 A 
BRANCH  17  19
ATOM     19  C   UNL     1      -2.178 -12.178  13.059  0.00  0.00    +0.306 C 
BRANCH  19   3
ATOM      3  O   UNL     1      -1.748 -11.148  12.164  0.00  0.00    -0.484 OA
BRANCH   3  23
ATOM     23  C   UNL     1      -2.625 -10.794  11.177  0.00  0.00    +0.121 A 
ATOM     27  C   UNL     1      -2.664  -9.478  10.718  0.00  0.00    +0.045 A 
ATOM     28  C   UNL     1      -3.480 -11.750  10.628  0.00  0.00    +0.045 A 
ATOM     29  C   UNL     1      -3.559  -9.116   9.711  0.00  0.00    +0.004 A 
ATOM     30  C   UNL     1      -4.374 -11.389   9.621  0.00  0.00    +0.004 A 
ATOM     31  C   UNL     1      -4.414 -10.072   9.162  0.00  0.00    +0.000 A 
ENDBRANCH   3  23
ENDBRANCH  19   3
ENDBRANCH  17  19
ENDBRANCH  11  14
ENDBRANCH   8  11
TORSDOF 8
ENDMDL
MODEL 9
REMARK VINA RESULT:      -6.0      4.824      8.297
REMARK  Name = 56774347
REMARK  10 active torsions:
REMARK  status: ('A' for Active; 'I' for Inactive)
REMARK    1  A    between atoms: O_3  and  C_19
REMARK    2  A    between atoms: O_3  and  C_23
REMARK    3  A    between atoms: N_4  and  C_9
REMARK    4  A    between atoms: N_6  and  C_18
REMARK    5  A    between atoms: C_7  and  C_12
REMARK    6  A    between atoms: C_7  and  C_13
REMARK    7  A    between atoms: C_8  and  C_11
REMARK    8  A    between atoms: C_11  and  C_14
REMARK    9  A    between atoms: C_17  and  C_19
REMARK   10  A    between atoms: C_18  and  C_20
REMARK                            x       y       z     vdW  Elec       q    Type
REMARK                         _______ _______ _______ _____ _____    ______ ____
ROOT
ATOM      7  C   UNL     1      -5.012  -9.632  10.253  0.00  0.00    -0.013 C 
ATOM      8  C   UNL     1      -4.752 -11.093  10.675  0.00  0.00    +0.004 C 
ATOM      9  C   UNL     1      -6.070 -10.185   9.275  0.00  0.00    +0.081 C 
ATOM     10  C   UNL     1      -5.278 -11.508   9.287  0.00  0.00    +0.027 C 
ATOM     12  C   UNL     1      -5.531  -8.760  11.375  0.00  0.00    +0.013 C 
ATOM     13  C   UNL     1      -3.865  -8.936   9.542  0.00  0.00    +0.013 C 
ENDROOT
BRANCH   9   4
ATOM      2  O   UNL     1      -8.360  -8.944   8.025  0.00  0.00    -0.253 OA
ATOM      4  N   UNL     1      -6.118  -9.536   7.954  0.00  0.00    -0.296 N 
ATOM      6  N   UNL     1      -7.059  -8.419   6.174  0.00  0.00    -0.295 N 
ATOM     15  C   UNL     1      -7.280  -8.963   7.437  0.00  0.00    +0.300 C 
ATOM     32  H   UNL     1      -5.285  -9.499   7.374  0.00  0.00    +0.151 HD
ATOM     33  H   UNL     1      -6.125  -8.461   5.778  0.00  0.00    +0.151 HD
BRANCH   6  18
ATOM     18  C   UNL     1      -8.099  -7.764   5.416  0.00  0.00    +0.141 C 
BRANCH  18  20
ATOM     20  C   UNL     1      -8.258  -8.362   4.048  0.00  0.00    -0.030 A 
ATOM     21  C   UNL     1      -8.044  -9.728   3.855  0.00  0.00    +0.005 A 
ATOM     22  C   UNL     1      -8.621  -7.554   2.970  0.00  0.00    +0.005 A 
ATOM     24  C   UNL     1      -8.192 -10.283   2.584  0.00  0.00    +0.000 A 
ATOM     25  C   UNL     1      -8.768  -8.110   1.700  0.00  0.00    +0.000 A 
ATOM     26  C   UNL     1      -8.553  -9.475   1.507  0.00  0.00    +0.000 A 
ENDBRANCH  18  20
ENDBRANCH   6  18
ENDBRANCH   9   4
BRANCH   8  11
ATOM     11  C   UNL     1      -3.321 -11.487  10.957  0.00  0.00    +0.063 C 
BRANCH  11  14
ATOM      1  O   UNL     1      -1.750 -10.192  13.937  0.00  0.00    -0.356 OA
ATOM      5  N   UNL     1      -1.803 -10.396  12.563  0.00  0.00    -0.083 NA
ATOM     14  C   UNL     1      -2.930 -11.084  12.359  0.00  0.00    +0.084 A 
ATOM     16  C   UNL     1      -3.623 -11.339  13.553  0.00  0.00    +0.074 A 
ATOM     17  C   UNL     1      -2.840 -10.758  14.516  0.00  0.00    +0.175 A 
BRANCH  17  19
ATOM     19  C   UNL     1      -2.945 -10.635  15.975  0.00  0.00    +0.306 C 
BRANCH  19   3
ATOM      3  O   UNL     1      -3.760 -11.685  16.503  0.00  0.00    -0.484 OA
BRANCH   3  23
ATOM     23  C   UNL     1      -4.666 -11.328  17.463  0.00  0.00    +0.121 A 
ATOM     27  C   UNL     1      -4.518 -11.794  18.769  0.00  0.00    +0.045 A 
ATOM     28  C   UNL     1      -5.737 -10.497  17.136  0.00  0.00    +0.045 A 
ATOM     29  C   UNL     1      -5.441 -11.429  19.749  0.00  0.00    +0.004 A 
ATOM     30  C   UNL     1      -6.661 -10.132  18.115  0.00  0.00    +0.004 A 
ATOM     31  C   UNL     1      -6.513 -10.598  19.422  0.00  0.00    +0.000 A 
ENDBRANCH   3  23
ENDBRANCH  19   3
ENDBRANCH  17  19
ENDBRANCH  11  14
ENDBRANCH   8  11
TORSDOF 8
ENDMDL
MODEL 10
REMARK VINA RESULT:      -5.9     21.804     25.303
REMARK  Name = 56774347
REMARK  10 active torsions:
REMARK  status: ('A' for Active; 'I' for Inactive)
REMARK    1  A    between atoms: O_3  and  C_19
REMARK    2  A    between atoms: O_3  and  C_23
REMARK    3  A    between atoms: N_4  and  C_9
REMARK    4  A    between atoms: N_6  and  C_18
REMARK    5  A    between atoms: C_7  and  C_12
REMARK    6  A    between atoms: C_7  and  C_13
REMARK    7  A    between atoms: C_8  and  C_11
REMARK    8  A    between atoms: C_11  and  C_14
REMARK    9  A    between atoms: C_17  and  C_19
REMARK   10  A    between atoms: C_18  and  C_20
REMARK                            x       y       z     vdW  Elec       q    Type
REMARK                         _______ _______ _______ _____ _____    ______ ____
ROOT
ATOM      7  C   UNL     1     -15.489   4.924  32.293  0.00  0.00    -0.013 C 
ATOM      8  C   UNL     1     -14.682   3.775  31.654  0.00  0.00    +0.004 C 
ATOM      9  C   UNL     1     -14.149   5.675  32.447  0.00  0.00    +0.081 C 
ATOM     10  C   UNL     1     -13.462   4.294  32.442  0.00  0.00    +0.027 C 
ATOM     12  C   UNL     1     -16.500   5.547  31.357  0.00  0.00    +0.013 C 
ATOM     13  C   UNL     1     -16.140   4.610  33.628  0.00  0.00    +0.013 C 
ENDROOT
BRANCH   9   4
ATOM      2  O   UNL     1     -12.600   8.079  32.853  0.00  0.00    -0.253 OA
ATOM      4  N   UNL     1     -13.975   6.418  33.707  0.00  0.00    -0.296 N 
ATOM      6  N   UNL     1     -13.201   8.082  35.096  0.00  0.00    -0.295 N 
ATOM     15  C   UNL     1     -13.202   7.575  33.799  0.00  0.00    +0.300 C 
ATOM     32  H   UNL     1     -14.422   6.089  34.558  0.00  0.00    +0.151 HD
ATOM     33  H   UNL     1     -13.748   7.610  35.808  0.00  0.00    +0.151 HD
BRANCH   6  18
ATOM     18  C   UNL     1     -12.476   9.276  35.464  0.00  0.00    +0.141 C 
BRANCH  18  20
ATOM     20  C   UNL     1     -11.095   8.962  35.966  0.00  0.00    -0.030 A 
ATOM     21  C   UNL     1     -10.917   8.001  36.961  0.00  0.00    +0.005 A 
ATOM     22  C   UNL     1      -9.992   9.631  35.437  0.00  0.00    +0.005 A 
ATOM     24  C   UNL     1      -9.635   7.709  37.427  0.00  0.00    +0.000 A 
ATOM     25  C   UNL     1      -8.710   9.340  35.902  0.00  0.00    +0.000 A 
ATOM     26  C   UNL     1      -8.531   8.379  36.899  0.00  0.00    +0.000 A 
ENDBRANCH  18  20
ENDBRANCH   6  18
ENDBRANCH   9   4
BRANCH   8  11
ATOM     11  C   UNL     1     -15.101   2.363  31.992  0.00  0.00    +0.063 C 
BRANCH  11  14
ATOM      1  O   UNL     1     -15.983   0.001  29.409  0.00  0.00    -0.356 OA
ATOM      5  N   UNL     1     -15.436   0.326  30.645  0.00  0.00    -0.083 NA
ATOM     14  C   UNL     1     -15.587   1.649  30.753  0.00  0.00    +0.084 A 
ATOM     16  C   UNL     1     -16.217   2.208  29.628  0.00  0.00    +0.074 A 
ATOM     17  C   UNL     1     -16.445   1.130  28.813  0.00  0.00    +0.175 A 
BRANCH  17  19
ATOM     19  C   UNL     1     -17.059   0.968  27.490  0.00  0.00    +0.306 C 
BRANCH  19   3
ATOM      3  O   UNL     1     -17.562   2.222  27.020  0.00  0.00    -0.484 OA
BRANCH   3  23
ATOM     23  C   UNL     1     -17.100   2.647  25.806  0.00  0.00    +0.121 A 
ATOM     27  C   UNL     1     -17.620   2.102  24.632  0.00  0.00    +0.045 A 
ATOM     28  C   UNL     1     -16.109   3.627  25.741  0.00  0.00    +0.045 A 
ATOM     29  C   UNL     1     -17.149   2.536  23.393  0.00  0.00    +0.004 A 
ATOM     30  C   UNL     1     -15.638   4.061  24.502  0.00  0.00    +0.004 A 
ATOM     31  C   UNL     1     -16.157   3.516  23.328  0.00  0.00    +0.000 A 
ENDBRANCH   3  23
ENDBRANCH  19   3
ENDBRANCH  17  19
ENDBRANCH  11  14
ENDBRANCH   8  11
TORSDOF 8
ENDMDL
