REMARK  Name = 56774753
REMARK  9 active torsions:
REMARK  status: ('A' for Active; 'I' for Inactive)
REMARK    1  A    between atoms: O_2  and  C_11
REMARK    2  A    between atoms: O_4  and  C_20
REMARK    3  A    between atoms: O_4  and  C_28
REMARK    4  A    between atoms: N_6  and  C_13
REMARK    5  A    between atoms: N_7  and  C_24
REMARK    6  A    between atoms: C_10  and  C_11
REMARK    7  A    between atoms: C_11  and  C_15
REMARK    8  A    between atoms: C_13  and  C_17
REMARK    9  A    between atoms: C_29  and  C_30
REMARK                            x       y       z     vdW  Elec       q    Type
REMARK                         _______ _______ _______ _____ _____    ______ ____
ROOT
ATOM     11  C   UNL     1      -1.209   1.157  -1.152  0.00  0.00    +0.167 C 
ENDROOT
BRANCH  11  10
ATOM      1  O   UNL     1      -1.901   2.660   1.271  0.00  0.00    -0.369 OA
ATOM      3  O   UNL     1      -5.171   2.697  -0.261  0.00  0.00    -0.273 OA
ATOM      6  N   UNL     1      -3.534   1.044  -0.336  0.00  0.00    -0.287 N 
ATOM     10  C   UNL     1      -2.144   0.676  -0.039  0.00  0.00    +0.135 C 
ATOM     12  C   UNL     1      -1.730   1.248   1.312  0.00  0.00    +0.185 C 
ATOM     14  C   UNL     1      -4.078   2.252   0.095  0.00  0.00    +0.242 C 
ATOM     16  C   UNL     1      -3.263   3.001   1.145  0.00  0.00    +0.255 C 
BRANCH   6  13
ATOM     13  C   UNL     1      -4.275   0.190  -1.254  0.00  0.00    +0.147 C 
BRANCH  13  17
ATOM     17  C   UNL     1      -4.590  -1.147  -0.647  0.00  0.00    +0.011 A 
ATOM     20  C   UNL     1      -5.348  -1.239   0.521  0.00  0.00    +0.125 A 
ATOM     21  C   UNL     1      -4.117  -2.305  -1.264  0.00  0.00    +0.009 A 
ATOM     25  C   UNL     1      -5.632  -2.488   1.072  0.00  0.00    +0.046 A 
ATOM     26  C   UNL     1      -4.401  -3.555  -0.713  0.00  0.00    +0.001 A 
ATOM     27  C   UNL     1      -5.158  -3.646   0.455  0.00  0.00    +0.004 A 
BRANCH  20   4
ATOM      4  O   UNL     1      -5.819  -0.118   1.136  0.00  0.00    -0.495 OA
ATOM     28  C   UNL     1      -6.584  -0.304   2.325  0.00  0.00    +0.277 C 
ENDBRANCH  20   4
ENDBRANCH  13  17
ENDBRANCH   6  13
ENDBRANCH  11  10
BRANCH  11  15
ATOM     15  C   UNL     1       0.222   0.760  -0.892  0.00  0.00    -0.017 A 
ATOM     18  C   UNL     1       1.211   1.740  -0.794  0.00  0.00    +0.008 A 
ATOM     19  C   UNL     1       0.558  -0.586  -0.750  0.00  0.00    +0.008 A 
ATOM     22  C   UNL     1       2.535   1.373  -0.554  0.00  0.00    +0.023 A 
ATOM     23  C   UNL     1       1.882  -0.953  -0.510  0.00  0.00    +0.023 A 
ATOM     24  C   UNL     1       2.871   0.026  -0.412  0.00  0.00    +0.034 A 
BRANCH  24   7
ATOM      5  O   UNL     1       5.328   1.718  -0.121  0.00  0.00    -0.268 OA
ATOM      7  N   UNL     1       4.195  -0.341  -0.173  0.00  0.00    -0.280 N 
ATOM     29  C   UNL     1       5.312   0.494  -0.044  0.00  0.00    +0.268 C 
ATOM     35  H   UNL     1       4.359  -1.341  -0.077  0.00  0.00    +0.155 HD
BRANCH  29  30
ATOM      8  N   UNL     1       6.548  -1.541   0.344  0.00  0.00    -0.247 NA
ATOM      9  N   UNL     1       8.943  -0.113   0.649  0.00  0.00    -0.259 NA
ATOM     30  C   UNL     1       6.597  -0.198   0.239  0.00  0.00    +0.144 A 
ATOM     31  C   UNL     1       7.773   0.503   0.389  0.00  0.00    +0.143 A 
ATOM     32  C   UNL     1       7.718  -2.158   0.604  0.00  0.00    +0.131 A 
ATOM     33  C   UNL     1       8.895  -1.456   0.754  0.00  0.00    +0.130 A 
ENDBRANCH  29  30
ENDBRANCH  24   7
ENDBRANCH  11  15
BRANCH  11   2
ATOM      2  O   UNL     1      -1.635   0.610  -2.395  0.00  0.00    -0.385 OA
ATOM     34  H   UNL     1      -1.536  -0.356  -2.364  0.00  0.00    +0.210 HD
ENDBRANCH  11   2
TORSDOF 8
