MODEL 1
REMARK VINA RESULT:      -6.8      0.000      0.000
REMARK  Name = 11882870
REMARK  12 active torsions:
REMARK  status: ('A' for Active; 'I' for Inactive)
REMARK    1  A    between atoms: O_3  and  C_16
REMARK    2  A    between atoms: O_4  and  C_21
REMARK    3  A    between atoms: O_7  and  C_36
REMARK    4  A    between atoms: O_7  and  C_39
REMARK    5  A    between atoms: N_9  and  C_27
REMARK    6  A    between atoms: C_11  and  C_19
REMARK    7  A    between atoms: C_13  and  C_21
REMARK    8  A    between atoms: C_13  and  C_22
REMARK    9  A    between atoms: C_14  and  C_24
REMARK   10  A    between atoms: C_24  and  C_25
REMARK   11  A    between atoms: C_27  and  C_29
REMARK   12  A    between atoms: C_28  and  C_30
REMARK                            x       y       z     vdW  Elec       q    Type
REMARK                         _______ _______ _______ _____ _____    ______ ____
ROOT
ATOM      1  S   UNL     1      20.545  -5.381   0.956  0.00  0.00    -0.057 S 
ATOM      6  O   UNL     1      18.008  -6.866  -2.611  0.00  0.00    -0.269 OA
ATOM      8  N   UNL     1      19.586  -7.468  -0.233  0.00  0.00    -0.229 NA
ATOM     10  N   UNL     1      19.073  -5.327  -1.214  0.00  0.00    -0.260 N 
ATOM     11  C   UNL     1      21.600  -9.638   2.236  0.00  0.00    -0.019 C 
ATOM     12  C   UNL     1      21.490  -8.557   3.399  0.00  0.00    +0.011 C 
ATOM     13  C   UNL     1      22.283  -8.854   4.730  0.00  0.00    +0.021 C 
ATOM     14  C   UNL     1      20.412  -9.372   1.200  0.00  0.00    +0.054 C 
ATOM     15  C   UNL     1      21.416 -11.058   2.834  0.00  0.00    +0.010 C 
ATOM     16  C   UNL     1      22.026 -10.325   5.162  0.00  0.00    +0.123 C 
ATOM     17  C   UNL     1      21.699  -7.114   2.854  0.00  0.00    +0.049 C 
ATOM     18  C   UNL     1      22.291 -11.334   4.049  0.00  0.00    +0.032 C 
ATOM     19  C   UNL     1      22.956  -9.585   1.490  0.00  0.00    +0.012 C 
ATOM     20  C   UNL     1      20.312  -7.907   0.859  0.00  0.00    +0.058 A 
ATOM     22  C   UNL     1      21.736  -7.937   5.861  0.00  0.00    +0.016 C 
ATOM     23  C   UNL     1      20.880  -6.910   1.624  0.00  0.00    +0.015 A 
ATOM     26  C   UNL     1      19.646  -6.155  -0.286  0.00  0.00    +0.165 A 
ATOM     28  C   UNL     1      18.287  -5.704  -2.326  0.00  0.00    +0.256 C 
ATOM     43  H   UNL     1      19.250  -4.337  -1.070  0.00  0.00    +0.157 HD
ENDROOT
BRANCH  28  30
ATOM      2  S   UNL     1      17.648  -3.035  -2.492  0.00  0.00    -0.092 S 
ATOM     30  C   UNL     1      17.842  -4.589  -3.183  0.00  0.00    +0.074 A 
ATOM     33  C   UNL     1      17.539  -4.600  -4.526  0.00  0.00    +0.021 A 
ATOM     37  C   UNL     1      17.144  -3.314  -4.996  0.00  0.00    +0.008 A 
ATOM     38  C   UNL     1      17.159  -2.370  -3.992  0.00  0.00    +0.046 A 
ENDBRANCH  28  30
BRANCH  16   3
ATOM      3  O   UNL     1      22.829 -10.666   6.291  0.00  0.00    -0.391 OA
ATOM     40  H   UNL     1      23.088 -11.599   6.199  0.00  0.00    +0.210 HD
ENDBRANCH  16   3
BRANCH  13  21
ATOM     21  C   UNL     1      23.797  -8.560   4.654  0.00  0.00    +0.165 C 
BRANCH  21   4
ATOM      4  O   UNL     1      24.234  -8.203   5.946  0.00  0.00    -0.394 OA
ATOM     41  H   UNL     1      25.136  -8.549   6.054  0.00  0.00    +0.209 HD
ENDBRANCH  21   4
ENDBRANCH  13  21
BRANCH  14  24
ATOM     24  C   UNL     1      20.461 -10.242  -0.062  0.00  0.00    +0.106 C 
BRANCH  24  25
ATOM      5  O   UNL     1      19.579 -12.495  -0.038  0.00  0.00    -0.276 OA
ATOM      9  N   UNL     1      18.115 -10.693  -0.129  0.00  0.00    -0.311 N 
ATOM     25  C   UNL     1      19.367 -11.286  -0.073  0.00  0.00    +0.214 C 
ATOM     42  H   UNL     1      18.047  -9.679  -0.148  0.00  0.00    +0.149 HD
BRANCH   9  27
ATOM     27  C   UNL     1      16.884 -11.448  -0.152  0.00  0.00    +0.139 C 
BRANCH  27  29
ATOM     29  C   UNL     1      16.408 -11.792   1.230  0.00  0.00    -0.030 A 
ATOM     31  C   UNL     1      16.751 -10.978   2.309  0.00  0.00    +0.009 A 
ATOM     32  C   UNL     1      15.622 -12.927   1.434  0.00  0.00    +0.009 A 
ATOM     34  C   UNL     1      16.308 -11.298   3.592  0.00  0.00    +0.046 A 
ATOM     35  C   UNL     1      15.179 -13.246   2.717  0.00  0.00    +0.046 A 
ATOM     36  C   UNL     1      15.523 -12.432   3.796  0.00  0.00    +0.120 A 
BRANCH  36   7
ATOM      7  O   UNL     1      15.090 -12.743   5.049  0.00  0.00    -0.495 OA
ATOM     39  C   UNL     1      15.307 -11.771   6.071  0.00  0.00    +0.277 C 
ENDBRANCH  36   7
ENDBRANCH  27  29
ENDBRANCH   9  27
ENDBRANCH  24  25
ENDBRANCH  14  24
TORSDOF 9
ENDMDL
MODEL 2
REMARK VINA RESULT:      -6.6     15.015     17.227
REMARK  Name = 11882870
REMARK  12 active torsions:
REMARK  status: ('A' for Active; 'I' for Inactive)
REMARK    1  A    between atoms: O_3  and  C_16
REMARK    2  A    between atoms: O_4  and  C_21
REMARK    3  A    between atoms: O_7  and  C_36
REMARK    4  A    between atoms: O_7  and  C_39
REMARK    5  A    between atoms: N_9  and  C_27
REMARK    6  A    between atoms: C_11  and  C_19
REMARK    7  A    between atoms: C_13  and  C_21
REMARK    8  A    between atoms: C_13  and  C_22
REMARK    9  A    between atoms: C_14  and  C_24
REMARK   10  A    between atoms: C_24  and  C_25
REMARK   11  A    between atoms: C_27  and  C_29
REMARK   12  A    between atoms: C_28  and  C_30
REMARK                            x       y       z     vdW  Elec       q    Type
REMARK                         _______ _______ _______ _____ _____    ______ ____
ROOT
ATOM      1  S   UNL     1      15.103   7.954   6.212  0.00  0.00    -0.057 S 
ATOM      6  O   UNL     1      12.314   6.388   2.876  0.00  0.00    -0.269 OA
ATOM      8  N   UNL     1      14.940   7.352   3.702  0.00  0.00    -0.229 NA
ATOM     10  N   UNL     1      12.947   7.053   5.023  0.00  0.00    -0.260 N 
ATOM     11  C   UNL     1      18.509   8.745   3.270  0.00  0.00    -0.019 C 
ATOM     12  C   UNL     1      18.933   8.336   4.749  0.00  0.00    +0.011 C 
ATOM     13  C   UNL     1      20.364   8.786   5.234  0.00  0.00    +0.021 C 
ATOM     14  C   UNL     1      17.262   7.839   2.845  0.00  0.00    +0.054 C 
ATOM     15  C   UNL     1      19.681   8.447   2.298  0.00  0.00    +0.010 C 
ATOM     16  C   UNL     1      21.407   8.459   4.128  0.00  0.00    +0.123 C 
ATOM     17  C   UNL     1      17.799   8.644   5.770  0.00  0.00    +0.049 C 
ATOM     18  C   UNL     1      21.021   9.005   2.757  0.00  0.00    +0.032 C 
ATOM     19  C   UNL     1      18.127  10.240   3.144  0.00  0.00    +0.012 C 
ATOM     20  C   UNL     1      16.227   7.798   3.940  0.00  0.00    +0.058 A 
ATOM     22  C   UNL     1      20.754   7.964   6.495  0.00  0.00    +0.016 C 
ATOM     23  C   UNL     1      16.494   8.145   5.248  0.00  0.00    +0.015 A 
ATOM     26  C   UNL     1      14.256   7.399   4.825  0.00  0.00    +0.165 A 
ATOM     28  C   UNL     1      12.035   6.568   4.058  0.00  0.00    +0.256 C 
ATOM     43  H   UNL     1      12.613   7.172   5.976  0.00  0.00    +0.157 HD
ENDROOT
BRANCH  28  30
ATOM      2  S   UNL     1       9.520   7.591   4.490  0.00  0.00    -0.092 S 
ATOM     30  C   UNL     1      10.669   6.324   4.557  0.00  0.00    +0.074 A 
ATOM     33  C   UNL     1      10.141   5.175   5.100  0.00  0.00    +0.021 A 
ATOM     37  C   UNL     1       8.772   5.335   5.464  0.00  0.00    +0.008 A 
ATOM     38  C   UNL     1       8.309   6.602   5.187  0.00  0.00    +0.046 A 
ENDBRANCH  28  30
BRANCH  16   3
ATOM      3  O   UNL     1      22.691   8.970   4.480  0.00  0.00    -0.391 OA
ATOM     40  H   UNL     1      23.342   8.262   4.335  0.00  0.00    +0.210 HD
ENDBRANCH  16   3
BRANCH  13  21
ATOM     21  C   UNL     1      20.460  10.268   5.659  0.00  0.00    +0.165 C 
BRANCH  21   4
ATOM      4  O   UNL     1      21.306  10.341   6.785  0.00  0.00    -0.394 OA
ATOM     41  H   UNL     1      22.039   9.720   6.638  0.00  0.00    +0.209 HD
ENDBRANCH  21   4
ENDBRANCH  13  21
BRANCH  14  24
ATOM     24  C   UNL     1      16.637   8.209   1.494  0.00  0.00    +0.106 C 
BRANCH  24  25
ATOM      5  O   UNL     1      17.547   7.274  -0.543  0.00  0.00    -0.276 OA
ATOM      9  N   UNL     1      16.156   5.976   0.792  0.00  0.00    -0.311 N 
ATOM     25  C   UNL     1      16.850   7.129   0.457  0.00  0.00    +0.214 C 
ATOM     42  H   UNL     1      15.611   5.957   1.649  0.00  0.00    +0.149 HD
BRANCH   9  27
ATOM     27  C   UNL     1      16.175   4.781  -0.019  0.00  0.00    +0.139 C 
BRANCH  27  29
ATOM     29  C   UNL     1      14.793   4.349  -0.418  0.00  0.00    -0.030 A 
ATOM     31  C   UNL     1      13.870   3.974   0.558  0.00  0.00    +0.009 A 
ATOM     32  C   UNL     1      14.433   4.326  -1.766  0.00  0.00    +0.009 A 
ATOM     34  C   UNL     1      12.587   3.573   0.187  0.00  0.00    +0.046 A 
ATOM     35  C   UNL     1      13.149   3.925  -2.137  0.00  0.00    +0.046 A 
ATOM     36  C   UNL     1      12.227   3.548  -1.160  0.00  0.00    +0.120 A 
BRANCH  36   7
ATOM      7  O   UNL     1      10.973   3.159  -1.522  0.00  0.00    -0.495 OA
ATOM     39  C   UNL     1      10.785   2.756  -2.878  0.00  0.00    +0.277 C 
ENDBRANCH  36   7
ENDBRANCH  27  29
ENDBRANCH   9  27
ENDBRANCH  24  25
ENDBRANCH  14  24
TORSDOF 9
ENDMDL
MODEL 3
REMARK VINA RESULT:      -6.6     27.380     30.953
REMARK  Name = 11882870
REMARK  12 active torsions:
REMARK  status: ('A' for Active; 'I' for Inactive)
REMARK    1  A    between atoms: O_3  and  C_16
REMARK    2  A    between atoms: O_4  and  C_21
REMARK    3  A    between atoms: O_7  and  C_36
REMARK    4  A    between atoms: O_7  and  C_39
REMARK    5  A    between atoms: N_9  and  C_27
REMARK    6  A    between atoms: C_11  and  C_19
REMARK    7  A    between atoms: C_13  and  C_21
REMARK    8  A    between atoms: C_13  and  C_22
REMARK    9  A    between atoms: C_14  and  C_24
REMARK   10  A    between atoms: C_24  and  C_25
REMARK   11  A    between atoms: C_27  and  C_29
REMARK   12  A    between atoms: C_28  and  C_30
REMARK                            x       y       z     vdW  Elec       q    Type
REMARK                         _______ _______ _______ _____ _____    ______ ____
ROOT
ATOM      1  S   UNL     1      -5.780 -10.852  12.324  0.00  0.00    -0.057 S 
ATOM      6  O   UNL     1      -8.875  -8.335   9.990  0.00  0.00    -0.269 OA
ATOM      8  N   UNL     1      -7.964  -9.479  12.514  0.00  0.00    -0.229 NA
ATOM     10  N   UNL     1      -6.971  -9.645  10.324  0.00  0.00    -0.260 N 
ATOM     11  C   UNL     1      -8.205 -10.613  16.190  0.00  0.00    -0.019 C 
ATOM     12  C   UNL     1      -6.623 -10.695  16.352  0.00  0.00    +0.011 C 
ATOM     13  C   UNL     1      -6.070 -11.258  17.717  0.00  0.00    +0.021 C 
ATOM     14  C   UNL     1      -8.527  -9.636  14.968  0.00  0.00    +0.054 C 
ATOM     15  C   UNL     1      -8.823 -10.005  17.477  0.00  0.00    +0.010 C 
ATOM     16  C   UNL     1      -6.826 -10.580  18.895  0.00  0.00    +0.123 C 
ATOM     17  C   UNL     1      -5.956 -11.329  15.096  0.00  0.00    +0.049 C 
ATOM     18  C   UNL     1      -8.343 -10.663  18.763  0.00  0.00    +0.032 C 
ATOM     19  C   UNL     1      -8.856 -11.994  15.932  0.00  0.00    +0.012 C 
ATOM     20  C   UNL     1      -7.665  -9.961  13.774  0.00  0.00    +0.058 A 
ATOM     22  C   UNL     1      -4.568 -10.879  17.851  0.00  0.00    +0.016 C 
ATOM     23  C   UNL     1      -6.507 -10.706  13.857  0.00  0.00    +0.015 A 
ATOM     26  C   UNL     1      -7.044  -9.892  11.668  0.00  0.00    +0.165 A 
ATOM     28  C   UNL     1      -7.874  -8.889   9.543  0.00  0.00    +0.256 C 
ATOM     43  H   UNL     1      -6.174 -10.068   9.855  0.00  0.00    +0.157 HD
ENDROOT
BRANCH  28  30
ATOM      2  S   UNL     1      -8.233  -7.580   7.152  0.00  0.00    -0.092 S 
ATOM     30  C   UNL     1      -7.561  -8.835   8.103  0.00  0.00    +0.074 A 
ATOM     33  C   UNL     1      -6.771  -9.683   7.359  0.00  0.00    +0.021 A 
ATOM     37  C   UNL     1      -6.714  -9.296   5.989  0.00  0.00    +0.008 A 
ATOM     38  C   UNL     1      -7.465  -8.169   5.738  0.00  0.00    +0.046 A 
ENDBRANCH  28  30
BRANCH  16   3
ATOM      3  O   UNL     1      -6.441 -11.160  20.140  0.00  0.00    -0.391 OA
ATOM     40  H   UNL     1      -5.727 -10.616  20.512  0.00  0.00    +0.210 HD
ENDBRANCH  16   3
BRANCH  13  21
ATOM     21  C   UNL     1      -6.122 -12.797  17.843  0.00  0.00    +0.165 C 
BRANCH  21   4
ATOM      4  O   UNL     1      -4.987 -13.209  18.570  0.00  0.00    -0.394 OA
ATOM     41  H   UNL     1      -5.230 -13.214  19.511  0.00  0.00    +0.209 HD
ENDBRANCH  21   4
ENDBRANCH  13  21
BRANCH  14  24
ATOM     24  C   UNL     1     -10.011  -9.561  14.585  0.00  0.00    +0.106 C 
BRANCH  24  25
ATOM      5  O   UNL     1     -10.033  -7.337  15.539  0.00  0.00    -0.276 OA
ATOM      9  N   UNL     1     -11.859  -8.074  14.304  0.00  0.00    -0.311 N 
ATOM     25  C   UNL     1     -10.603  -8.201  14.877  0.00  0.00    +0.214 C 
ATOM     42  H   UNL     1     -12.241  -8.848  13.768  0.00  0.00    +0.149 HD
BRANCH   9  27
ATOM     27  C   UNL     1     -12.663  -6.879  14.421  0.00  0.00    +0.139 C 
BRANCH  27  29
ATOM     29  C   UNL     1     -12.531  -5.992  13.217  0.00  0.00    -0.030 A 
ATOM     31  C   UNL     1     -12.514  -6.548  11.939  0.00  0.00    +0.009 A 
ATOM     32  C   UNL     1     -12.425  -4.610  13.379  0.00  0.00    +0.009 A 
ATOM     34  C   UNL     1     -12.392  -5.723  10.821  0.00  0.00    +0.046 A 
ATOM     35  C   UNL     1     -12.303  -3.785  12.261  0.00  0.00    +0.046 A 
ATOM     36  C   UNL     1     -12.285  -4.342  10.981  0.00  0.00    +0.120 A 
BRANCH  36   7
ATOM      7  O   UNL     1     -12.167  -3.537   9.890  0.00  0.00    -0.495 OA
ATOM     39  C   UNL     1     -10.931  -3.585   9.179  0.00  0.00    +0.277 C 
ENDBRANCH  36   7
ENDBRANCH  27  29
ENDBRANCH   9  27
ENDBRANCH  24  25
ENDBRANCH  14  24
TORSDOF 9
ENDMDL
MODEL 4
REMARK VINA RESULT:      -6.5     26.236     30.788
REMARK  Name = 11882870
REMARK  12 active torsions:
REMARK  status: ('A' for Active; 'I' for Inactive)
REMARK    1  A    between atoms: O_3  and  C_16
REMARK    2  A    between atoms: O_4  and  C_21
REMARK    3  A    between atoms: O_7  and  C_36
REMARK    4  A    between atoms: O_7  and  C_39
REMARK    5  A    between atoms: N_9  and  C_27
REMARK    6  A    between atoms: C_11  and  C_19
REMARK    7  A    between atoms: C_13  and  C_21
REMARK    8  A    between atoms: C_13  and  C_22
REMARK    9  A    between atoms: C_14  and  C_24
REMARK   10  A    between atoms: C_24  and  C_25
REMARK   11  A    between atoms: C_27  and  C_29
REMARK   12  A    between atoms: C_28  and  C_30
REMARK                            x       y       z     vdW  Elec       q    Type
REMARK                         _______ _______ _______ _____ _____    ______ ____
ROOT
ATOM      1  S   UNL     1      -7.130 -10.367  11.334  0.00  0.00    -0.057 S 
ATOM      6  O   UNL     1     -11.128  -9.017  13.220  0.00  0.00    -0.269 OA
ATOM      8  N   UNL     1      -8.350  -9.843  13.553  0.00  0.00    -0.229 NA
ATOM     10  N   UNL     1      -9.628  -9.594  11.525  0.00  0.00    -0.260 N 
ATOM     11  C   UNL     1      -5.217 -11.091  15.420  0.00  0.00    -0.019 C 
ATOM     12  C   UNL     1      -4.238 -10.623  14.254  0.00  0.00    +0.011 C 
ATOM     13  C   UNL     1      -2.714 -10.997  14.404  0.00  0.00    +0.021 C 
ATOM     14  C   UNL     1      -6.571 -10.253  15.294  0.00  0.00    +0.054 C 
ATOM     15  C   UNL     1      -4.571 -10.770  16.793  0.00  0.00    +0.010 C 
ATOM     16  C   UNL     1      -2.242 -10.656  15.846  0.00  0.00    +0.123 C 
ATOM     17  C   UNL     1      -4.829 -10.951  12.851  0.00  0.00    +0.049 C 
ATOM     18  C   UNL     1      -3.134 -11.257  16.928  0.00  0.00    +0.032 C 
ATOM     19  C   UNL     1      -5.539 -12.604  15.364  0.00  0.00    +0.012 C 
ATOM     20  C   UNL     1      -7.060 -10.226  13.868  0.00  0.00    +0.058 A 
ATOM     22  C   UNL     1      -1.878 -10.124  13.426  0.00  0.00    +0.016 C 
ATOM     23  C   UNL     1      -6.257 -10.524  12.787  0.00  0.00    +0.015 A 
ATOM     26  C   UNL     1      -8.503  -9.888  12.247  0.00  0.00    +0.165 A 
ATOM     28  C   UNL     1     -10.882  -9.176  12.027  0.00  0.00    +0.256 C 
ATOM     43  H   UNL     1      -9.530  -9.700  10.519  0.00  0.00    +0.157 HD
ENDROOT
BRANCH  28  30
ATOM      2  S   UNL     1     -11.587  -9.373   9.377  0.00  0.00    -0.092 S 
ATOM     30  C   UNL     1     -11.928  -8.977  11.008  0.00  0.00    +0.074 A 
ATOM     33  C   UNL     1     -13.208  -8.496  11.167  0.00  0.00    +0.021 A 
ATOM     37  C   UNL     1     -13.921  -8.453   9.933  0.00  0.00    +0.008 A 
ATOM     38  C   UNL     1     -13.156  -8.901   8.879  0.00  0.00    +0.046 A 
ENDBRANCH  28  30
BRANCH  16   3
ATOM      3  O   UNL     1      -0.903 -11.101  16.056  0.00  0.00    -0.391 OA
ATOM     40  H   UNL     1      -0.658 -11.665  15.303  0.00  0.00    +0.210 HD
ENDBRANCH  16   3
BRANCH  13  21
ATOM     21  C   UNL     1      -2.375 -12.461  14.047  0.00  0.00    +0.165 C 
BRANCH  21   4
ATOM      4  O   UNL     1      -1.545 -12.447  12.907  0.00  0.00    -0.394 OA
ATOM     41  H   UNL     1      -0.627 -12.366  13.216  0.00  0.00    +0.209 HD
ENDBRANCH  21   4
ENDBRANCH  13  21
BRANCH  14  24
ATOM     24  C   UNL     1      -7.681 -10.687  16.260  0.00  0.00    +0.106 C 
BRANCH  24  25
ATOM      5  O   UNL     1      -7.532  -9.137  18.112  0.00  0.00    -0.276 OA
ATOM      9  N   UNL     1      -9.359  -9.038  16.679  0.00  0.00    -0.311 N 
ATOM     25  C   UNL     1      -8.150  -9.545  17.133  0.00  0.00    +0.214 C 
ATOM     42  H   UNL     1      -9.788  -9.444  15.852  0.00  0.00    +0.149 HD
BRANCH   9  27
ATOM     27  C   UNL     1     -10.046  -7.941  17.321  0.00  0.00    +0.139 C 
BRANCH  27  29
ATOM     29  C   UNL     1     -11.069  -7.313  16.421  0.00  0.00    -0.030 A 
ATOM     31  C   UNL     1     -12.381  -7.786  16.417  0.00  0.00    +0.009 A 
ATOM     32  C   UNL     1     -10.707  -6.254  15.587  0.00  0.00    +0.009 A 
ATOM     34  C   UNL     1     -13.331  -7.201  15.580  0.00  0.00    +0.046 A 
ATOM     35  C   UNL     1     -11.657  -5.669  14.750  0.00  0.00    +0.046 A 
ATOM     36  C   UNL     1     -12.969  -6.144  14.746  0.00  0.00    +0.120 A 
BRANCH  36   7
ATOM      7  O   UNL     1     -13.897  -5.573  13.930  0.00  0.00    -0.495 OA
ATOM     39  C   UNL     1     -13.551  -4.328  13.325  0.00  0.00    +0.277 C 
ENDBRANCH  36   7
ENDBRANCH  27  29
ENDBRANCH   9  27
ENDBRANCH  24  25
ENDBRANCH  14  24
TORSDOF 9
ENDMDL
MODEL 5
REMARK VINA RESULT:      -6.5     26.323     31.534
REMARK  Name = 11882870
REMARK  12 active torsions:
REMARK  status: ('A' for Active; 'I' for Inactive)
REMARK    1  A    between atoms: O_3  and  C_16
REMARK    2  A    between atoms: O_4  and  C_21
REMARK    3  A    between atoms: O_7  and  C_36
REMARK    4  A    between atoms: O_7  and  C_39
REMARK    5  A    between atoms: N_9  and  C_27
REMARK    6  A    between atoms: C_11  and  C_19
REMARK    7  A    between atoms: C_13  and  C_21
REMARK    8  A    between atoms: C_13  and  C_22
REMARK    9  A    between atoms: C_14  and  C_24
REMARK   10  A    between atoms: C_24  and  C_25
REMARK   11  A    between atoms: C_27  and  C_29
REMARK   12  A    between atoms: C_28  and  C_30
REMARK                            x       y       z     vdW  Elec       q    Type
REMARK                         _______ _______ _______ _____ _____    ______ ____
ROOT
ATOM      1  S   UNL     1     -10.008  -9.822  13.035  0.00  0.00    -0.057 S 
ATOM      6  O   UNL     1      -5.428  -9.910  13.655  0.00  0.00    -0.269 OA
ATOM      8  N   UNL     1      -8.113  -9.890  14.795  0.00  0.00    -0.229 NA
ATOM     10  N   UNL     1      -7.445  -9.850  12.479  0.00  0.00    -0.260 N 
ATOM     11  C   UNL     1     -10.809  -9.502  17.523  0.00  0.00    -0.019 C 
ATOM     12  C   UNL     1     -11.903 -10.275  16.662  0.00  0.00    +0.011 C 
ATOM     13  C   UNL     1     -13.364 -10.341  17.254  0.00  0.00    +0.021 C 
ATOM     14  C   UNL     1      -9.366  -9.928  16.983  0.00  0.00    +0.054 C 
ATOM     15  C   UNL     1     -10.922  -9.936  19.008  0.00  0.00    +0.010 C 
ATOM     16  C   UNL     1     -13.291 -10.743  18.754  0.00  0.00    +0.123 C 
ATOM     17  C   UNL     1     -11.852  -9.851  15.165  0.00  0.00    +0.049 C 
ATOM     18  C   UNL     1     -12.338  -9.870  19.564  0.00  0.00    +0.032 C 
ATOM     19  C   UNL     1     -10.956  -7.963  17.442  0.00  0.00    +0.012 C 
ATOM     20  C   UNL     1      -9.314  -9.874  15.478  0.00  0.00    +0.058 A 
ATOM     22  C   UNL     1     -14.160 -11.454  16.515  0.00  0.00    +0.016 C 
ATOM     23  C   UNL     1     -10.441  -9.859  14.681  0.00  0.00    +0.015 A 
ATOM     26  C   UNL     1      -8.355  -9.856  13.502  0.00  0.00    +0.165 A 
ATOM     28  C   UNL     1      -6.036  -9.876  12.588  0.00  0.00    +0.256 C 
ATOM     43  H   UNL     1      -7.850  -9.817  11.547  0.00  0.00    +0.157 HD
ENDROOT
BRANCH  28  30
ATOM      2  S   UNL     1      -5.173 -11.228  10.355  0.00  0.00    -0.092 S 
ATOM     30  C   UNL     1      -5.310  -9.812  11.307  0.00  0.00    +0.074 A 
ATOM     33  C   UNL     1      -4.687  -8.732  10.720  0.00  0.00    +0.021 A 
ATOM     37  C   UNL     1      -4.091  -9.073   9.471  0.00  0.00    +0.008 A 
ATOM     38  C   UNL     1      -4.279 -10.399   9.153  0.00  0.00    +0.046 A 
ENDBRANCH  28  30
BRANCH  16   3
ATOM      3  O   UNL     1     -14.585 -10.686  19.353  0.00  0.00    -0.391 OA
ATOM     40  H   UNL     1     -14.664  -9.828  19.804  0.00  0.00    +0.210 HD
ENDBRANCH  16   3
BRANCH  13  21
ATOM     21  C   UNL     1     -14.189  -9.049  17.069  0.00  0.00    +0.165 C 
BRANCH  21   4
ATOM      4  O   UNL     1     -15.537  -9.419  16.884  0.00  0.00    -0.394 OA
ATOM     41  H   UNL     1     -16.080  -8.816  17.419  0.00  0.00    +0.209 HD
ENDBRANCH  21   4
ENDBRANCH  13  21
BRANCH  14  24
ATOM     24  C   UNL     1      -8.198  -9.159  17.613  0.00  0.00    +0.106 C 
BRANCH  24  25
ATOM      5  O   UNL     1      -7.353 -10.619  19.348  0.00  0.00    -0.276 OA
ATOM      9  N   UNL     1      -6.074 -10.241  17.445  0.00  0.00    -0.311 N 
ATOM     25  C   UNL     1      -7.190 -10.086  18.255  0.00  0.00    +0.214 C 
ATOM     42  H   UNL     1      -6.039  -9.759  16.552  0.00  0.00    +0.149 HD
BRANCH   9  27
ATOM     27  C   UNL     1      -4.947 -11.070  17.805  0.00  0.00    +0.139 C 
BRANCH  27  29
ATOM     29  C   UNL     1      -4.066 -11.365  16.626  0.00  0.00    -0.030 A 
ATOM     31  C   UNL     1      -2.949 -10.569  16.373  0.00  0.00    +0.009 A 
ATOM     32  C   UNL     1      -4.365 -12.437  15.784  0.00  0.00    +0.009 A 
ATOM     34  C   UNL     1      -2.131 -10.844  15.277  0.00  0.00    +0.046 A 
ATOM     35  C   UNL     1      -3.546 -12.712  14.689  0.00  0.00    +0.046 A 
ATOM     36  C   UNL     1      -2.430 -11.914  14.435  0.00  0.00    +0.120 A 
BRANCH  36   7
ATOM      7  O   UNL     1      -1.630 -12.183  13.366  0.00  0.00    -0.495 OA
ATOM     39  C   UNL     1      -1.837 -11.405  12.189  0.00  0.00    +0.277 C 
ENDBRANCH  36   7
ENDBRANCH  27  29
ENDBRANCH   9  27
ENDBRANCH  24  25
ENDBRANCH  14  24
TORSDOF 9
ENDMDL
MODEL 6
REMARK VINA RESULT:      -6.4     29.918     34.891
REMARK  Name = 11882870
REMARK  12 active torsions:
REMARK  status: ('A' for Active; 'I' for Inactive)
REMARK    1  A    between atoms: O_3  and  C_16
REMARK    2  A    between atoms: O_4  and  C_21
REMARK    3  A    between atoms: O_7  and  C_36
REMARK    4  A    between atoms: O_7  and  C_39
REMARK    5  A    between atoms: N_9  and  C_27
REMARK    6  A    between atoms: C_11  and  C_19
REMARK    7  A    between atoms: C_13  and  C_21
REMARK    8  A    between atoms: C_13  and  C_22
REMARK    9  A    between atoms: C_14  and  C_24
REMARK   10  A    between atoms: C_24  and  C_25
REMARK   11  A    between atoms: C_27  and  C_29
REMARK   12  A    between atoms: C_28  and  C_30
REMARK                            x       y       z     vdW  Elec       q    Type
REMARK                         _______ _______ _______ _____ _____    ______ ____
ROOT
ATOM      1  S   UNL     1     -10.141 -12.820  20.325  0.00  0.00    -0.057 S 
ATOM      6  O   UNL     1     -13.317  -9.511  19.753  0.00  0.00    -0.269 OA
ATOM      8  N   UNL     1     -10.698 -10.614  19.095  0.00  0.00    -0.229 NA
ATOM     10  N   UNL     1     -12.372 -11.470  20.604  0.00  0.00    -0.260 N 
ATOM     11  C   UNL     1      -7.108 -10.641  17.692  0.00  0.00    -0.019 C 
ATOM     12  C   UNL     1      -7.039 -12.232  17.683  0.00  0.00    +0.011 C 
ATOM     13  C   UNL     1      -5.660 -12.887  17.284  0.00  0.00    +0.021 C 
ATOM     14  C   UNL     1      -8.648 -10.214  17.682  0.00  0.00    +0.054 C 
ATOM     15  C   UNL     1      -6.440 -10.089  16.405  0.00  0.00    +0.010 C 
ATOM     16  C   UNL     1      -5.111 -12.189  16.008  0.00  0.00    +0.123 C 
ATOM     17  C   UNL     1      -7.670 -12.836  18.971  0.00  0.00    +0.049 C 
ATOM     18  C   UNL     1      -5.059 -10.669  16.129  0.00  0.00    +0.032 C 
ATOM     19  C   UNL     1      -6.407 -10.016  18.923  0.00  0.00    +0.012 C 
ATOM     20  C   UNL     1      -9.435 -11.007  18.694  0.00  0.00    +0.058 A 
ATOM     22  C   UNL     1      -5.893 -14.383  16.929  0.00  0.00    +0.016 C 
ATOM     23  C   UNL     1      -8.986 -12.189  19.245  0.00  0.00    +0.015 A 
ATOM     26  C   UNL     1     -11.164 -11.490  19.960  0.00  0.00    +0.165 A 
ATOM     28  C   UNL     1     -13.390 -10.498  20.482  0.00  0.00    +0.256 C 
ATOM     43  H   UNL     1     -12.529 -12.247  21.240  0.00  0.00    +0.157 HD
ENDROOT
BRANCH  28  30
ATOM      2  S   UNL     1     -14.574 -12.042  22.424  0.00  0.00    -0.092 S 
ATOM     30  C   UNL     1     -14.568 -10.716  21.341  0.00  0.00    +0.074 A 
ATOM     33  C   UNL     1     -15.732  -9.983  21.414  0.00  0.00    +0.021 A 
ATOM     37  C   UNL     1     -16.640 -10.515  22.374  0.00  0.00    +0.008 A 
ATOM     38  C   UNL     1     -16.137 -11.636  22.996  0.00  0.00    +0.046 A 
ENDBRANCH  28  30
BRANCH  16   3
ATOM      3  O   UNL     1      -3.805 -12.668  15.694  0.00  0.00    -0.391 OA
ATOM     40  H   UNL     1      -3.533 -12.259  14.855  0.00  0.00    +0.210 HD
ENDBRANCH  16   3
BRANCH  13  21
ATOM     21  C   UNL     1      -4.602 -12.888  18.409  0.00  0.00    +0.165 C 
BRANCH  21   4
ATOM      4  O   UNL     1      -4.030 -14.175  18.464  0.00  0.00    -0.394 OA
ATOM     41  H   UNL     1      -4.034 -14.533  17.560  0.00  0.00    +0.209 HD
ENDBRANCH  21   4
ENDBRANCH  13  21
BRANCH  14  24
ATOM     24  C   UNL     1      -8.892  -8.707  17.836  0.00  0.00    +0.106 C 
BRANCH  24  25
ATOM      5  O   UNL     1      -9.448  -8.562  15.486  0.00  0.00    -0.276 OA
ATOM      9  N   UNL     1     -10.351  -7.023  16.975  0.00  0.00    -0.311 N 
ATOM     25  C   UNL     1      -9.576  -8.118  16.623  0.00  0.00    +0.214 C 
ATOM     42  H   UNL     1     -10.395  -6.738  17.949  0.00  0.00    +0.149 HD
BRANCH   9  27
ATOM     27  C   UNL     1     -11.118  -6.259  16.018  0.00  0.00    +0.139 C 
BRANCH  27  29
ATOM     29  C   UNL     1     -12.506  -6.805  15.846  0.00  0.00    -0.030 A 
ATOM     31  C   UNL     1     -13.398  -6.182  14.974  0.00  0.00    +0.009 A 
ATOM     32  C   UNL     1     -12.903  -7.937  16.558  0.00  0.00    +0.009 A 
ATOM     34  C   UNL     1     -14.687  -6.689  14.814  0.00  0.00    +0.046 A 
ATOM     35  C   UNL     1     -14.192  -8.445  16.398  0.00  0.00    +0.046 A 
ATOM     36  C   UNL     1     -15.084  -7.820  15.526  0.00  0.00    +0.120 A 
BRANCH  36   7
ATOM      7  O   UNL     1     -16.342  -8.317  15.369  0.00  0.00    -0.495 OA
ATOM     39  C   UNL     1     -17.408  -7.371  15.295  0.00  0.00    +0.277 C 
ENDBRANCH  36   7
ENDBRANCH  27  29
ENDBRANCH   9  27
ENDBRANCH  24  25
ENDBRANCH  14  24
TORSDOF 9
ENDMDL
MODEL 7
REMARK VINA RESULT:      -6.2     15.602     19.716
REMARK  Name = 11882870
REMARK  12 active torsions:
REMARK  status: ('A' for Active; 'I' for Inactive)
REMARK    1  A    between atoms: O_3  and  C_16
REMARK    2  A    between atoms: O_4  and  C_21
REMARK    3  A    between atoms: O_7  and  C_36
REMARK    4  A    between atoms: O_7  and  C_39
REMARK    5  A    between atoms: N_9  and  C_27
REMARK    6  A    between atoms: C_11  and  C_19
REMARK    7  A    between atoms: C_13  and  C_21
REMARK    8  A    between atoms: C_13  and  C_22
REMARK    9  A    between atoms: C_14  and  C_24
REMARK   10  A    between atoms: C_24  and  C_25
REMARK   11  A    between atoms: C_27  and  C_29
REMARK   12  A    between atoms: C_28  and  C_30
REMARK                            x       y       z     vdW  Elec       q    Type
REMARK                         _______ _______ _______ _____ _____    ______ ____
ROOT
ATOM      1  S   UNL     1      11.299   3.582   2.397  0.00  0.00    -0.057 S 
ATOM      6  O   UNL     1       9.154   6.803   4.925  0.00  0.00    -0.269 OA
ATOM      8  N   UNL     1      10.100   5.874   2.327  0.00  0.00    -0.229 NA
ATOM     10  N   UNL     1      10.288   4.810   4.482  0.00  0.00    -0.260 N 
ATOM     11  C   UNL     1      11.077   6.124  -1.393  0.00  0.00    -0.019 C 
ATOM     12  C   UNL     1      11.022   4.546  -1.596  0.00  0.00    +0.011 C 
ATOM     13  C   UNL     1      11.474   3.988  -3.000  0.00  0.00    +0.021 C 
ATOM     14  C   UNL     1      10.188   6.490  -0.117  0.00  0.00    +0.054 C 
ATOM     15  C   UNL     1      10.461   6.824  -2.633  0.00  0.00    +0.010 C 
ATOM     16  C   UNL     1      10.805   4.828  -4.125  0.00  0.00    +0.123 C 
ATOM     17  C   UNL     1      11.658   3.796  -0.389  0.00  0.00    +0.049 C 
ATOM     18  C   UNL     1      11.017   6.329  -3.961  0.00  0.00    +0.032 C 
ATOM     19  C   UNL     1      12.517   6.655  -1.188  0.00  0.00    +0.012 C 
ATOM     20  C   UNL     1      10.497   5.572   1.038  0.00  0.00    +0.058 A 
ATOM     22  C   UNL     1      10.968   2.525  -3.152  0.00  0.00    +0.016 C 
ATOM     23  C   UNL     1      11.141   4.360   0.891  0.00  0.00    +0.015 A 
ATOM     26  C   UNL     1      10.477   4.901   3.129  0.00  0.00    +0.165 A 
ATOM     28  C   UNL     1       9.645   5.748   5.321  0.00  0.00    +0.256 C 
ATOM     43  H   UNL     1      10.666   3.969   4.911  0.00  0.00    +0.157 HD
ENDROOT
BRANCH  28  30
ATOM      2  S   UNL     1       9.500   6.654   7.912  0.00  0.00    -0.092 S 
ATOM     30  C   UNL     1       9.634   5.401   6.753  0.00  0.00    +0.074 A 
ATOM     33  C   UNL     1       9.720   4.159   7.342  0.00  0.00    +0.021 A 
ATOM     37  C   UNL     1       9.674   4.237   8.764  0.00  0.00    +0.008 A 
ATOM     38  C   UNL     1       9.556   5.535   9.207  0.00  0.00    +0.046 A 
ENDBRANCH  28  30
BRANCH  16   3
ATOM      3  O   UNL     1      11.293   4.433  -5.406  0.00  0.00    -0.391 OA
ATOM     40  H   UNL     1      10.564   3.996  -5.878  0.00  0.00    +0.210 HD
ENDBRANCH  16   3
BRANCH  13  21
ATOM     21  C   UNL     1      13.004   3.920  -3.201  0.00  0.00    +0.165 C 
BRANCH  21   4
ATOM      4  O   UNL     1      13.284   2.804  -4.015  0.00  0.00    -0.394 OA
ATOM     41  H   UNL     1      13.256   3.104  -4.939  0.00  0.00    +0.209 HD
ENDBRANCH  21   4
ENDBRANCH  13  21
BRANCH  14  24
ATOM     24  C   UNL     1      10.252   7.963   0.304  0.00  0.00    +0.106 C 
BRANCH  24  25
ATOM      5  O   UNL     1       8.346   8.947   1.424  0.00  0.00    -0.276 OA
ATOM      9  N   UNL     1       8.317   8.703  -0.887  0.00  0.00    -0.311 N 
ATOM     25  C   UNL     1       8.878   8.592   0.377  0.00  0.00    +0.214 C 
ATOM     42  H   UNL     1       8.845   8.384  -1.694  0.00  0.00    +0.149 HD
BRANCH   9  27
ATOM     27  C   UNL     1       7.007   9.267  -1.122  0.00  0.00    +0.139 C 
BRANCH  27  29
ATOM     29  C   UNL     1       6.228   8.477  -2.134  0.00  0.00    -0.030 A 
ATOM     31  C   UNL     1       6.777   7.323  -2.692  0.00  0.00    +0.009 A 
ATOM     32  C   UNL     1       4.954   8.899  -2.515  0.00  0.00    +0.009 A 
ATOM     34  C   UNL     1       6.053   6.590  -3.632  0.00  0.00    +0.046 A 
ATOM     35  C   UNL     1       4.229   8.166  -3.455  0.00  0.00    +0.046 A 
ATOM     36  C   UNL     1       4.780   7.012  -4.013  0.00  0.00    +0.120 A 
BRANCH  36   7
ATOM      7  O   UNL     1       4.072   6.295  -4.930  0.00  0.00    -0.495 OA
ATOM     39  C   UNL     1       3.057   5.426  -4.431  0.00  0.00    +0.277 C 
ENDBRANCH  36   7
ENDBRANCH  27  29
ENDBRANCH   9  27
ENDBRANCH  24  25
ENDBRANCH  14  24
TORSDOF 9
ENDMDL
MODEL 8
REMARK VINA RESULT:      -6.2     24.266     28.267
REMARK  Name = 11882870
REMARK  12 active torsions:
REMARK  status: ('A' for Active; 'I' for Inactive)
REMARK    1  A    between atoms: O_3  and  C_16
REMARK    2  A    between atoms: O_4  and  C_21
REMARK    3  A    between atoms: O_7  and  C_36
REMARK    4  A    between atoms: O_7  and  C_39
REMARK    5  A    between atoms: N_9  and  C_27
REMARK    6  A    between atoms: C_11  and  C_19
REMARK    7  A    between atoms: C_13  and  C_21
REMARK    8  A    between atoms: C_13  and  C_22
REMARK    9  A    between atoms: C_14  and  C_24
REMARK   10  A    between atoms: C_24  and  C_25
REMARK   11  A    between atoms: C_27  and  C_29
REMARK   12  A    between atoms: C_28  and  C_30
REMARK                            x       y       z     vdW  Elec       q    Type
REMARK                         _______ _______ _______ _____ _____    ______ ____
ROOT
ATOM      1  S   UNL     1      16.671  -2.545  30.585  0.00  0.00    -0.057 S 
ATOM      6  O   UNL     1      19.307  -3.857  27.023  0.00  0.00    -0.269 OA
ATOM      8  N   UNL     1      17.168  -4.455  28.913  0.00  0.00    -0.229 NA
ATOM     10  N   UNL     1      18.504  -2.459  28.713  0.00  0.00    -0.260 N 
ATOM     11  C   UNL     1      14.661  -6.640  30.864  0.00  0.00    -0.019 C 
ATOM     12  C   UNL     1      13.773  -5.386  31.282  0.00  0.00    +0.011 C 
ATOM     13  C   UNL     1      12.569  -5.658  32.264  0.00  0.00    +0.021 C 
ATOM     14  C   UNL     1      15.506  -6.236  29.569  0.00  0.00    +0.054 C 
ATOM     15  C   UNL     1      13.733  -7.826  30.489  0.00  0.00    +0.010 C 
ATOM     16  C   UNL     1      11.775  -6.901  31.770  0.00  0.00    +0.123 C 
ATOM     17  C   UNL     1      14.659  -4.176  31.697  0.00  0.00    +0.049 C 
ATOM     18  C   UNL     1      12.659  -8.120  31.528  0.00  0.00    +0.032 C 
ATOM     19  C   UNL     1      15.624  -7.097  31.986  0.00  0.00    +0.012 C 
ATOM     20  C   UNL     1      16.149  -4.883  29.743  0.00  0.00    +0.058 A 
ATOM     22  C   UNL     1      11.598  -4.443  32.223  0.00  0.00    +0.016 C 
ATOM     23  C   UNL     1      15.741  -3.968  30.692  0.00  0.00    +0.015 A 
ATOM     26  C   UNL     1      17.528  -3.240  29.269  0.00  0.00    +0.165 A 
ATOM     28  C   UNL     1      19.347  -2.788  27.627  0.00  0.00    +0.256 C 
ATOM     43  H   UNL     1      18.622  -1.548  29.148  0.00  0.00    +0.157 HD
ENDROOT
BRANCH  28  30
ATOM      2  S   UNL     1      20.472  -1.246  25.648  0.00  0.00    -0.092 S 
ATOM     30  C   UNL     1      20.343  -1.759  27.276  0.00  0.00    +0.074 A 
ATOM     33  C   UNL     1      21.239  -1.110  28.096  0.00  0.00    +0.021 A 
ATOM     37  C   UNL     1      22.041  -0.175  27.377  0.00  0.00    +0.008 A 
ATOM     38  C   UNL     1      21.728  -0.149  26.036  0.00  0.00    +0.046 A 
ENDBRANCH  28  30
BRANCH  16   3
ATOM      3  O   UNL     1      10.757  -7.251  32.706  0.00  0.00    -0.391 OA
ATOM     40  H   UNL     1       9.969  -7.514  32.201  0.00  0.00    +0.210 HD
ENDBRANCH  16   3
BRANCH  13  21
ATOM     21  C   UNL     1      12.973  -5.816  33.746  0.00  0.00    +0.165 C 
BRANCH  21   4
ATOM      4  O   UNL     1      11.950  -5.253  34.536  0.00  0.00    -0.394 OA
ATOM     41  H   UNL     1      12.103  -4.294  34.570  0.00  0.00    +0.209 HD
ENDBRANCH  21   4
ENDBRANCH  13  21
BRANCH  14  24
ATOM     24  C   UNL     1      16.527  -7.289  29.119  0.00  0.00    +0.106 C 
BRANCH  24  25
ATOM      5  O   UNL     1      15.545  -8.690  27.409  0.00  0.00    -0.276 OA
ATOM      9  N   UNL     1      16.986  -6.973  26.796  0.00  0.00    -0.311 N 
ATOM     25  C   UNL     1      16.278  -7.750  27.701  0.00  0.00    +0.214 C 
ATOM     42  H   UNL     1      17.562  -6.211  27.141  0.00  0.00    +0.149 HD
BRANCH   9  27
ATOM     27  C   UNL     1      16.940  -7.186  25.368  0.00  0.00    +0.139 C 
BRANCH  27  29
ATOM     29  C   UNL     1      17.264  -5.937  24.602  0.00  0.00    -0.030 A 
ATOM     31  C   UNL     1      18.080  -6.002  23.472  0.00  0.00    +0.009 A 
ATOM     32  C   UNL     1      16.747  -4.710  25.020  0.00  0.00    +0.009 A 
ATOM     34  C   UNL     1      18.380  -4.840  22.761  0.00  0.00    +0.046 A 
ATOM     35  C   UNL     1      17.047  -3.548  24.308  0.00  0.00    +0.046 A 
ATOM     36  C   UNL     1      17.864  -3.614  23.179  0.00  0.00    +0.120 A 
BRANCH  36   7
ATOM      7  O   UNL     1      18.156  -2.480  22.483  0.00  0.00    -0.495 OA
ATOM     39  C   UNL     1      17.345  -1.335  22.739  0.00  0.00    +0.277 C 
ENDBRANCH  36   7
ENDBRANCH  27  29
ENDBRANCH   9  27
ENDBRANCH  24  25
ENDBRANCH  14  24
TORSDOF 9
ENDMDL
MODEL 9
REMARK VINA RESULT:      -6.2     30.701     35.858
REMARK  Name = 11882870
REMARK  12 active torsions:
REMARK  status: ('A' for Active; 'I' for Inactive)
REMARK    1  A    between atoms: O_3  and  C_16
REMARK    2  A    between atoms: O_4  and  C_21
REMARK    3  A    between atoms: O_7  and  C_36
REMARK    4  A    between atoms: O_7  and  C_39
REMARK    5  A    between atoms: N_9  and  C_27
REMARK    6  A    between atoms: C_11  and  C_19
REMARK    7  A    between atoms: C_13  and  C_21
REMARK    8  A    between atoms: C_13  and  C_22
REMARK    9  A    between atoms: C_14  and  C_24
REMARK   10  A    between atoms: C_24  and  C_25
REMARK   11  A    between atoms: C_27  and  C_29
REMARK   12  A    between atoms: C_28  and  C_30
REMARK                            x       y       z     vdW  Elec       q    Type
REMARK                         _______ _______ _______ _____ _____    ______ ____
ROOT
ATOM      1  S   UNL     1     -10.966 -11.082  19.656  0.00  0.00    -0.057 S 
ATOM      6  O   UNL     1      -7.798  -9.102  16.935  0.00  0.00    -0.269 OA
ATOM      8  N   UNL     1     -10.581  -9.351  17.773  0.00  0.00    -0.229 NA
ATOM     10  N   UNL     1      -8.638 -10.523  18.586  0.00  0.00    -0.260 N 
ATOM     11  C   UNL     1     -14.407  -8.935  17.551  0.00  0.00    -0.019 C 
ATOM     12  C   UNL     1     -14.611  -9.248  19.099  0.00  0.00    +0.011 C 
ATOM     13  C   UNL     1     -16.096  -9.345  19.621  0.00  0.00    +0.021 C 
ATOM     14  C   UNL     1     -12.898  -8.454  17.339  0.00  0.00    +0.054 C 
ATOM     15  C   UNL     1     -15.351  -7.778  17.132  0.00  0.00    +0.010 C 
ATOM     16  C   UNL     1     -16.911  -8.139  19.072  0.00  0.00    +0.123 C 
ATOM     17  C   UNL     1     -13.705 -10.426  19.563  0.00  0.00    +0.049 C 
ATOM     18  C   UNL     1     -16.799  -7.976  17.560  0.00  0.00    +0.032 C 
ATOM     19  C   UNL     1     -14.690 -10.159  16.646  0.00  0.00    +0.012 C 
ATOM     20  C   UNL     1     -11.934  -9.366  18.055  0.00  0.00    +0.058 A 
ATOM     22  C   UNL     1     -16.096  -9.236  21.172  0.00  0.00    +0.016 C 
ATOM     23  C   UNL     1     -12.315 -10.229  19.062  0.00  0.00    +0.015 A 
ATOM     26  C   UNL     1      -9.973 -10.222  18.550  0.00  0.00    +0.165 A 
ATOM     28  C   UNL     1      -7.613  -9.963  17.791  0.00  0.00    +0.256 C 
ATOM     43  H   UNL     1      -8.380 -11.235  19.264  0.00  0.00    +0.157 HD
ENDROOT
BRANCH  28  30
ATOM      2  S   UNL     1      -5.094 -10.402  16.781  0.00  0.00    -0.092 S 
ATOM     30  C   UNL     1      -6.269 -10.521  18.021  0.00  0.00    +0.074 A 
ATOM     33  C   UNL     1      -5.779 -11.162  19.138  0.00  0.00    +0.021 A 
ATOM     37  C   UNL     1      -4.420 -11.557  18.975  0.00  0.00    +0.008 A 
ATOM     38  C   UNL     1      -3.924 -11.207  17.738  0.00  0.00    +0.046 A 
ENDBRANCH  28  30
BRANCH  16   3
ATOM      3  O   UNL     1     -18.289  -8.265  19.419  0.00  0.00    -0.391 OA
ATOM     40  H   UNL     1     -18.620  -7.378  19.642  0.00  0.00    +0.210 HD
ENDBRANCH  16   3
BRANCH  13  21
ATOM     21  C   UNL     1     -16.803 -10.680  19.298  0.00  0.00    +0.165 C 
BRANCH  21   4
ATOM      4  O   UNL     1     -17.664 -10.983  20.373  0.00  0.00    -0.394 OA
ATOM     41  H   UNL     1     -17.647 -11.947  20.495  0.00  0.00    +0.209 HD
ENDBRANCH  21   4
ENDBRANCH  13  21
BRANCH  14  24
ATOM     24  C   UNL     1     -12.494  -8.249  15.873  0.00  0.00    +0.106 C 
BRANCH  24  25
ATOM      5  O   UNL     1     -11.448  -6.080  16.105  0.00  0.00    -0.276 OA
ATOM      9  N   UNL     1     -13.138  -6.375  14.537  0.00  0.00    -0.311 N 
ATOM     25  C   UNL     1     -12.278  -6.789  15.544  0.00  0.00    +0.214 C 
ATOM     42  H   UNL     1     -13.786  -7.045  14.132  0.00  0.00    +0.149 HD
BRANCH   9  27
ATOM     27  C   UNL     1     -13.155  -5.026  14.020  0.00  0.00    +0.139 C 
BRANCH  27  29
ATOM     29  C   UNL     1     -12.633  -4.956  12.614  0.00  0.00    -0.030 A 
ATOM     31  C   UNL     1     -12.288  -3.725  12.058  0.00  0.00    +0.009 A 
ATOM     32  C   UNL     1     -12.493  -6.125  11.864  0.00  0.00    +0.009 A 
ATOM     34  C   UNL     1     -11.803  -3.661  10.752  0.00  0.00    +0.046 A 
ATOM     35  C   UNL     1     -12.008  -6.060  10.558  0.00  0.00    +0.046 A 
ATOM     36  C   UNL     1     -11.663  -4.828  10.002  0.00  0.00    +0.120 A 
BRANCH  36   7
ATOM      7  O   UNL     1     -11.189  -4.765   8.727  0.00  0.00    -0.495 OA
ATOM     39  C   UNL     1      -9.851  -5.211   8.510  0.00  0.00    +0.277 C 
ENDBRANCH  36   7
ENDBRANCH  27  29
ENDBRANCH   9  27
ENDBRANCH  24  25
ENDBRANCH  14  24
TORSDOF 9
ENDMDL
MODEL 10
REMARK VINA RESULT:      -6.0     15.191     18.901
REMARK  Name = 11882870
REMARK  12 active torsions:
REMARK  status: ('A' for Active; 'I' for Inactive)
REMARK    1  A    between atoms: O_3  and  C_16
REMARK    2  A    between atoms: O_4  and  C_21
REMARK    3  A    between atoms: O_7  and  C_36
REMARK    4  A    between atoms: O_7  and  C_39
REMARK    5  A    between atoms: N_9  and  C_27
REMARK    6  A    between atoms: C_11  and  C_19
REMARK    7  A    between atoms: C_13  and  C_21
REMARK    8  A    between atoms: C_13  and  C_22
REMARK    9  A    between atoms: C_14  and  C_24
REMARK   10  A    between atoms: C_24  and  C_25
REMARK   11  A    between atoms: C_27  and  C_29
REMARK   12  A    between atoms: C_28  and  C_30
REMARK                            x       y       z     vdW  Elec       q    Type
REMARK                         _______ _______ _______ _____ _____    ______ ____
ROOT
ATOM      1  S   UNL     1      12.620   5.617   1.945  0.00  0.00    -0.057 S 
ATOM      6  O   UNL     1      16.779   7.523   1.287  0.00  0.00    -0.269 OA
ATOM      8  N   UNL     1      14.306   7.370   2.826  0.00  0.00    -0.229 NA
ATOM     10  N   UNL     1      14.967   6.107   0.883  0.00  0.00    -0.260 N 
ATOM     11  C   UNL     1      11.615   8.501   5.344  0.00  0.00    -0.019 C 
ATOM     12  C   UNL     1      10.981   7.044   5.443  0.00  0.00    +0.011 C 
ATOM     13  C   UNL     1       9.670   6.890   6.305  0.00  0.00    +0.021 C 
ATOM     14  C   UNL     1      13.118   8.352   4.823  0.00  0.00    +0.054 C 
ATOM     15  C   UNL     1      11.650   9.143   6.756  0.00  0.00    +0.010 C 
ATOM     16  C   UNL     1       9.858   7.627   7.661  0.00  0.00    +0.123 C 
ATOM     17  C   UNL     1      10.895   6.366   4.044  0.00  0.00    +0.049 C 
ATOM     18  C   UNL     1      10.324   9.070   7.500  0.00  0.00    +0.032 C 
ATOM     19  C   UNL     1      10.830   9.436   4.392  0.00  0.00    +0.012 C 
ATOM     20  C   UNL     1      13.190   7.419   3.641  0.00  0.00    +0.058 A 
ATOM     22  C   UNL     1       9.446   5.384   6.624  0.00  0.00    +0.016 C 
ATOM     23  C   UNL     1      12.190   6.524   3.321  0.00  0.00    +0.015 A 
ATOM     26  C   UNL     1      14.114   6.463   1.892  0.00  0.00    +0.165 A 
ATOM     28  C   UNL     1      16.248   6.640   0.618  0.00  0.00    +0.256 C 
ATOM     43  H   UNL     1      14.616   5.380   0.264  0.00  0.00    +0.157 HD
ENDROOT
BRANCH  28  30
ATOM      2  S   UNL     1      16.364   4.612  -1.235  0.00  0.00    -0.092 S 
ATOM     30  C   UNL     1      16.919   6.091  -0.574  0.00  0.00    +0.074 A 
ATOM     33  C   UNL     1      17.983   6.606  -1.281  0.00  0.00    +0.021 A 
ATOM     37  C   UNL     1      18.346   5.777  -2.382  0.00  0.00    +0.008 A 
ATOM     38  C   UNL     1      17.547   4.659  -2.473  0.00  0.00    +0.046 A 
ENDBRANCH  28  30
BRANCH  16   3
ATOM      3  O   UNL     1       8.645   7.618   8.411  0.00  0.00    -0.391 OA
ATOM     40  H   UNL     1       8.470   6.700   8.680  0.00  0.00    +0.210 HD
ENDBRANCH  16   3
BRANCH  13  21
ATOM     21  C   UNL     1       8.379   7.359   5.598  0.00  0.00    +0.165 C 
BRANCH  21   4
ATOM      4  O   UNL     1       7.543   6.236   5.434  0.00  0.00    -0.394 OA
ATOM     41  H   UNL     1       8.077   5.446   5.619  0.00  0.00    +0.209 HD
ENDBRANCH  21   4
ENDBRANCH  13  21
BRANCH  14  24
ATOM     24  C   UNL     1      13.828   9.681   4.534  0.00  0.00    +0.106 C 
BRANCH  24  25
ATOM      5  O   UNL     1      14.611  10.806   6.527  0.00  0.00    -0.276 OA
ATOM      9  N   UNL     1      16.032   9.357   5.395  0.00  0.00    -0.311 N 
ATOM     25  C   UNL     1      14.837  10.029   5.605  0.00  0.00    +0.214 C 
ATOM     42  H   UNL     1      16.116   8.728   4.602  0.00  0.00    +0.149 HD
BRANCH   9  27
ATOM     27  C   UNL     1      17.179   9.498   6.263  0.00  0.00    +0.139 C 
BRANCH  27  29
ATOM     29  C   UNL     1      18.372   8.749   5.745  0.00  0.00    -0.030 A 
ATOM     31  C   UNL     1      18.392   8.291   4.428  0.00  0.00    +0.009 A 
ATOM     32  C   UNL     1      19.463   8.512   6.583  0.00  0.00    +0.009 A 
ATOM     34  C   UNL     1      19.501   7.595   3.948  0.00  0.00    +0.046 A 
ATOM     35  C   UNL     1      20.572   7.815   6.102  0.00  0.00    +0.046 A 
ATOM     36  C   UNL     1      20.590   7.356   4.785  0.00  0.00    +0.120 A 
BRANCH  36   7
ATOM      7  O   UNL     1      21.673   6.678   4.315  0.00  0.00    -0.495 OA
ATOM     39  C   UNL     1      22.139   7.022   3.011  0.00  0.00    +0.277 C 
ENDBRANCH  36   7
ENDBRANCH  27  29
ENDBRANCH   9  27
ENDBRANCH  24  25
ENDBRANCH  14  24
TORSDOF 9
ENDMDL
