MODEL 1
REMARK VINA RESULT:      -7.8      0.000      0.000
REMARK  Name = 11912975
REMARK  5 active torsions:
REMARK  status: ('A' for Active; 'I' for Inactive)
REMARK    1  A    between atoms: S_1  and  N_7
REMARK    2  A    between atoms: S_1  and  C_18
REMARK    3  A    between atoms: N_7  and  C_13
REMARK    4  A    between atoms: N_8  and  C_14
REMARK    5  A    between atoms: C_24  and  C_29
REMARK                            x       y       z     vdW  Elec       q    Type
REMARK                         _______ _______ _______ _____ _____    ______ ____
ROOT
ATOM      2  O   UNL     1      11.818  12.413  21.387  0.00  0.00    -0.370 OA
ATOM      3  O   UNL     1      12.544  11.594  24.309  0.00  0.00    -0.370 OA
ATOM     11  C   UNL     1      13.212  11.434  23.047  0.00  0.00    +0.170 C 
ATOM     12  C   UNL     1      12.147  11.157  22.004  0.00  0.00    +0.171 C 
ATOM     13  C   UNL     1      13.826  12.743  22.608  0.00  0.00    +0.133 C 
ATOM     14  C   UNL     1      10.973  10.641  22.803  0.00  0.00    +0.130 C 
ATOM     15  C   UNL     1      12.657  13.440  21.934  0.00  0.00    +0.183 C 
ATOM     16  C   UNL     1      11.140  11.350  24.135  0.00  0.00    +0.185 C 
ENDROOT
BRANCH  14   8
ATOM      8  N   UNL     1      11.084   9.210  22.979  0.00  0.00    -0.306 N 
ATOM      9  N   UNL     1      11.485   8.848  20.696  0.00  0.00    -0.211 NA
ATOM     10  N   UNL     1      11.419   7.006  22.249  0.00  0.00    -0.223 NA
ATOM     17  C   UNL     1      11.337   8.328  21.943  0.00  0.00    +0.216 A 
ATOM     24  C   UNL     1      11.732   7.960  19.710  0.00  0.00    +0.111 A 
ATOM     25  C   UNL     1      11.667   6.175  21.215  0.00  0.00    +0.116 A 
ATOM     26  C   UNL     1      11.834   6.599  19.912  0.00  0.00    +0.051 A 
ATOM     36  H   UNL     1      11.029   8.817  23.913  0.00  0.00    +0.149 HD
BRANCH  24  29
ATOM      6  O   UNL     1      10.933   8.187  17.499  0.00  0.00    -0.461 OA
ATOM     29  C   UNL     1      11.882   8.539  18.402  0.00  0.00    +0.153 A 
ATOM     32  C   UNL     1      12.796   9.396  17.839  0.00  0.00    +0.051 A 
ATOM     33  C   UNL     1      12.383   9.583  16.499  0.00  0.00    +0.042 A 
ATOM     34  C   UNL     1      11.245   8.826  16.341  0.00  0.00    +0.196 A 
ENDBRANCH  24  29
ENDBRANCH  14   8
BRANCH  13   7
ATOM      7  N   UNL     1      14.910  12.527  21.680  0.00  0.00    -0.182 NA
ATOM     35  H   UNL     1      14.672  12.107  20.772  0.00  0.00    +0.148 HD
BRANCH   7   1
ATOM      1  S   UNL     1      16.499  12.370  22.259  0.00  0.00    +0.059 S 
ATOM      4  O   UNL     1      16.485  12.366  23.710  0.00  0.00    -0.153 OA
ATOM      5  O   UNL     1      17.351  13.298  21.540  0.00  0.00    -0.153 OA
BRANCH   1  18
ATOM     18  C   UNL     1      16.928  10.746  21.712  0.00  0.00    +0.106 A 
ATOM     19  C   UNL     1      16.010  10.014  20.980  0.00  0.00    +0.037 A 
ATOM     20  C   UNL     1      18.173  10.235  22.027  0.00  0.00    +0.029 A 
ATOM     21  C   UNL     1      16.335   8.721  20.538  0.00  0.00    -0.016 A 
ATOM     22  C   UNL     1      18.514   8.953  21.596  0.00  0.00    +0.010 A 
ATOM     23  C   UNL     1      17.606   8.183  20.851  0.00  0.00    -0.018 A 
ATOM     27  C   UNL     1      15.427   7.952  19.792  0.00  0.00    +0.008 A 
ATOM     28  C   UNL     1      17.932   6.890  20.410  0.00  0.00    +0.008 A 
ATOM     30  C   UNL     1      15.767   6.668  19.362  0.00  0.00    +0.001 A 
ATOM     31  C   UNL     1      17.018   6.139  19.670  0.00  0.00    +0.001 A 
ENDBRANCH   1  18
ENDBRANCH   7   1
ENDBRANCH  13   7
TORSDOF 5
ENDMDL
MODEL 2
REMARK VINA RESULT:      -7.8     27.295     30.128
REMARK  Name = 11912975
REMARK  5 active torsions:
REMARK  status: ('A' for Active; 'I' for Inactive)
REMARK    1  A    between atoms: S_1  and  N_7
REMARK    2  A    between atoms: S_1  and  C_18
REMARK    3  A    between atoms: N_7  and  C_13
REMARK    4  A    between atoms: N_8  and  C_14
REMARK    5  A    between atoms: C_24  and  C_29
REMARK                            x       y       z     vdW  Elec       q    Type
REMARK                         _______ _______ _______ _____ _____    ______ ____
ROOT
ATOM      2  O   UNL     1      -6.636 -10.442  16.574  0.00  0.00    -0.370 OA
ATOM      3  O   UNL     1      -4.826 -11.108  19.027  0.00  0.00    -0.370 OA
ATOM     11  C   UNL     1      -4.987 -11.708  17.731  0.00  0.00    +0.170 C 
ATOM     12  C   UNL     1      -6.459 -11.622  17.374  0.00  0.00    +0.171 C 
ATOM     13  C   UNL     1      -4.305 -10.870  16.675  0.00  0.00    +0.133 C 
ATOM     14  C   UNL     1      -7.153 -11.462  18.707  0.00  0.00    +0.130 C 
ATOM     15  C   UNL     1      -5.359  -9.825  16.357  0.00  0.00    +0.183 C 
ATOM     16  C   UNL     1      -6.113 -10.733  19.538  0.00  0.00    +0.185 C 
ENDROOT
BRANCH  14   8
ATOM      8  N   UNL     1      -7.431 -12.761  19.280  0.00  0.00    -0.306 N 
ATOM      9  N   UNL     1      -9.602 -12.137  19.917  0.00  0.00    -0.211 NA
ATOM     10  N   UNL     1      -8.765 -14.351  20.372  0.00  0.00    -0.223 NA
ATOM     17  C   UNL     1      -8.636 -13.093  19.874  0.00  0.00    +0.216 A 
ATOM     24  C   UNL     1     -10.763 -12.496  20.503  0.00  0.00    +0.111 A 
ATOM     25  C   UNL     1      -9.953 -14.642  20.943  0.00  0.00    +0.116 A 
ATOM     26  C   UNL     1     -10.998 -13.746  21.039  0.00  0.00    +0.051 A 
ATOM     36  H   UNL     1      -6.737 -13.497  19.205  0.00  0.00    +0.149 HD
BRANCH  24  29
ATOM      6  O   UNL     1     -12.973 -11.843  21.025  0.00  0.00    -0.461 OA
ATOM     29  C   UNL     1     -11.765 -11.464  20.534  0.00  0.00    +0.153 A 
ATOM     32  C   UNL     1     -11.781 -10.140  20.170  0.00  0.00    +0.051 A 
ATOM     33  C   UNL     1     -13.086  -9.672  20.455  0.00  0.00    +0.042 A 
ATOM     34  C   UNL     1     -13.772 -10.745  20.973  0.00  0.00    +0.196 A 
ENDBRANCH  24  29
ENDBRANCH  14   8
BRANCH  13   7
ATOM      7  N   UNL     1      -3.982 -11.658  15.510  0.00  0.00    -0.182 NA
ATOM     35  H   UNL     1      -4.492 -12.542  15.387  0.00  0.00    +0.148 HD
BRANCH   7   1
ATOM      1  S   UNL     1      -2.467 -11.480  14.762  0.00  0.00    +0.059 S 
ATOM      4  O   UNL     1      -1.912 -12.790  14.479  0.00  0.00    -0.153 OA
ATOM      5  O   UNL     1      -1.693 -10.504  15.504  0.00  0.00    -0.153 OA
BRANCH   1  18
ATOM     18  C   UNL     1      -2.905 -10.729  13.224  0.00  0.00    +0.106 A 
ATOM     19  C   UNL     1      -4.234 -10.438  12.968  0.00  0.00    +0.037 A 
ATOM     20  C   UNL     1      -1.914 -10.448  12.304  0.00  0.00    +0.029 A 
ATOM     21  C   UNL     1      -4.599  -9.842  11.750  0.00  0.00    -0.016 A 
ATOM     22  C   UNL     1      -2.257  -9.854  11.089  0.00  0.00    +0.010 A 
ATOM     23  C   UNL     1      -3.596  -9.545  10.797  0.00  0.00    -0.018 A 
ATOM     27  C   UNL     1      -5.938  -9.532  11.458  0.00  0.00    +0.008 A 
ATOM     28  C   UNL     1      -3.961  -8.949   9.579  0.00  0.00    +0.008 A 
ATOM     30  C   UNL     1      -6.283  -8.940  10.242  0.00  0.00    +0.001 A 
ATOM     31  C   UNL     1      -5.295  -8.649   9.304  0.00  0.00    +0.001 A 
ENDBRANCH   1  18
ENDBRANCH   7   1
ENDBRANCH  13   7
TORSDOF 5
ENDMDL
MODEL 3
REMARK VINA RESULT:      -7.7     27.476     29.508
REMARK  Name = 11912975
REMARK  5 active torsions:
REMARK  status: ('A' for Active; 'I' for Inactive)
REMARK    1  A    between atoms: S_1  and  N_7
REMARK    2  A    between atoms: S_1  and  C_18
REMARK    3  A    between atoms: N_7  and  C_13
REMARK    4  A    between atoms: N_8  and  C_14
REMARK    5  A    between atoms: C_24  and  C_29
REMARK                            x       y       z     vdW  Elec       q    Type
REMARK                         _______ _______ _______ _____ _____    ______ ____
ROOT
ATOM      2  O   UNL     1      -5.594  -9.673  16.513  0.00  0.00    -0.370 OA
ATOM      3  O   UNL     1      -5.188 -11.596  18.937  0.00  0.00    -0.370 OA
ATOM     11  C   UNL     1      -5.343 -11.812  17.524  0.00  0.00    +0.170 C 
ATOM     12  C   UNL     1      -6.344 -10.791  17.019  0.00  0.00    +0.171 C 
ATOM     13  C   UNL     1      -4.065 -11.465  16.796  0.00  0.00    +0.133 C 
ATOM     14  C   UNL     1      -7.116 -10.389  18.253  0.00  0.00    +0.130 C 
ATOM     15  C   UNL     1      -4.193  -9.964  16.612  0.00  0.00    +0.183 C 
ATOM     16  C   UNL     1      -6.091 -10.564  19.359  0.00  0.00    +0.185 C 
ENDROOT
BRANCH  14   8
ATOM      8  N   UNL     1      -8.231 -11.289  18.456  0.00  0.00    -0.306 N 
ATOM      9  N   UNL     1      -9.783  -9.726  17.646  0.00  0.00    -0.211 NA
ATOM     10  N   UNL     1     -10.493 -11.904  18.394  0.00  0.00    -0.223 NA
ATOM     17  C   UNL     1      -9.542 -10.963  18.156  0.00  0.00    +0.216 A 
ATOM     24  C   UNL     1     -11.072  -9.443  17.365  0.00  0.00    +0.111 A 
ATOM     25  C   UNL     1     -11.760 -11.554  18.090  0.00  0.00    +0.116 A 
ATOM     26  C   UNL     1     -12.113 -10.325  17.568  0.00  0.00    +0.051 A 
ATOM     36  H   UNL     1      -8.055 -12.232  18.785  0.00  0.00    +0.149 HD
BRANCH  24  29
ATOM      6  O   UNL     1     -12.576  -7.858  16.468  0.00  0.00    -0.461 OA
ATOM     29  C   UNL     1     -11.296  -8.127  16.829  0.00  0.00    +0.153 A 
ATOM     32  C   UNL     1     -10.485  -7.044  16.590  0.00  0.00    +0.051 A 
ATOM     33  C   UNL     1     -11.321  -6.042  16.045  0.00  0.00    +0.042 A 
ATOM     34  C   UNL     1     -12.584  -6.585  15.990  0.00  0.00    +0.196 A 
ENDBRANCH  24  29
ENDBRANCH  14   8
BRANCH  13   7
ATOM      7  N   UNL     1      -3.987 -12.143  15.524  0.00  0.00    -0.182 NA
ATOM     35  H   UNL     1      -4.664 -12.897  15.354  0.00  0.00    +0.148 HD
BRANCH   7   1
ATOM      1  S   UNL     1      -2.527 -12.147  14.657  0.00  0.00    +0.059 S 
ATOM      4  O   UNL     1      -2.236 -13.495  14.209  0.00  0.00    -0.153 OA
ATOM      5  O   UNL     1      -1.537 -11.396  15.406  0.00  0.00    -0.153 OA
BRANCH   1  18
ATOM     18  C   UNL     1      -2.943 -11.178  13.238  0.00  0.00    +0.106 A 
ATOM     19  C   UNL     1      -4.252 -10.764  13.063  0.00  0.00    +0.037 A 
ATOM     20  C   UNL     1      -1.954 -10.855  12.330  0.00  0.00    +0.029 A 
ATOM     21  C   UNL     1      -4.599  -9.994  11.941  0.00  0.00    -0.016 A 
ATOM     22  C   UNL     1      -2.280 -10.090  11.209  0.00  0.00    +0.010 A 
ATOM     23  C   UNL     1      -3.599  -9.652  11.000  0.00  0.00    -0.018 A 
ATOM     27  C   UNL     1      -5.917  -9.556  11.732  0.00  0.00    +0.008 A 
ATOM     28  C   UNL     1      -3.945  -8.883   9.878  0.00  0.00    +0.008 A 
ATOM     30  C   UNL     1      -6.244  -8.792  10.611  0.00  0.00    +0.001 A 
ATOM     31  C   UNL     1      -5.260  -8.456   9.685  0.00  0.00    +0.001 A 
ENDBRANCH   1  18
ENDBRANCH   7   1
ENDBRANCH  13   7
TORSDOF 5
ENDMDL
MODEL 4
REMARK VINA RESULT:      -7.5     27.264     30.152
REMARK  Name = 11912975
REMARK  5 active torsions:
REMARK  status: ('A' for Active; 'I' for Inactive)
REMARK    1  A    between atoms: S_1  and  N_7
REMARK    2  A    between atoms: S_1  and  C_18
REMARK    3  A    between atoms: N_7  and  C_13
REMARK    4  A    between atoms: N_8  and  C_14
REMARK    5  A    between atoms: C_24  and  C_29
REMARK                            x       y       z     vdW  Elec       q    Type
REMARK                         _______ _______ _______ _____ _____    ______ ____
ROOT
ATOM      2  O   UNL     1     -15.809   3.053  24.342  0.00  0.00    -0.370 OA
ATOM      3  O   UNL     1     -18.265   4.972  24.494  0.00  0.00    -0.370 OA
ATOM     11  C   UNL     1     -16.863   5.185  24.265  0.00  0.00    +0.170 C 
ATOM     12  C   UNL     1     -16.108   4.207  25.145  0.00  0.00    +0.171 C 
ATOM     13  C   UNL     1     -16.492   4.774  22.859  0.00  0.00    +0.133 C 
ATOM     14  C   UNL     1     -17.096   3.849  26.231  0.00  0.00    +0.130 C 
ATOM     15  C   UNL     1     -16.272   3.279  23.003  0.00  0.00    +0.183 C 
ATOM     16  C   UNL     1     -18.432   3.985  25.523  0.00  0.00    +0.185 C 
ENDROOT
BRANCH  14   8
ATOM      8  N   UNL     1     -17.005   4.801  27.317  0.00  0.00    -0.306 N 
ATOM      9  N   UNL     1     -16.024   3.230  28.758  0.00  0.00    -0.211 NA
ATOM     10  N   UNL     1     -16.450   5.487  29.490  0.00  0.00    -0.223 NA
ATOM     17  C   UNL     1     -16.477   4.497  28.559  0.00  0.00    +0.216 A 
ATOM     24  C   UNL     1     -15.515   2.970  29.980  0.00  0.00    +0.111 A 
ATOM     25  C   UNL     1     -15.928   5.156  30.690  0.00  0.00    +0.116 A 
ATOM     26  C   UNL     1     -15.441   3.902  30.995  0.00  0.00    +0.051 A 
ATOM     36  H   UNL     1     -17.290   5.762  27.162  0.00  0.00    +0.149 HD
BRANCH  24  29
ATOM      6  O   UNL     1     -13.697   1.467  30.115  0.00  0.00    -0.461 OA
ATOM     29  C   UNL     1     -15.045   1.622  30.161  0.00  0.00    +0.153 A 
ATOM     32  C   UNL     1     -15.667   0.417  30.378  0.00  0.00    +0.051 A 
ATOM     33  C   UNL     1     -14.634  -0.546  30.470  0.00  0.00    +0.042 A 
ATOM     34  C   UNL     1     -13.455   0.143  30.303  0.00  0.00    +0.196 A 
ENDBRANCH  24  29
ENDBRANCH  14   8
BRANCH  13   7
ATOM      7  N   UNL     1     -15.288   5.439  22.421  0.00  0.00    -0.182 NA
ATOM     35  H   UNL     1     -14.394   5.052  22.748  0.00  0.00    +0.148 HD
BRANCH   7   1
ATOM      1  S   UNL     1     -15.347   7.070  21.952  0.00  0.00    +0.059 S 
ATOM      4  O   UNL     1     -15.075   7.913  23.101  0.00  0.00    -0.153 OA
ATOM      5  O   UNL     1     -16.541   7.285  21.156  0.00  0.00    -0.153 OA
BRANCH   1  18
ATOM     18  C   UNL     1     -13.968   7.184  20.852  0.00  0.00    +0.106 A 
ATOM     19  C   UNL     1     -14.131   7.804  19.626  0.00  0.00    +0.037 A 
ATOM     20  C   UNL     1     -12.753   6.652  21.237  0.00  0.00    +0.029 A 
ATOM     21  C   UNL     1     -13.046   7.903  18.740  0.00  0.00    -0.016 A 
ATOM     22  C   UNL     1     -11.663   6.741  20.371  0.00  0.00    +0.010 A 
ATOM     23  C   UNL     1     -11.794   7.363  19.118  0.00  0.00    -0.018 A 
ATOM     27  C   UNL     1     -13.176   8.526  17.488  0.00  0.00    +0.008 A 
ATOM     28  C   UNL     1     -10.708   7.461  18.233  0.00  0.00    +0.008 A 
ATOM     30  C   UNL     1     -12.087   8.614  16.620  0.00  0.00    +0.001 A 
ATOM     31  C   UNL     1     -10.855   8.083  16.992  0.00  0.00    +0.001 A 
ENDBRANCH   1  18
ENDBRANCH   7   1
ENDBRANCH  13   7
TORSDOF 5
ENDMDL
MODEL 5
REMARK VINA RESULT:      -7.4     27.313     30.227
REMARK  Name = 11912975
REMARK  5 active torsions:
REMARK  status: ('A' for Active; 'I' for Inactive)
REMARK    1  A    between atoms: S_1  and  N_7
REMARK    2  A    between atoms: S_1  and  C_18
REMARK    3  A    between atoms: N_7  and  C_13
REMARK    4  A    between atoms: N_8  and  C_14
REMARK    5  A    between atoms: C_24  and  C_29
REMARK                            x       y       z     vdW  Elec       q    Type
REMARK                         _______ _______ _______ _____ _____    ______ ____
ROOT
ATOM      2  O   UNL     1     -16.037   3.196  24.984  0.00  0.00    -0.370 OA
ATOM      3  O   UNL     1     -18.509   5.100  24.908  0.00  0.00    -0.370 OA
ATOM     11  C   UNL     1     -17.091   5.329  24.977  0.00  0.00    +0.170 C 
ATOM     12  C   UNL     1     -16.501   4.242  25.854  0.00  0.00    +0.171 C 
ATOM     13  C   UNL     1     -16.455   5.097  23.626  0.00  0.00    +0.133 C 
ATOM     14  C   UNL     1     -17.670   3.758  26.679  0.00  0.00    +0.130 C 
ATOM     15  C   UNL     1     -16.243   3.594  23.621  0.00  0.00    +0.183 C 
ATOM     16  C   UNL     1     -18.850   3.992  25.754  0.00  0.00    +0.185 C 
ENDROOT
BRANCH  14   8
ATOM      8  N   UNL     1     -17.801   4.564  27.874  0.00  0.00    -0.306 N 
ATOM      9  N   UNL     1     -16.427   3.131  29.125  0.00  0.00    -0.211 NA
ATOM     10  N   UNL     1     -17.394   5.101  30.120  0.00  0.00    -0.223 NA
ATOM     17  C   UNL     1     -17.189   4.256  29.076  0.00  0.00    +0.216 A 
ATOM     24  C   UNL     1     -15.845   2.862  30.313  0.00  0.00    +0.111 A 
ATOM     25  C   UNL     1     -16.782   4.772  31.277  0.00  0.00    +0.116 A 
ATOM     26  C   UNL     1     -15.989   3.654  31.434  0.00  0.00    +0.051 A 
ATOM     36  H   UNL     1     -18.323   5.433  27.833  0.00  0.00    +0.149 HD
BRANCH  24  29
ATOM      6  O   UNL     1     -15.729   0.518  30.575  0.00  0.00    -0.461 OA
ATOM     29  C   UNL     1     -15.047   1.666  30.334  0.00  0.00    +0.153 A 
ATOM     32  C   UNL     1     -13.708   1.410  30.160  0.00  0.00    +0.051 A 
ATOM     33  C   UNL     1     -13.556   0.010  30.305  0.00  0.00    +0.042 A 
ATOM     34  C   UNL     1     -14.814  -0.487  30.557  0.00  0.00    +0.196 A 
ENDBRANCH  24  29
ENDBRANCH  14   8
BRANCH  13   7
ATOM      7  N   UNL     1     -15.201   5.802  23.511  0.00  0.00    -0.182 NA
ATOM     35  H   UNL     1     -15.169   6.761  23.877  0.00  0.00    +0.148 HD
BRANCH   7   1
ATOM      1  S   UNL     1     -14.084   5.348  22.315  0.00  0.00    +0.059 S 
ATOM      4  O   UNL     1     -14.784   4.708  21.218  0.00  0.00    -0.153 OA
ATOM      5  O   UNL     1     -12.963   4.683  22.952  0.00  0.00    -0.153 OA
BRANCH   1  18
ATOM     18  C   UNL     1     -13.498   6.916  21.749  0.00  0.00    +0.106 A 
ATOM     19  C   UNL     1     -12.392   6.965  20.918  0.00  0.00    +0.037 A 
ATOM     20  C   UNL     1     -14.154   8.065  22.146  0.00  0.00    +0.029 A 
ATOM     21  C   UNL     1     -11.913   8.203  20.459  0.00  0.00    -0.016 A 
ATOM     22  C   UNL     1     -13.693   9.304  21.699  0.00  0.00    +0.010 A 
ATOM     23  C   UNL     1     -12.573   9.389  20.856  0.00  0.00    -0.018 A 
ATOM     27  C   UNL     1     -10.794   8.288  19.615  0.00  0.00    +0.008 A 
ATOM     28  C   UNL     1     -12.095  10.628  20.398  0.00  0.00    +0.008 A 
ATOM     30  C   UNL     1     -10.331   9.527  19.170  0.00  0.00    +0.001 A 
ATOM     31  C   UNL     1     -10.981  10.695  19.560  0.00  0.00    +0.001 A 
ENDBRANCH   1  18
ENDBRANCH   7   1
ENDBRANCH  13   7
TORSDOF 5
ENDMDL
MODEL 6
REMARK VINA RESULT:      -7.4     27.248     30.685
REMARK  Name = 11912975
REMARK  5 active torsions:
REMARK  status: ('A' for Active; 'I' for Inactive)
REMARK    1  A    between atoms: S_1  and  N_7
REMARK    2  A    between atoms: S_1  and  C_18
REMARK    3  A    between atoms: N_7  and  C_13
REMARK    4  A    between atoms: N_8  and  C_14
REMARK    5  A    between atoms: C_24  and  C_29
REMARK                            x       y       z     vdW  Elec       q    Type
REMARK                         _______ _______ _______ _____ _____    ______ ____
ROOT
ATOM      2  O   UNL     1      -6.179 -11.186  10.070  0.00  0.00    -0.370 OA
ATOM      3  O   UNL     1      -4.113  -8.877   9.697  0.00  0.00    -0.370 OA
ATOM     11  C   UNL     1      -4.149 -10.246   9.261  0.00  0.00    +0.170 C 
ATOM     12  C   UNL     1      -4.779 -11.058  10.375  0.00  0.00    +0.171 C 
ATOM     13  C   UNL     1      -5.107 -10.403   8.103  0.00  0.00    +0.133 C 
ATOM     14  C   UNL     1      -4.587 -10.207  11.608  0.00  0.00    +0.130 C 
ATOM     15  C   UNL     1      -6.444 -10.561   8.806  0.00  0.00    +0.183 C 
ATOM     16  C   UNL     1      -4.602  -8.798  11.044  0.00  0.00    +0.185 C 
ENDROOT
BRANCH  14   8
ATOM      8  N   UNL     1      -3.303 -10.492  12.211  0.00  0.00    -0.306 N 
ATOM      9  N   UNL     1      -4.185 -10.424  14.385  0.00  0.00    -0.211 NA
ATOM     10  N   UNL     1      -1.847 -10.874  14.010  0.00  0.00    -0.223 NA
ATOM     17  C   UNL     1      -3.106 -10.600  13.576  0.00  0.00    +0.216 A 
ATOM     24  C   UNL     1      -3.956 -10.537  15.709  0.00  0.00    +0.111 A 
ATOM     25  C   UNL     1      -1.691 -10.973  15.347  0.00  0.00    +0.116 A 
ATOM     26  C   UNL     1      -2.719 -10.813  16.254  0.00  0.00    +0.051 A 
ATOM     36  H   UNL     1      -2.503 -10.678  11.615  0.00  0.00    +0.149 HD
BRANCH  24  29
ATOM      6  O   UNL     1      -6.104  -9.594  15.989  0.00  0.00    -0.461 OA
ATOM     29  C   UNL     1      -5.116 -10.345  16.539  0.00  0.00    +0.153 A 
ATOM     32  C   UNL     1      -5.466 -10.762  17.800  0.00  0.00    +0.051 A 
ATOM     33  C   UNL     1      -6.754 -10.231  18.044  0.00  0.00    +0.042 A 
ATOM     34  C   UNL     1      -7.099  -9.528  16.913  0.00  0.00    +0.196 A 
ENDBRANCH  24  29
ENDBRANCH  14   8
BRANCH  13   7
ATOM      7  N   UNL     1      -4.790 -11.571   7.317  0.00  0.00    -0.182 NA
ATOM     35  H   UNL     1      -3.879 -12.015   7.486  0.00  0.00    +0.148 HD
BRANCH   7   1
ATOM      1  S   UNL     1      -5.548 -11.810   5.816  0.00  0.00    +0.059 S 
ATOM      4  O   UNL     1      -5.919 -10.526   5.252  0.00  0.00    -0.153 OA
ATOM      5  O   UNL     1      -6.539 -12.860   5.955  0.00  0.00    -0.153 OA
BRANCH   1  18
ATOM     18  C   UNL     1      -4.230 -12.473   4.843  0.00  0.00    +0.106 A 
ATOM     19  C   UNL     1      -3.162 -13.085   5.478  0.00  0.00    +0.037 A 
ATOM     20  C   UNL     1      -4.288 -12.367   3.467  0.00  0.00    +0.029 A 
ATOM     21  C   UNL     1      -2.106 -13.616   4.720  0.00  0.00    -0.016 A 
ATOM     22  C   UNL     1      -3.249 -12.890   2.697  0.00  0.00    +0.010 A 
ATOM     23  C   UNL     1      -2.150 -13.517   3.309  0.00  0.00    -0.018 A 
ATOM     27  C   UNL     1      -1.009 -14.244   5.331  0.00  0.00    +0.008 A 
ATOM     28  C   UNL     1      -1.094 -14.048   2.550  0.00  0.00    +0.008 A 
ATOM     30  C   UNL     1       0.032 -14.766   4.562  0.00  0.00    +0.001 A 
ATOM     31  C   UNL     1      -0.011 -14.668   3.173  0.00  0.00    +0.001 A 
ENDBRANCH   1  18
ENDBRANCH   7   1
ENDBRANCH  13   7
TORSDOF 5
ENDMDL
MODEL 7
REMARK VINA RESULT:      -7.3     28.059     30.035
REMARK  Name = 11912975
REMARK  5 active torsions:
REMARK  status: ('A' for Active; 'I' for Inactive)
REMARK    1  A    between atoms: S_1  and  N_7
REMARK    2  A    between atoms: S_1  and  C_18
REMARK    3  A    between atoms: N_7  and  C_13
REMARK    4  A    between atoms: N_8  and  C_14
REMARK    5  A    between atoms: C_24  and  C_29
REMARK                            x       y       z     vdW  Elec       q    Type
REMARK                         _______ _______ _______ _____ _____    ______ ____
ROOT
ATOM      2  O   UNL     1      -5.015 -11.902   9.872  0.00  0.00    -0.370 OA
ATOM      3  O   UNL     1      -3.633  -9.107  10.005  0.00  0.00    -0.370 OA
ATOM     11  C   UNL     1      -4.334  -9.906  10.973  0.00  0.00    +0.170 C 
ATOM     12  C   UNL     1      -5.475 -10.593  10.249  0.00  0.00    +0.171 C 
ATOM     13  C   UNL     1      -3.460 -11.045  11.446  0.00  0.00    +0.133 C 
ATOM     14  C   UNL     1      -5.700  -9.742   9.021  0.00  0.00    +0.130 C 
ATOM     15  C   UNL     1      -3.684 -12.094  10.372  0.00  0.00    +0.183 C 
ATOM     16  C   UNL     1      -4.315  -9.185   8.744  0.00  0.00    +0.185 C 
ENDROOT
BRANCH  14   8
ATOM      8  N   UNL     1      -6.620  -8.668   9.323  0.00  0.00    -0.306 N 
ATOM      9  N   UNL     1      -7.419  -8.583   7.118  0.00  0.00    -0.211 NA
ATOM     10  N   UNL     1      -8.284  -7.097   8.807  0.00  0.00    -0.223 NA
ATOM     17  C   UNL     1      -7.466  -8.099   8.388  0.00  0.00    +0.216 A 
ATOM     24  C   UNL     1      -8.258  -8.005   6.233  0.00  0.00    +0.111 A 
ATOM     25  C   UNL     1      -9.096  -6.565   7.870  0.00  0.00    +0.116 A 
ATOM     26  C   UNL     1      -9.127  -6.983   6.555  0.00  0.00    +0.051 A 
ATOM     36  H   UNL     1      -6.702  -8.337  10.278  0.00  0.00    +0.149 HD
BRANCH  24  29
ATOM      6  O   UNL     1      -7.539  -9.726   4.783  0.00  0.00    -0.461 OA
ATOM     29  C   UNL     1      -8.183  -8.537   4.898  0.00  0.00    +0.153 A 
ATOM     32  C   UNL     1      -8.630  -8.104   3.674  0.00  0.00    +0.051 A 
ATOM     33  C   UNL     1      -8.233  -9.092   2.741  0.00  0.00    +0.042 A 
ATOM     34  C   UNL     1      -7.573 -10.057   3.465  0.00  0.00    +0.196 A 
ENDBRANCH  24  29
ENDBRANCH  14   8
BRANCH  13   7
ATOM      7  N   UNL     1      -3.882 -11.523  12.741  0.00  0.00    -0.182 NA
ATOM     35  H   UNL     1      -4.892 -11.642  12.890  0.00  0.00    +0.148 HD
BRANCH   7   1
ATOM      1  S   UNL     1      -2.880 -11.295  14.093  0.00  0.00    +0.059 S 
ATOM      4  O   UNL     1      -2.066 -10.110  13.896  0.00  0.00    -0.153 OA
ATOM      5  O   UNL     1      -2.257 -12.560  14.431  0.00  0.00    -0.153 OA
BRANCH   1  18
ATOM     18  C   UNL     1      -4.056 -10.944  15.364  0.00  0.00    +0.106 A 
ATOM     19  C   UNL     1      -3.840 -11.436  16.640  0.00  0.00    +0.037 A 
ATOM     20  C   UNL     1      -5.171 -10.186  15.061  0.00  0.00    +0.029 A 
ATOM     21  C   UNL     1      -4.766 -11.168  17.661  0.00  0.00    -0.016 A 
ATOM     22  C   UNL     1      -6.100  -9.908  16.063  0.00  0.00    +0.010 A 
ATOM     23  C   UNL     1      -5.912 -10.392  17.369  0.00  0.00    -0.018 A 
ATOM     27  C   UNL     1      -4.577 -11.651  18.966  0.00  0.00    +0.008 A 
ATOM     28  C   UNL     1      -6.838 -10.123  18.390  0.00  0.00    +0.008 A 
ATOM     30  C   UNL     1      -5.508 -11.374  19.969  0.00  0.00    +0.001 A 
ATOM     31  C   UNL     1      -6.636 -10.611  19.681  0.00  0.00    +0.001 A 
ENDBRANCH   1  18
ENDBRANCH   7   1
ENDBRANCH  13   7
TORSDOF 5
ENDMDL
MODEL 8
REMARK VINA RESULT:      -7.3     27.402     29.756
REMARK  Name = 11912975
REMARK  5 active torsions:
REMARK  status: ('A' for Active; 'I' for Inactive)
REMARK    1  A    between atoms: S_1  and  N_7
REMARK    2  A    between atoms: S_1  and  C_18
REMARK    3  A    between atoms: N_7  and  C_13
REMARK    4  A    between atoms: N_8  and  C_14
REMARK    5  A    between atoms: C_24  and  C_29
REMARK                            x       y       z     vdW  Elec       q    Type
REMARK                         _______ _______ _______ _____ _____    ______ ____
ROOT
ATOM      2  O   UNL     1      -5.245 -10.427  18.216  0.00  0.00    -0.370 OA
ATOM      3  O   UNL     1      -6.938 -11.860  16.020  0.00  0.00    -0.370 OA
ATOM     11  C   UNL     1      -5.784 -11.004  15.971  0.00  0.00    +0.170 C 
ATOM     12  C   UNL     1      -5.953  -9.958  17.056  0.00  0.00    +0.171 C 
ATOM     13  C   UNL     1      -4.547 -11.766  16.385  0.00  0.00    +0.133 C 
ATOM     14  C   UNL     1      -7.440  -9.937  17.321  0.00  0.00    +0.130 C 
ATOM     15  C   UNL     1      -4.595 -11.666  17.899  0.00  0.00    +0.183 C 
ATOM     16  C   UNL     1      -7.854 -11.363  17.006  0.00  0.00    +0.185 C 
ENDROOT
BRANCH  14   8
ATOM      8  N   UNL     1      -8.092  -9.015  16.417  0.00  0.00    -0.306 N 
ATOM      9  N   UNL     1     -10.155  -9.224  17.515  0.00  0.00    -0.211 NA
ATOM     10  N   UNL     1      -9.912  -7.783  15.598  0.00  0.00    -0.223 NA
ATOM     17  C   UNL     1      -9.427  -8.664  16.513  0.00  0.00    +0.216 A 
ATOM     24  C   UNL     1     -11.452  -8.858  17.579  0.00  0.00    +0.111 A 
ATOM     25  C   UNL     1     -11.217  -7.462  15.722  0.00  0.00    +0.116 A 
ATOM     26  C   UNL     1     -12.044  -7.973  16.701  0.00  0.00    +0.051 A 
ATOM     36  H   UNL     1      -7.545  -8.550  15.700  0.00  0.00    +0.149 HD
BRANCH  24  29
ATOM      6  O   UNL     1     -11.450  -9.956  19.670  0.00  0.00    -0.461 OA
ATOM     29  C   UNL     1     -12.197  -9.468  18.648  0.00  0.00    +0.153 A 
ATOM     32  C   UNL     1     -13.535  -9.677  18.879  0.00  0.00    +0.051 A 
ATOM     33  C   UNL     1     -13.617 -10.338  20.128  0.00  0.00    +0.042 A 
ATOM     34  C   UNL     1     -12.323 -10.486  20.568  0.00  0.00    +0.196 A 
ENDBRANCH  24  29
ENDBRANCH  14   8
BRANCH  13   7
ATOM      7  N   UNL     1      -3.352 -11.149  15.859  0.00  0.00    -0.182 NA
ATOM     35  H   UNL     1      -3.288 -10.126  15.921  0.00  0.00    +0.148 HD
BRANCH   7   1
ATOM      1  S   UNL     1      -2.439 -11.952  14.674  0.00  0.00    +0.059 S 
ATOM      4  O   UNL     1      -2.940 -13.304  14.513  0.00  0.00    -0.153 OA
ATOM      5  O   UNL     1      -1.031 -11.722  14.934  0.00  0.00    -0.153 OA
BRANCH   1  18
ATOM     18  C   UNL     1      -2.849 -11.041  13.217  0.00  0.00    +0.106 A 
ATOM     19  C   UNL     1      -4.170 -10.698  12.983  0.00  0.00    +0.037 A 
ATOM     20  C   UNL     1      -1.845 -10.689  12.336  0.00  0.00    +0.029 A 
ATOM     21  C   UNL     1      -4.513  -9.974  11.830  0.00  0.00    -0.016 A 
ATOM     22  C   UNL     1      -2.167  -9.968  11.186  0.00  0.00    +0.010 A 
ATOM     23  C   UNL     1      -3.497  -9.604  10.918  0.00  0.00    -0.018 A 
ATOM     27  C   UNL     1      -5.843  -9.609  11.563  0.00  0.00    +0.008 A 
ATOM     28  C   UNL     1      -3.839  -8.880   9.764  0.00  0.00    +0.008 A 
ATOM     30  C   UNL     1      -6.166  -8.890  10.411  0.00  0.00    +0.001 A 
ATOM     31  C   UNL     1      -5.166  -8.526   9.513  0.00  0.00    +0.001 A 
ENDBRANCH   1  18
ENDBRANCH   7   1
ENDBRANCH  13   7
TORSDOF 5
ENDMDL
MODEL 9
REMARK VINA RESULT:      -7.3     27.232     30.086
REMARK  Name = 11912975
REMARK  5 active torsions:
REMARK  status: ('A' for Active; 'I' for Inactive)
REMARK    1  A    between atoms: S_1  and  N_7
REMARK    2  A    between atoms: S_1  and  C_18
REMARK    3  A    between atoms: N_7  and  C_13
REMARK    4  A    between atoms: N_8  and  C_14
REMARK    5  A    between atoms: C_24  and  C_29
REMARK                            x       y       z     vdW  Elec       q    Type
REMARK                         _______ _______ _______ _____ _____    ______ ____
ROOT
ATOM      2  O   UNL     1     -15.342   6.483  31.337  0.00  0.00    -0.370 OA
ATOM      3  O   UNL     1     -15.208   5.839  34.387  0.00  0.00    -0.370 OA
ATOM     11  C   UNL     1     -14.205   6.003  33.371  0.00  0.00    +0.170 C 
ATOM     12  C   UNL     1     -14.758   5.407  32.091  0.00  0.00    +0.171 C 
ATOM     13  C   UNL     1     -14.021   7.467  33.045  0.00  0.00    +0.133 C 
ATOM     14  C   UNL     1     -15.832   4.454  32.561  0.00  0.00    +0.130 C 
ATOM     15  C   UNL     1     -15.128   7.717  32.036  0.00  0.00    +0.183 C 
ATOM     16  C   UNL     1     -16.314   5.103  33.845  0.00  0.00    +0.185 C 
ENDROOT
BRANCH  14   8
ATOM      8  N   UNL     1     -15.254   3.157  32.842  0.00  0.00    -0.306 N 
ATOM      9  N   UNL     1     -15.657   2.384  30.663  0.00  0.00    -0.211 NA
ATOM     10  N   UNL     1     -14.599   0.970  32.304  0.00  0.00    -0.223 NA
ATOM     17  C   UNL     1     -15.168   2.140  31.908  0.00  0.00    +0.216 A 
ATOM     24  C   UNL     1     -15.555   1.370  29.778  0.00  0.00    +0.111 A 
ATOM     25  C   UNL     1     -14.530   0.000  31.368  0.00  0.00    +0.116 A 
ATOM     26  C   UNL     1     -14.997   0.144  30.077  0.00  0.00    +0.051 A 
ATOM     36  H   UNL     1     -14.838   2.984  33.750  0.00  0.00    +0.149 HD
BRANCH  24  29
ATOM      6  O   UNL     1     -16.513   0.578  27.769  0.00  0.00    -0.461 OA
ATOM     29  C   UNL     1     -16.083   1.657  28.471  0.00  0.00    +0.153 A 
ATOM     32  C   UNL     1     -16.256   2.811  27.746  0.00  0.00    +0.051 A 
ATOM     33  C   UNL     1     -16.832   2.416  26.515  0.00  0.00    +0.042 A 
ATOM     34  C   UNL     1     -16.968   1.048  26.578  0.00  0.00    +0.196 A 
ENDBRANCH  24  29
ENDBRANCH  14   8
BRANCH  13   7
ATOM      7  N   UNL     1     -12.722   7.715  32.467  0.00  0.00    -0.182 NA
ATOM     35  H   UNL     1     -12.083   6.914  32.392  0.00  0.00    +0.148 HD
BRANCH   7   1
ATOM      1  S   UNL     1     -12.066   9.281  32.505  0.00  0.00    +0.059 S 
ATOM      4  O   UNL     1     -10.631   9.198  32.703  0.00  0.00    -0.153 OA
ATOM      5  O   UNL     1     -12.877  10.106  33.380  0.00  0.00    -0.153 OA
BRANCH   1  18
ATOM     18  C   UNL     1     -12.357   9.839  30.854  0.00  0.00    +0.106 A 
ATOM     19  C   UNL     1     -11.368   9.675  29.900  0.00  0.00    +0.037 A 
ATOM     20  C   UNL     1     -13.567  10.431  30.546  0.00  0.00    +0.029 A 
ATOM     21  C   UNL     1     -11.583  10.114  28.584  0.00  0.00    -0.016 A 
ATOM     22  C   UNL     1     -13.799  10.872  29.243  0.00  0.00    +0.010 A 
ATOM     23  C   UNL     1     -12.817  10.721  28.250  0.00  0.00    -0.018 A 
ATOM     27  C   UNL     1     -10.601   9.962  27.591  0.00  0.00    +0.008 A 
ATOM     28  C   UNL     1     -13.032  11.160  26.934  0.00  0.00    +0.008 A 
ATOM     30  C   UNL     1     -10.832  10.405  26.288  0.00  0.00    +0.001 A 
ATOM     31  C   UNL     1     -12.046  11.002  25.960  0.00  0.00    +0.001 A 
ENDBRANCH   1  18
ENDBRANCH   7   1
ENDBRANCH  13   7
TORSDOF 5
ENDMDL
MODEL 10
REMARK VINA RESULT:      -7.2     26.614     30.519
REMARK  Name = 11912975
REMARK  5 active torsions:
REMARK  status: ('A' for Active; 'I' for Inactive)
REMARK    1  A    between atoms: S_1  and  N_7
REMARK    2  A    between atoms: S_1  and  C_18
REMARK    3  A    between atoms: N_7  and  C_13
REMARK    4  A    between atoms: N_8  and  C_14
REMARK    5  A    between atoms: C_24  and  C_29
REMARK                            x       y       z     vdW  Elec       q    Type
REMARK                         _______ _______ _______ _____ _____    ______ ____
ROOT
ATOM      2  O   UNL     1      -7.501 -11.967  15.706  0.00  0.00    -0.370 OA
ATOM      3  O   UNL     1      -6.182 -13.622  18.000  0.00  0.00    -0.370 OA
ATOM     11  C   UNL     1      -6.692 -12.280  17.922  0.00  0.00    +0.170 C 
ATOM     12  C   UNL     1      -6.353 -11.748  16.543  0.00  0.00    +0.171 C 
ATOM     13  C   UNL     1      -8.203 -12.290  17.950  0.00  0.00    +0.133 C 
ATOM     14  C   UNL     1      -5.200 -12.612  16.087  0.00  0.00    +0.130 C 
ATOM     15  C   UNL     1      -8.554 -12.541  16.494  0.00  0.00    +0.183 C 
ATOM     16  C   UNL     1      -5.472 -13.929  16.791  0.00  0.00    +0.185 C 
ENDROOT
BRANCH  14   8
ATOM      8  N   UNL     1      -3.948 -12.049  16.544  0.00  0.00    -0.306 N 
ATOM      9  N   UNL     1      -3.447 -11.162  14.430  0.00  0.00    -0.211 NA
ATOM     10  N   UNL     1      -1.943 -10.859  16.288  0.00  0.00    -0.223 NA
ATOM     17  C   UNL     1      -3.087 -11.335  15.729  0.00  0.00    +0.216 A 
ATOM     24  C   UNL     1      -2.585 -10.461  13.665  0.00  0.00    +0.111 A 
ATOM     25  C   UNL     1      -1.127 -10.167  15.465  0.00  0.00    +0.116 A 
ATOM     26  C   UNL     1      -1.398  -9.935  14.132  0.00  0.00    +0.051 A 
ATOM     36  H   UNL     1      -3.696 -12.125  17.523  0.00  0.00    +0.149 HD
BRANCH  24  29
ATOM      6  O   UNL     1      -4.246 -10.728  12.007  0.00  0.00    -0.461 OA
ATOM     29  C   UNL     1      -2.992 -10.296  12.295  0.00  0.00    +0.153 A 
ATOM     32  C   UNL     1      -2.384  -9.784  11.175  0.00  0.00    +0.051 A 
ATOM     33  C   UNL     1      -3.327  -9.911  10.127  0.00  0.00    +0.042 A 
ATOM     34  C   UNL     1      -4.443 -10.491  10.683  0.00  0.00    +0.196 A 
ENDBRANCH  24  29
ENDBRANCH  14   8
BRANCH  13   7
ATOM      7  N   UNL     1      -8.726 -11.023  18.402  0.00  0.00    -0.182 NA
ATOM     35  H   UNL     1      -8.049 -10.264  18.550  0.00  0.00    +0.148 HD
BRANCH   7   1
ATOM      1  S   UNL     1     -10.207 -10.968  19.231  0.00  0.00    +0.059 S 
ATOM      4  O   UNL     1     -10.008 -10.362  20.534  0.00  0.00    -0.153 OA
ATOM      5  O   UNL     1     -10.853 -12.262  19.119  0.00  0.00    -0.153 OA
BRANCH   1  18
ATOM     18  C   UNL     1     -11.138  -9.840  18.240  0.00  0.00    +0.106 A 
ATOM     19  C   UNL     1     -10.486  -8.787  17.621  0.00  0.00    +0.037 A 
ATOM     20  C   UNL     1     -12.499 -10.028  18.103  0.00  0.00    +0.029 A 
ATOM     21  C   UNL     1     -11.212  -7.881  16.831  0.00  0.00    -0.016 A 
ATOM     22  C   UNL     1     -13.236  -9.139  17.320  0.00  0.00    +0.010 A 
ATOM     23  C   UNL     1     -12.607  -8.059  16.678  0.00  0.00    -0.018 A 
ATOM     27  C   UNL     1     -10.583  -6.802  16.188  0.00  0.00    +0.008 A 
ATOM     28  C   UNL     1     -13.333  -7.153  15.888  0.00  0.00    +0.008 A 
ATOM     30  C   UNL     1     -11.319  -5.911  15.407  0.00  0.00    +0.001 A 
ATOM     31  C   UNL     1     -12.692  -6.087  15.257  0.00  0.00    +0.001 A 
ENDBRANCH   1  18
ENDBRANCH   7   1
ENDBRANCH  13   7
TORSDOF 5
ENDMDL
