MODEL 1
REMARK VINA RESULT:      -6.8      0.000      0.000
REMARK  Name = 45360614
REMARK  12 active torsions:
REMARK  status: ('A' for Active; 'I' for Inactive)
REMARK    1  A    between atoms: S_1  and  N_7
REMARK    2  A    between atoms: S_1  and  C_16
REMARK    3  A    between atoms: O_4  and  C_17
REMARK    4  A    between atoms: O_4  and  C_32
REMARK    5  A    between atoms: O_6  and  C_35
REMARK    6  A    between atoms: O_6  and  C_38
REMARK    7  A    between atoms: N_8  and  C_18
REMARK    8  A    between atoms: N_10  and  C_25
REMARK    9  A    between atoms: N_10  and  C_36
REMARK   10  A    between atoms: N_10  and  C_37
REMARK   11  A    between atoms: C_11  and  C_17
REMARK   12  A    between atoms: C_18  and  C_23
REMARK                            x       y       z     vdW  Elec       q    Type
REMARK                         _______ _______ _______ _____ _____    ______ ____
ROOT
ATOM      7  N   UNL     1      13.824   8.718  20.745  0.00  0.00    -0.157 NA
ATOM      8  N   UNL     1      12.593  12.220  20.279  0.00  0.00    -0.328 N 
ATOM      9  N   UNL     1      11.200  11.712  21.950  0.00  0.00    -0.240 NA
ATOM     11  C   UNL     1      12.531   8.210  21.332  0.00  0.00    +0.194 C 
ATOM     12  C   UNL     1      13.731   9.968  19.904  0.00  0.00    +0.165 C 
ATOM     13  C   UNL     1      11.840   9.275  22.210  0.00  0.00    +0.089 C 
ATOM     14  C   UNL     1      12.798  10.903  20.564  0.00  0.00    +0.057 A 
ATOM     15  C   UNL     1      11.930  10.615  21.587  0.00  0.00    +0.066 A 
ATOM     19  C   UNL     1      11.622  12.663  21.141  0.00  0.00    +0.200 A 
ENDROOT
BRANCH   7   1
ATOM      1  S   UNL     1      14.926   7.536  20.178  0.00  0.00    +0.062 S 
ATOM      2  O   UNL     1      14.944   7.562  18.731  0.00  0.00    -0.153 OA
ATOM      3  O   UNL     1      14.701   6.301  20.898  0.00  0.00    -0.153 OA
BRANCH   1  16
ATOM     16  C   UNL     1      16.444   8.230  20.750  0.00  0.00    +0.113 A 
ATOM     20  C   UNL     1      17.665   7.537  20.697  0.00  0.00    +0.010 A 
ATOM     21  C   UNL     1      16.382   9.523  21.269  0.00  0.00    +0.029 A 
ATOM     22  C   UNL     1      18.839   8.166  21.178  0.00  0.00    +0.005 A 
ATOM     24  C   UNL     1      17.747   6.234  20.179  0.00  0.00    +0.010 A 
ATOM     25  C   UNL     1      20.059   7.474  21.125  0.00  0.00    +0.037 A 
ATOM     26  C   UNL     1      17.535  10.141  21.741  0.00  0.00    +0.003 A 
ATOM     27  C   UNL     1      18.757   9.468  21.696  0.00  0.00    +0.010 A 
ATOM     28  C   UNL     1      18.968   5.562  20.135  0.00  0.00    +0.002 A 
ATOM     29  C   UNL     1      20.123   6.179  20.607  0.00  0.00    +0.024 A 
BRANCH  25  10
ATOM     10  N   UNL     1      21.263   8.056  21.591  0.00  0.00    -0.336 N 
ATOM     36  C   UNL     1      21.657   7.904  22.975  0.00  0.00    +0.129 C 
ATOM     37  C   UNL     1      22.103   8.813  20.690  0.00  0.00    +0.129 C 
ENDBRANCH  25  10
ENDBRANCH   1  16
ENDBRANCH   7   1
BRANCH  11  17
ATOM      5  O   UNL     1      11.109   8.482  19.411  0.00  0.00    -0.249 OA
ATOM     17  C   UNL     1      11.648   7.739  20.220  0.00  0.00    +0.326 C 
BRANCH  17   4
ATOM      4  O   UNL     1      11.549   6.379  20.261  0.00  0.00    -0.467 OA
ATOM     32  C   UNL     1      11.197   5.827  21.533  0.00  0.00    +0.280 C 
ENDBRANCH  17   4
ENDBRANCH  11  17
BRANCH   8  18
ATOM     18  C   UNL     1      13.254  13.008  19.266  0.00  0.00    +0.158 C 
BRANCH  18  23
ATOM     23  C   UNL     1      14.748  13.095  19.457  0.00  0.00    -0.028 A 
ATOM     30  C   UNL     1      15.606  12.667  18.445  0.00  0.00    +0.009 A 
ATOM     31  C   UNL     1      15.270  13.604  20.647  0.00  0.00    +0.009 A 
ATOM     33  C   UNL     1      16.988  12.747  18.622  0.00  0.00    +0.046 A 
ATOM     34  C   UNL     1      16.651  13.685  20.823  0.00  0.00    +0.046 A 
ATOM     35  C   UNL     1      17.510  13.257  19.811  0.00  0.00    +0.120 A 
BRANCH  35   6
ATOM      6  O   UNL     1      18.857  13.336  19.984  0.00  0.00    -0.495 OA
ATOM     38  C   UNL     1      19.668  12.501  19.157  0.00  0.00    +0.277 C 
ENDBRANCH  35   6
ENDBRANCH  18  23
ENDBRANCH   8  18
TORSDOF 8
ENDMDL
MODEL 2
REMARK VINA RESULT:      -6.4      2.559      5.811
REMARK  Name = 45360614
REMARK  12 active torsions:
REMARK  status: ('A' for Active; 'I' for Inactive)
REMARK    1  A    between atoms: S_1  and  N_7
REMARK    2  A    between atoms: S_1  and  C_16
REMARK    3  A    between atoms: O_4  and  C_17
REMARK    4  A    between atoms: O_4  and  C_32
REMARK    5  A    between atoms: O_6  and  C_35
REMARK    6  A    between atoms: O_6  and  C_38
REMARK    7  A    between atoms: N_8  and  C_18
REMARK    8  A    between atoms: N_10  and  C_25
REMARK    9  A    between atoms: N_10  and  C_36
REMARK   10  A    between atoms: N_10  and  C_37
REMARK   11  A    between atoms: C_11  and  C_17
REMARK   12  A    between atoms: C_18  and  C_23
REMARK                            x       y       z     vdW  Elec       q    Type
REMARK                         _______ _______ _______ _____ _____    ______ ____
ROOT
ATOM      7  N   UNL     1      14.167   8.781  19.389  0.00  0.00    -0.157 NA
ATOM      8  N   UNL     1      17.498   9.052  21.070  0.00  0.00    -0.328 N 
ATOM      9  N   UNL     1      17.698   6.896  20.518  0.00  0.00    -0.240 NA
ATOM     11  C   UNL     1      14.029   7.298  19.625  0.00  0.00    +0.194 C 
ATOM     12  C   UNL     1      15.109   9.519  20.308  0.00  0.00    +0.165 C 
ATOM     13  C   UNL     1      15.389   6.573  19.529  0.00  0.00    +0.089 C 
ATOM     14  C   UNL     1      16.311   8.687  20.507  0.00  0.00    +0.057 A 
ATOM     15  C   UNL     1      16.458   7.361  20.182  0.00  0.00    +0.066 A 
ATOM     19  C   UNL     1      18.301   7.939  21.053  0.00  0.00    +0.200 A 
ENDROOT
BRANCH   7   1
ATOM      1  S   UNL     1      12.736   9.627  18.975  0.00  0.00    +0.062 S 
ATOM      2  O   UNL     1      12.023   9.971  20.186  0.00  0.00    -0.153 OA
ATOM      3  O   UNL     1      12.075   8.930  17.893  0.00  0.00    -0.153 OA
BRANCH   1  16
ATOM     16  C   UNL     1      13.434  11.109  18.318  0.00  0.00    +0.113 A 
ATOM     20  C   UNL     1      14.135  11.147  17.102  0.00  0.00    +0.010 A 
ATOM     21  C   UNL     1      13.257  12.269  19.074  0.00  0.00    +0.029 A 
ATOM     22  C   UNL     1      14.664  12.378  16.646  0.00  0.00    +0.005 A 
ATOM     24  C   UNL     1      14.323   9.991  16.328  0.00  0.00    +0.010 A 
ATOM     25  C   UNL     1      15.364  12.417  15.430  0.00  0.00    +0.037 A 
ATOM     26  C   UNL     1      13.777  13.479  18.626  0.00  0.00    +0.003 A 
ATOM     27  C   UNL     1      14.476  13.536  17.419  0.00  0.00    +0.010 A 
ATOM     28  C   UNL     1      15.022  10.047  15.122  0.00  0.00    +0.002 A 
ATOM     29  C   UNL     1      15.542  11.257  14.673  0.00  0.00    +0.024 A 
BRANCH  25  10
ATOM     10  N   UNL     1      15.913  13.621  14.927  0.00  0.00    -0.336 N 
ATOM     36  C   UNL     1      17.273  13.992  15.249  0.00  0.00    +0.129 C 
ATOM     37  C   UNL     1      15.115  14.494  14.094  0.00  0.00    +0.129 C 
ENDBRANCH  25  10
ENDBRANCH   1  16
ENDBRANCH   7   1
BRANCH  11  17
ATOM      5  O   UNL     1      13.848   7.416  22.020  0.00  0.00    -0.249 OA
ATOM     17  C   UNL     1      13.366   7.078  20.947  0.00  0.00    +0.326 C 
BRANCH  17   4
ATOM      4  O   UNL     1      12.169   6.454  20.758  0.00  0.00    -0.467 OA
ATOM     32  C   UNL     1      11.122   6.851  21.648  0.00  0.00    +0.280 C 
ENDBRANCH  17   4
ENDBRANCH  11  17
BRANCH   8  18
ATOM     18  C   UNL     1      17.854  10.349  21.593  0.00  0.00    +0.158 C 
BRANCH  18  23
ATOM     23  C   UNL     1      18.406  11.285  20.547  0.00  0.00    -0.028 A 
ATOM     30  C   UNL     1      19.783  11.386  20.359  0.00  0.00    +0.009 A 
ATOM     31  C   UNL     1      17.536  12.048  19.767  0.00  0.00    +0.009 A 
ATOM     33  C   UNL     1      20.294  12.252  19.391  0.00  0.00    +0.046 A 
ATOM     34  C   UNL     1      18.047  12.914  18.799  0.00  0.00    +0.046 A 
ATOM     35  C   UNL     1      19.424  13.015  18.611  0.00  0.00    +0.120 A 
BRANCH  35   6
ATOM      6  O   UNL     1      19.922  13.859  17.667  0.00  0.00    -0.495 OA
ATOM     38  C   UNL     1      20.723  13.282  16.636  0.00  0.00    +0.277 C 
ENDBRANCH  35   6
ENDBRANCH  18  23
ENDBRANCH   8  18
TORSDOF 8
ENDMDL
MODEL 3
REMARK VINA RESULT:      -6.1      3.016      7.086
REMARK  Name = 45360614
REMARK  12 active torsions:
REMARK  status: ('A' for Active; 'I' for Inactive)
REMARK    1  A    between atoms: S_1  and  N_7
REMARK    2  A    between atoms: S_1  and  C_16
REMARK    3  A    between atoms: O_4  and  C_17
REMARK    4  A    between atoms: O_4  and  C_32
REMARK    5  A    between atoms: O_6  and  C_35
REMARK    6  A    between atoms: O_6  and  C_38
REMARK    7  A    between atoms: N_8  and  C_18
REMARK    8  A    between atoms: N_10  and  C_25
REMARK    9  A    between atoms: N_10  and  C_36
REMARK   10  A    between atoms: N_10  and  C_37
REMARK   11  A    between atoms: C_11  and  C_17
REMARK   12  A    between atoms: C_18  and  C_23
REMARK                            x       y       z     vdW  Elec       q    Type
REMARK                         _______ _______ _______ _____ _____    ______ ____
ROOT
ATOM      7  N   UNL     1      14.332   9.109  19.962  0.00  0.00    -0.157 NA
ATOM      8  N   UNL     1      17.570   7.303  20.460  0.00  0.00    -0.328 N 
ATOM      9  N   UNL     1      16.726   5.850  18.989  0.00  0.00    -0.240 NA
ATOM     11  C   UNL     1      13.564   7.876  19.554  0.00  0.00    +0.194 C 
ATOM     12  C   UNL     1      15.587   8.878  20.767  0.00  0.00    +0.165 C 
ATOM     13  C   UNL     1      14.436   6.903  18.732  0.00  0.00    +0.089 C 
ATOM     14  C   UNL     1      16.299   7.718  20.196  0.00  0.00    +0.057 A 
ATOM     15  C   UNL     1      15.802   6.810  19.295  0.00  0.00    +0.066 A 
ATOM     19  C   UNL     1      17.781   6.175  19.709  0.00  0.00    +0.200 A 
ENDROOT
BRANCH   7   1
ATOM      1  S   UNL     1      13.403  10.470  20.429  0.00  0.00    +0.062 S 
ATOM      2  O   UNL     1      13.775  10.856  21.773  0.00  0.00    -0.153 OA
ATOM      3  O   UNL     1      12.019  10.238  20.076  0.00  0.00    -0.153 OA
BRANCH   1  16
ATOM     16  C   UNL     1      14.051  11.680  19.321  0.00  0.00    +0.113 A 
ATOM     20  C   UNL     1      14.025  11.525  17.925  0.00  0.00    +0.010 A 
ATOM     21  C   UNL     1      14.603  12.824  19.899  0.00  0.00    +0.029 A 
ATOM     22  C   UNL     1      14.567  12.545  17.105  0.00  0.00    +0.005 A 
ATOM     24  C   UNL     1      13.474  10.382  17.324  0.00  0.00    +0.010 A 
ATOM     25  C   UNL     1      14.541  12.390  15.710  0.00  0.00    +0.037 A 
ATOM     26  C   UNL     1      15.136  13.825  19.094  0.00  0.00    +0.003 A 
ATOM     27  C   UNL     1      15.118  13.688  17.705  0.00  0.00    +0.010 A 
ATOM     28  C   UNL     1      13.457  10.245  15.936  0.00  0.00    +0.002 A 
ATOM     29  C   UNL     1      13.989  11.247  15.130  0.00  0.00    +0.024 A 
BRANCH  25  10
ATOM     10  N   UNL     1      15.068  13.379  14.844  0.00  0.00    -0.336 N 
ATOM     36  C   UNL     1      16.449  13.313  14.419  0.00  0.00    +0.129 C 
ATOM     37  C   UNL     1      14.232  14.466  14.385  0.00  0.00    +0.129 C 
ENDBRANCH  25  10
ENDBRANCH   1  16
ENDBRANCH   7   1
BRANCH  11  17
ATOM      5  O   UNL     1      13.471   7.360  21.901  0.00  0.00    -0.249 OA
ATOM     17  C   UNL     1      13.001   7.229  20.779  0.00  0.00    +0.326 C 
BRANCH  17   4
ATOM      4  O   UNL     1      11.906   6.490  20.441  0.00  0.00    -0.467 OA
ATOM     32  C   UNL     1      11.211   5.886  21.536  0.00  0.00    +0.280 C 
ENDBRANCH  17   4
ENDBRANCH  11  17
BRANCH   8  18
ATOM     18  C   UNL     1      18.519   7.914  21.360  0.00  0.00    +0.158 C 
BRANCH  18  23
ATOM     23  C   UNL     1      19.849   7.204  21.398  0.00  0.00    -0.028 A 
ATOM     30  C   UNL     1      20.852   7.552  20.493  0.00  0.00    +0.009 A 
ATOM     31  C   UNL     1      20.076   6.200  22.340  0.00  0.00    +0.009 A 
ATOM     33  C   UNL     1      22.082   6.895  20.529  0.00  0.00    +0.046 A 
ATOM     34  C   UNL     1      21.306   5.543  22.375  0.00  0.00    +0.046 A 
ATOM     35  C   UNL     1      22.308   5.891  21.471  0.00  0.00    +0.120 A 
BRANCH  35   6
ATOM      6  O   UNL     1      23.509   5.250  21.505  0.00  0.00    -0.495 OA
ATOM     38  C   UNL     1      23.658   4.104  20.668  0.00  0.00    +0.277 C 
ENDBRANCH  35   6
ENDBRANCH  18  23
ENDBRANCH   8  18
TORSDOF 8
ENDMDL
MODEL 4
REMARK VINA RESULT:      -6.1     28.141     32.362
REMARK  Name = 45360614
REMARK  12 active torsions:
REMARK  status: ('A' for Active; 'I' for Inactive)
REMARK    1  A    between atoms: S_1  and  N_7
REMARK    2  A    between atoms: S_1  and  C_16
REMARK    3  A    between atoms: O_4  and  C_17
REMARK    4  A    between atoms: O_4  and  C_32
REMARK    5  A    between atoms: O_6  and  C_35
REMARK    6  A    between atoms: O_6  and  C_38
REMARK    7  A    between atoms: N_8  and  C_18
REMARK    8  A    between atoms: N_10  and  C_25
REMARK    9  A    between atoms: N_10  and  C_36
REMARK   10  A    between atoms: N_10  and  C_37
REMARK   11  A    between atoms: C_11  and  C_17
REMARK   12  A    between atoms: C_18  and  C_23
REMARK                            x       y       z     vdW  Elec       q    Type
REMARK                         _______ _______ _______ _____ _____    ______ ____
ROOT
ATOM      7  N   UNL     1      -9.082 -10.602  17.385  0.00  0.00    -0.157 NA
ATOM      8  N   UNL     1      -5.513 -11.723  17.307  0.00  0.00    -0.328 N 
ATOM      9  N   UNL     1      -6.394 -13.776  17.330  0.00  0.00    -0.240 NA
ATOM     11  C   UNL     1      -9.591 -11.857  18.048  0.00  0.00    +0.194 C 
ATOM     12  C   UNL     1      -7.614 -10.300  17.564  0.00  0.00    +0.165 C 
ATOM     13  C   UNL     1      -8.826 -13.110  17.571  0.00  0.00    +0.089 C 
ATOM     14  C   UNL     1      -6.861 -11.562  17.438  0.00  0.00    +0.057 A 
ATOM     15  C   UNL     1      -7.377 -12.834  17.454  0.00  0.00    +0.066 A 
ATOM     19  C   UNL     1      -5.282 -13.074  17.245  0.00  0.00    +0.200 A 
ENDROOT
BRANCH   7   1
ATOM      1  S   UNL     1     -10.119  -9.240  17.421  0.00  0.00    +0.062 S 
ATOM      2  O   UNL     1      -9.338  -8.060  17.723  0.00  0.00    -0.153 OA
ATOM      3  O   UNL     1     -11.300  -9.569  18.191  0.00  0.00    -0.153 OA
BRANCH   1  16
ATOM     16  C   UNL     1     -10.584  -9.160  15.721  0.00  0.00    +0.113 A 
ATOM     20  C   UNL     1     -11.461  -8.186  15.217  0.00  0.00    +0.010 A 
ATOM     21  C   UNL     1     -10.033 -10.126  14.878  0.00  0.00    +0.029 A 
ATOM     22  C   UNL     1     -11.784  -8.192  13.838  0.00  0.00    +0.005 A 
ATOM     24  C   UNL     1     -12.026  -7.206  16.049  0.00  0.00    +0.010 A 
ATOM     25  C   UNL     1     -12.660  -7.218  13.334  0.00  0.00    +0.037 A 
ATOM     26  C   UNL     1     -10.351 -10.132  13.524  0.00  0.00    +0.003 A 
ATOM     27  C   UNL     1     -11.219  -9.171  13.005  0.00  0.00    +0.010 A 
ATOM     28  C   UNL     1     -12.895  -6.246  15.532  0.00  0.00    +0.002 A 
ATOM     29  C   UNL     1     -13.212  -6.251  14.176  0.00  0.00    +0.024 A 
BRANCH  25  10
ATOM     10  N   UNL     1     -13.016  -7.177  11.964  0.00  0.00    -0.336 N 
ATOM     36  C   UNL     1     -14.086  -8.012  11.464  0.00  0.00    +0.129 C 
ATOM     37  C   UNL     1     -12.305  -6.308  11.052  0.00  0.00    +0.129 C 
ENDBRANCH  25  10
ENDBRANCH   1  16
ENDBRANCH   7   1
BRANCH  11  17
ATOM      5  O   UNL     1      -8.938 -10.759  20.085  0.00  0.00    -0.249 OA
ATOM     17  C   UNL     1      -9.517 -11.684  19.532  0.00  0.00    +0.326 C 
BRANCH  17   4
ATOM      4  O   UNL     1     -10.185 -12.703  20.143  0.00  0.00    -0.467 OA
ATOM     32  C   UNL     1     -11.524 -12.403  20.549  0.00  0.00    +0.280 C 
ENDBRANCH  17   4
ENDBRANCH  11  17
BRANCH   8  18
ATOM     18  C   UNL     1      -4.511 -10.686  17.251  0.00  0.00    +0.158 C 
BRANCH  18  23
ATOM     23  C   UNL     1      -3.776 -10.635  15.935  0.00  0.00    -0.028 A 
ATOM     30  C   UNL     1      -2.383 -10.591  15.915  0.00  0.00    +0.009 A 
ATOM     31  C   UNL     1      -4.492 -10.634  14.737  0.00  0.00    +0.009 A 
ATOM     33  C   UNL     1      -1.703 -10.544  14.698  0.00  0.00    +0.046 A 
ATOM     34  C   UNL     1      -3.812 -10.588  13.519  0.00  0.00    +0.046 A 
ATOM     35  C   UNL     1      -2.419 -10.543  13.500  0.00  0.00    +0.120 A 
BRANCH  35   6
ATOM      6  O   UNL     1      -1.756 -10.498  12.312  0.00  0.00    -0.495 OA
ATOM     38  C   UNL     1      -2.485 -10.030  11.178  0.00  0.00    +0.277 C 
ENDBRANCH  35   6
ENDBRANCH  18  23
ENDBRANCH   8  18
TORSDOF 8
ENDMDL
MODEL 5
REMARK VINA RESULT:      -6.1     17.113     19.357
REMARK  Name = 45360614
REMARK  12 active torsions:
REMARK  status: ('A' for Active; 'I' for Inactive)
REMARK    1  A    between atoms: S_1  and  N_7
REMARK    2  A    between atoms: S_1  and  C_16
REMARK    3  A    between atoms: O_4  and  C_17
REMARK    4  A    between atoms: O_4  and  C_32
REMARK    5  A    between atoms: O_6  and  C_35
REMARK    6  A    between atoms: O_6  and  C_38
REMARK    7  A    between atoms: N_8  and  C_18
REMARK    8  A    between atoms: N_10  and  C_25
REMARK    9  A    between atoms: N_10  and  C_36
REMARK   10  A    between atoms: N_10  and  C_37
REMARK   11  A    between atoms: C_11  and  C_17
REMARK   12  A    between atoms: C_18  and  C_23
REMARK                            x       y       z     vdW  Elec       q    Type
REMARK                         _______ _______ _______ _____ _____    ______ ____
ROOT
ATOM      7  N   UNL     1      12.333   5.543   1.731  0.00  0.00    -0.157 NA
ATOM      8  N   UNL     1      15.159   7.378   3.357  0.00  0.00    -0.328 N 
ATOM      9  N   UNL     1      15.784   7.815   1.257  0.00  0.00    -0.240 NA
ATOM     11  C   UNL     1      13.081   5.274   0.450  0.00  0.00    +0.194 C 
ATOM     12  C   UNL     1      13.175   5.827   2.951  0.00  0.00    +0.165 C 
ATOM     13  C   UNL     1      14.015   6.444   0.073  0.00  0.00    +0.089 C 
ATOM     14  C   UNL     1      14.295   6.700   2.549  0.00  0.00    +0.057 A 
ATOM     15  C   UNL     1      14.702   6.981   1.268  0.00  0.00    +0.066 A 
ATOM     19  C   UNL     1      16.037   8.035   2.532  0.00  0.00    +0.200 A 
ENDROOT
BRANCH   7   1
ATOM      1  S   UNL     1      10.931   4.601   2.014  0.00  0.00    +0.062 S 
ATOM      2  O   UNL     1      11.284   3.464   2.837  0.00  0.00    -0.153 OA
ATOM      3  O   UNL     1      10.224   4.425   0.763  0.00  0.00    -0.153 OA
BRANCH   1  16
ATOM     16  C   UNL     1      10.001   5.721   3.010  0.00  0.00    +0.113 A 
ATOM     20  C   UNL     1       9.490   6.934   2.518  0.00  0.00    +0.010 A 
ATOM     21  C   UNL     1       9.787   5.346   4.337  0.00  0.00    +0.029 A 
ATOM     22  C   UNL     1       8.754   7.777   3.384  0.00  0.00    +0.005 A 
ATOM     24  C   UNL     1       9.695   7.329   1.186  0.00  0.00    +0.010 A 
ATOM     25  C   UNL     1       8.244   8.990   2.892  0.00  0.00    +0.037 A 
ATOM     26  C   UNL     1       9.064   6.176   5.188  0.00  0.00    +0.003 A 
ATOM     27  C   UNL     1       8.549   7.383   4.716  0.00  0.00    +0.010 A 
ATOM     28  C   UNL     1       9.181   8.536   0.714  0.00  0.00    +0.002 A 
ATOM     29  C   UNL     1       8.456   9.366   1.565  0.00  0.00    +0.024 A 
BRANCH  25  10
ATOM     10  N   UNL     1       7.500   9.870   3.715  0.00  0.00    -0.336 N 
ATOM     36  C   UNL     1       6.062   9.952   3.580  0.00  0.00    +0.129 C 
ATOM     37  C   UNL     1       8.173  10.699   4.691  0.00  0.00    +0.129 C 
ENDBRANCH  25  10
ENDBRANCH   1  16
ENDBRANCH   7   1
BRANCH  11  17
ATOM      5  O   UNL     1      14.905   3.871   1.147  0.00  0.00    -0.249 OA
ATOM     17  C   UNL     1      13.824   3.983   0.587  0.00  0.00    +0.326 C 
BRANCH  17   4
ATOM      4  O   UNL     1      13.110   2.982  -0.003  0.00  0.00    -0.467 OA
ATOM     32  C   UNL     1      12.769   3.197  -1.376  0.00  0.00    +0.280 C 
ENDBRANCH  17   4
ENDBRANCH  11  17
BRANCH   8  18
ATOM     18  C   UNL     1      15.168   7.403   4.800  0.00  0.00    +0.158 C 
BRANCH  18  23
ATOM     23  C   UNL     1      13.877   7.908   5.396  0.00  0.00    -0.028 A 
ATOM     30  C   UNL     1      13.325   9.107   4.950  0.00  0.00    +0.009 A 
ATOM     31  C   UNL     1      13.237   7.173   6.395  0.00  0.00    +0.009 A 
ATOM     33  C   UNL     1      12.132   9.574   5.502  0.00  0.00    +0.046 A 
ATOM     34  C   UNL     1      12.044   7.639   6.947  0.00  0.00    +0.046 A 
ATOM     35  C   UNL     1      11.491   8.839   6.500  0.00  0.00    +0.120 A 
BRANCH  35   6
ATOM      6  O   UNL     1      10.327   9.294   7.038  0.00  0.00    -0.495 OA
ATOM     38  C   UNL     1       9.739   8.507   8.074  0.00  0.00    +0.277 C 
ENDBRANCH  35   6
ENDBRANCH  18  23
ENDBRANCH   8  18
TORSDOF 8
ENDMDL
MODEL 6
REMARK VINA RESULT:      -6.0     17.299     19.188
REMARK  Name = 45360614
REMARK  12 active torsions:
REMARK  status: ('A' for Active; 'I' for Inactive)
REMARK    1  A    between atoms: S_1  and  N_7
REMARK    2  A    between atoms: S_1  and  C_16
REMARK    3  A    between atoms: O_4  and  C_17
REMARK    4  A    between atoms: O_4  and  C_32
REMARK    5  A    between atoms: O_6  and  C_35
REMARK    6  A    between atoms: O_6  and  C_38
REMARK    7  A    between atoms: N_8  and  C_18
REMARK    8  A    between atoms: N_10  and  C_25
REMARK    9  A    between atoms: N_10  and  C_36
REMARK   10  A    between atoms: N_10  and  C_37
REMARK   11  A    between atoms: C_11  and  C_17
REMARK   12  A    between atoms: C_18  and  C_23
REMARK                            x       y       z     vdW  Elec       q    Type
REMARK                         _______ _______ _______ _____ _____    ______ ____
ROOT
ATOM      7  N   UNL     1      11.666   6.391   5.442  0.00  0.00    -0.157 NA
ATOM      8  N   UNL     1      14.684   8.338   4.397  0.00  0.00    -0.328 N 
ATOM      9  N   UNL     1      15.468   7.771   6.411  0.00  0.00    -0.240 NA
ATOM     11  C   UNL     1      11.895   6.592   6.919  0.00  0.00    +0.194 C 
ATOM     12  C   UNL     1      12.318   7.394   4.522  0.00  0.00    +0.165 C 
ATOM     13  C   UNL     1      13.397   6.594   7.272  0.00  0.00    +0.089 C 
ATOM     14  C   UNL     1      13.675   7.677   5.030  0.00  0.00    +0.057 A 
ATOM     15  C   UNL     1      14.178   7.343   6.263  0.00  0.00    +0.066 A 
ATOM     19  C   UNL     1      15.743   8.369   5.269  0.00  0.00    +0.200 A 
ENDROOT
BRANCH   7   1
ATOM      1  S   UNL     1      10.102   5.876   4.971  0.00  0.00    +0.062 S 
ATOM      2  O   UNL     1       9.227   7.027   4.902  0.00  0.00    -0.153 OA
ATOM      3  O   UNL     1       9.738   4.709   5.746  0.00  0.00    -0.153 OA
BRANCH   1  16
ATOM     16  C   UNL     1      10.434   5.350   3.320  0.00  0.00    +0.113 A 
ATOM     20  C   UNL     1      10.120   6.130   2.195  0.00  0.00    +0.010 A 
ATOM     21  C   UNL     1      11.034   4.099   3.173  0.00  0.00    +0.029 A 
ATOM     22  C   UNL     1      10.420   5.634   0.903  0.00  0.00    +0.005 A 
ATOM     24  C   UNL     1       9.516   7.392   2.322  0.00  0.00    +0.010 A 
ATOM     25  C   UNL     1      10.107   6.414  -0.222  0.00  0.00    +0.037 A 
ATOM     26  C   UNL     1      11.327   3.611   1.904  0.00  0.00    +0.003 A 
ATOM     27  C   UNL     1      11.024   4.373   0.775  0.00  0.00    +0.010 A 
ATOM     28  C   UNL     1       9.212   8.153   1.194  0.00  0.00    +0.002 A 
ATOM     29  C   UNL     1       9.507   7.666  -0.076  0.00  0.00    +0.024 A 
BRANCH  25  10
ATOM     10  N   UNL     1      10.386   5.966  -1.536  0.00  0.00    -0.336 N 
ATOM     36  C   UNL     1      11.613   6.357  -2.193  0.00  0.00    +0.129 C 
ATOM     37  C   UNL     1       9.441   5.122  -2.233  0.00  0.00    +0.129 C 
ENDBRANCH  25  10
ENDBRANCH   1  16
ENDBRANCH   7   1
BRANCH  11  17
ATOM      5  O   UNL     1      11.640   8.975   7.112  0.00  0.00    -0.249 OA
ATOM     17  C   UNL     1      11.214   7.853   7.347  0.00  0.00    +0.326 C 
BRANCH  17   4
ATOM      4  O   UNL     1      10.071   7.546   8.024  0.00  0.00    -0.467 OA
ATOM     32  C   UNL     1       9.085   8.582   8.066  0.00  0.00    +0.280 C 
ENDBRANCH  17   4
ENDBRANCH  11  17
BRANCH   8  18
ATOM     18  C   UNL     1      14.658   8.909   3.072  0.00  0.00    +0.158 C 
BRANCH  18  23
ATOM     23  C   UNL     1      14.973   7.912   1.985  0.00  0.00    -0.028 A 
ATOM     30  C   UNL     1      16.271   7.809   1.488  0.00  0.00    +0.009 A 
ATOM     31  C   UNL     1      13.964   7.092   1.479  0.00  0.00    +0.009 A 
ATOM     33  C   UNL     1      16.562   6.887   0.482  0.00  0.00    +0.046 A 
ATOM     34  C   UNL     1      14.255   6.169   0.473  0.00  0.00    +0.046 A 
ATOM     35  C   UNL     1      15.554   6.066  -0.024  0.00  0.00    +0.120 A 
BRANCH  35   6
ATOM      6  O   UNL     1      15.838   5.166  -1.004  0.00  0.00    -0.495 OA
ATOM     38  C   UNL     1      14.784   4.293  -1.409  0.00  0.00    +0.277 C 
ENDBRANCH  35   6
ENDBRANCH  18  23
ENDBRANCH   8  18
TORSDOF 8
ENDMDL
MODEL 7
REMARK VINA RESULT:      -6.0     17.418     19.044
REMARK  Name = 45360614
REMARK  12 active torsions:
REMARK  status: ('A' for Active; 'I' for Inactive)
REMARK    1  A    between atoms: S_1  and  N_7
REMARK    2  A    between atoms: S_1  and  C_16
REMARK    3  A    between atoms: O_4  and  C_17
REMARK    4  A    between atoms: O_4  and  C_32
REMARK    5  A    between atoms: O_6  and  C_35
REMARK    6  A    between atoms: O_6  and  C_38
REMARK    7  A    between atoms: N_8  and  C_18
REMARK    8  A    between atoms: N_10  and  C_25
REMARK    9  A    between atoms: N_10  and  C_36
REMARK   10  A    between atoms: N_10  and  C_37
REMARK   11  A    between atoms: C_11  and  C_17
REMARK   12  A    between atoms: C_18  and  C_23
REMARK                            x       y       z     vdW  Elec       q    Type
REMARK                         _______ _______ _______ _____ _____    ______ ____
ROOT
ATOM      7  N   UNL     1      11.524   6.329   5.146  0.00  0.00    -0.157 NA
ATOM      8  N   UNL     1      14.522   8.402   4.305  0.00  0.00    -0.328 N 
ATOM      9  N   UNL     1      15.175   7.892   6.380  0.00  0.00    -0.240 NA
ATOM     11  C   UNL     1      11.630   6.555   6.634  0.00  0.00    +0.194 C 
ATOM     12  C   UNL     1      12.198   7.351   4.265  0.00  0.00    +0.165 C 
ATOM     13  C   UNL     1      13.100   6.630   7.099  0.00  0.00    +0.089 C 
ATOM     14  C   UNL     1      13.498   7.701   4.870  0.00  0.00    +0.057 A 
ATOM     15  C   UNL     1      13.921   7.403   6.141  0.00  0.00    +0.066 A 
ATOM     19  C   UNL     1      15.509   8.490   5.254  0.00  0.00    +0.200 A 
ENDROOT
BRANCH   7   1
ATOM      1  S   UNL     1      10.024   5.738   4.566  0.00  0.00    +0.062 S 
ATOM      2  O   UNL     1       8.964   6.612   5.021  0.00  0.00    -0.153 OA
ATOM      3  O   UNL     1       9.962   4.310   4.793  0.00  0.00    -0.153 OA
BRANCH   1  16
ATOM     16  C   UNL     1      10.237   6.003   2.834  0.00  0.00    +0.113 A 
ATOM     20  C   UNL     1      11.027   5.168   2.028  0.00  0.00    +0.010 A 
ATOM     21  C   UNL     1       9.574   7.102   2.286  0.00  0.00    +0.029 A 
ATOM     22  C   UNL     1      11.146   5.450   0.646  0.00  0.00    +0.005 A 
ATOM     24  C   UNL     1      11.702   4.058   2.562  0.00  0.00    +0.010 A 
ATOM     25  C   UNL     1      11.936   4.616  -0.161  0.00  0.00    +0.037 A 
ATOM     26  C   UNL     1       9.691   7.380   0.928  0.00  0.00    +0.003 A 
ATOM     27  C   UNL     1      10.471   6.560   0.111  0.00  0.00    +0.010 A 
ATOM     28  C   UNL     1      12.482   3.239   1.746  0.00  0.00    +0.002 A 
ATOM     29  C   UNL     1      12.600   3.517   0.387  0.00  0.00    +0.024 A 
BRANCH  25  10
ATOM     10  N   UNL     1      12.088   4.852  -1.548  0.00  0.00    -0.336 N 
ATOM     36  C   UNL     1      11.200   4.217  -2.497  0.00  0.00    +0.129 C 
ATOM     37  C   UNL     1      13.138   5.724  -2.028  0.00  0.00    +0.129 C 
ENDBRANCH  25  10
ENDBRANCH   1  16
ENDBRANCH   7   1
BRANCH  11  17
ATOM      5  O   UNL     1      10.912   8.833   6.358  0.00  0.00    -0.249 OA
ATOM     17  C   UNL     1      10.863   7.787   6.991  0.00  0.00    +0.326 C 
BRANCH  17   4
ATOM      4  O   UNL     1      10.122   7.553   8.111  0.00  0.00    -0.467 OA
ATOM     32  C   UNL     1       9.728   6.193   8.315  0.00  0.00    +0.280 C 
ENDBRANCH  17   4
ENDBRANCH  11  17
BRANCH   8  18
ATOM     18  C   UNL     1      14.571   8.957   2.974  0.00  0.00    +0.158 C 
BRANCH  18  23
ATOM     23  C   UNL     1      15.240   8.050   1.972  0.00  0.00    -0.028 A 
ATOM     30  C   UNL     1      14.653   6.831   1.634  0.00  0.00    +0.009 A 
ATOM     31  C   UNL     1      16.445   8.431   1.383  0.00  0.00    +0.009 A 
ATOM     33  C   UNL     1      15.271   5.992   0.707  0.00  0.00    +0.046 A 
ATOM     34  C   UNL     1      17.064   7.592   0.456  0.00  0.00    +0.046 A 
ATOM     35  C   UNL     1      16.477   6.374   0.118  0.00  0.00    +0.120 A 
BRANCH  35   6
ATOM      6  O   UNL     1      17.081   5.555  -0.787  0.00  0.00    -0.495 OA
ATOM     38  C   UNL     1      16.536   4.245  -0.943  0.00  0.00    +0.277 C 
ENDBRANCH  35   6
ENDBRANCH  18  23
ENDBRANCH   8  18
TORSDOF 8
ENDMDL
MODEL 8
REMARK VINA RESULT:      -6.0      2.021      6.138
REMARK  Name = 45360614
REMARK  12 active torsions:
REMARK  status: ('A' for Active; 'I' for Inactive)
REMARK    1  A    between atoms: S_1  and  N_7
REMARK    2  A    between atoms: S_1  and  C_16
REMARK    3  A    between atoms: O_4  and  C_17
REMARK    4  A    between atoms: O_4  and  C_32
REMARK    5  A    between atoms: O_6  and  C_35
REMARK    6  A    between atoms: O_6  and  C_38
REMARK    7  A    between atoms: N_8  and  C_18
REMARK    8  A    between atoms: N_10  and  C_25
REMARK    9  A    between atoms: N_10  and  C_36
REMARK   10  A    between atoms: N_10  and  C_37
REMARK   11  A    between atoms: C_11  and  C_17
REMARK   12  A    between atoms: C_18  and  C_23
REMARK                            x       y       z     vdW  Elec       q    Type
REMARK                         _______ _______ _______ _____ _____    ______ ____
ROOT
ATOM      7  N   UNL     1      14.134   8.660  19.152  0.00  0.00    -0.157 NA
ATOM      8  N   UNL     1      17.288   9.061  21.122  0.00  0.00    -0.328 N 
ATOM      9  N   UNL     1      17.598   6.902  20.639  0.00  0.00    -0.240 NA
ATOM     11  C   UNL     1      14.017   7.178  19.406  0.00  0.00    +0.194 C 
ATOM     12  C   UNL     1      14.967   9.443  20.136  0.00  0.00    +0.165 C 
ATOM     13  C   UNL     1      15.399   6.492  19.450  0.00  0.00    +0.089 C 
ATOM     14  C   UNL     1      16.169   8.651  20.462  0.00  0.00    +0.057 A 
ATOM     15  C   UNL     1      16.381   7.324  20.180  0.00  0.00    +0.066 A 
ATOM     19  C   UNL     1      18.120   7.973  21.203  0.00  0.00    +0.200 A 
ENDROOT
BRANCH   7   1
ATOM      1  S   UNL     1      12.725   9.455  18.590  0.00  0.00    +0.062 S 
ATOM      2  O   UNL     1      11.566   8.654  18.923  0.00  0.00    -0.153 OA
ATOM      3  O   UNL     1      12.951   9.911  17.235  0.00  0.00    -0.153 OA
BRANCH   1  16
ATOM     16  C   UNL     1      12.726  10.869  19.646  0.00  0.00    +0.113 A 
ATOM     20  C   UNL     1      12.094  10.882  20.901  0.00  0.00    +0.010 A 
ATOM     21  C   UNL     1      13.396  11.998  19.175  0.00  0.00    +0.029 A 
ATOM     22  C   UNL     1      12.142  12.058  21.687  0.00  0.00    +0.005 A 
ATOM     24  C   UNL     1      11.415   9.755  21.392  0.00  0.00    +0.010 A 
ATOM     25  C   UNL     1      11.511  12.072  22.941  0.00  0.00    +0.037 A 
ATOM     26  C   UNL     1      13.442  13.154  19.947  0.00  0.00    +0.003 A 
ATOM     27  C   UNL     1      12.821  13.186  21.196  0.00  0.00    +0.010 A 
ATOM     28  C   UNL     1      10.793   9.787  22.640  0.00  0.00    +0.002 A 
ATOM     29  C   UNL     1      10.840  10.943  23.414  0.00  0.00    +0.024 A 
BRANCH  25  10
ATOM     10  N   UNL     1      11.528  13.221  23.768  0.00  0.00    -0.336 N 
ATOM     36  C   UNL     1      10.455  14.188  23.695  0.00  0.00    +0.129 C 
ATOM     37  C   UNL     1      12.624  13.441  24.686  0.00  0.00    +0.129 C 
ENDBRANCH  25  10
ENDBRANCH   1  16
ENDBRANCH   7   1
BRANCH  11  17
ATOM      5  O   UNL     1      13.612   7.339  21.771  0.00  0.00    -0.249 OA
ATOM     17  C   UNL     1      13.242   6.964  20.667  0.00  0.00    +0.326 C 
BRANCH  17   4
ATOM      4  O   UNL     1      12.087   6.298  20.384  0.00  0.00    -0.467 OA
ATOM     32  C   UNL     1      11.248   6.016  21.508  0.00  0.00    +0.280 C 
ENDBRANCH  17   4
ENDBRANCH  11  17
BRANCH   8  18
ATOM     18  C   UNL     1      17.559  10.378  21.648  0.00  0.00    +0.158 C 
BRANCH  18  23
ATOM     23  C   UNL     1      18.162  11.315  20.631  0.00  0.00    -0.028 A 
ATOM     30  C   UNL     1      17.338  12.153  19.880  0.00  0.00    +0.009 A 
ATOM     31  C   UNL     1      19.544  11.344  20.443  0.00  0.00    +0.009 A 
ATOM     33  C   UNL     1      17.896  13.019  18.939  0.00  0.00    +0.046 A 
ATOM     34  C   UNL     1      20.102  12.210  19.503  0.00  0.00    +0.046 A 
ATOM     35  C   UNL     1      19.279  13.048  18.752  0.00  0.00    +0.120 A 
BRANCH  35   6
ATOM      6  O   UNL     1      19.823  13.893  17.835  0.00  0.00    -0.495 OA
ATOM     38  C   UNL     1      21.050  14.531  18.188  0.00  0.00    +0.277 C 
ENDBRANCH  35   6
ENDBRANCH  18  23
ENDBRANCH   8  18
TORSDOF 8
ENDMDL
MODEL 9
REMARK VINA RESULT:      -6.0      2.366      5.551
REMARK  Name = 45360614
REMARK  12 active torsions:
REMARK  status: ('A' for Active; 'I' for Inactive)
REMARK    1  A    between atoms: S_1  and  N_7
REMARK    2  A    between atoms: S_1  and  C_16
REMARK    3  A    between atoms: O_4  and  C_17
REMARK    4  A    between atoms: O_4  and  C_32
REMARK    5  A    between atoms: O_6  and  C_35
REMARK    6  A    between atoms: O_6  and  C_38
REMARK    7  A    between atoms: N_8  and  C_18
REMARK    8  A    between atoms: N_10  and  C_25
REMARK    9  A    between atoms: N_10  and  C_36
REMARK   10  A    between atoms: N_10  and  C_37
REMARK   11  A    between atoms: C_11  and  C_17
REMARK   12  A    between atoms: C_18  and  C_23
REMARK                            x       y       z     vdW  Elec       q    Type
REMARK                         _______ _______ _______ _____ _____    ______ ____
ROOT
ATOM      7  N   UNL     1      14.436   9.069  20.226  0.00  0.00    -0.157 NA
ATOM      8  N   UNL     1      17.227   6.579  20.325  0.00  0.00    -0.328 N 
ATOM      9  N   UNL     1      16.386   5.898  18.371  0.00  0.00    -0.240 NA
ATOM     11  C   UNL     1      13.548   8.224  19.347  0.00  0.00    +0.194 C 
ATOM     12  C   UNL     1      15.504   8.334  21.000  0.00  0.00    +0.165 C 
ATOM     13  C   UNL     1      14.363   7.421  18.311  0.00  0.00    +0.089 C 
ATOM     14  C   UNL     1      16.094   7.308  20.119  0.00  0.00    +0.057 A 
ATOM     15  C   UNL     1      15.596   6.870  18.917  0.00  0.00    +0.066 A 
ATOM     19  C   UNL     1      17.360   5.744  19.245  0.00  0.00    +0.200 A 
ENDROOT
BRANCH   7   1
ATOM      1  S   UNL     1      13.683  10.359  21.063  0.00  0.00    +0.062 S 
ATOM      2  O   UNL     1      13.168   9.868  22.323  0.00  0.00    -0.153 OA
ATOM      3  O   UNL     1      12.833  11.084  20.142  0.00  0.00    -0.153 OA
BRANCH   1  16
ATOM     16  C   UNL     1      15.090  11.366  21.410  0.00  0.00    +0.113 A 
ATOM     20  C   UNL     1      15.866  11.963  20.403  0.00  0.00    +0.010 A 
ATOM     21  C   UNL     1      15.409  11.549  22.756  0.00  0.00    +0.029 A 
ATOM     22  C   UNL     1      16.980  12.756  20.766  0.00  0.00    +0.005 A 
ATOM     24  C   UNL     1      15.561  11.790  19.043  0.00  0.00    +0.010 A 
ATOM     25  C   UNL     1      17.756  13.353  19.760  0.00  0.00    +0.037 A 
ATOM     26  C   UNL     1      16.505  12.328  23.113  0.00  0.00    +0.003 A 
ATOM     27  C   UNL     1      17.286  12.930  22.126  0.00  0.00    +0.010 A 
ATOM     28  C   UNL     1      16.342  12.390  18.056  0.00  0.00    +0.002 A 
ATOM     29  C   UNL     1      17.438  13.171  18.413  0.00  0.00    +0.024 A 
BRANCH  25  10
ATOM     10  N   UNL     1      18.880  14.157  20.068  0.00  0.00    -0.336 N 
ATOM     36  C   UNL     1      20.194  13.561  20.173  0.00  0.00    +0.129 C 
ATOM     37  C   UNL     1      18.722  15.578  20.287  0.00  0.00    +0.129 C 
ENDBRANCH  25  10
ENDBRANCH   1  16
ENDBRANCH   7   1
BRANCH  11  17
ATOM      5  O   UNL     1      13.163   6.460  20.935  0.00  0.00    -0.249 OA
ATOM     17  C   UNL     1      12.711   7.339  20.214  0.00  0.00    +0.326 C 
BRANCH  17   4
ATOM      4  O   UNL     1      11.396   7.669  20.067  0.00  0.00    -0.467 OA
ATOM     32  C   UNL     1      10.627   7.679  21.273  0.00  0.00    +0.280 C 
ENDBRANCH  17   4
ENDBRANCH  11  17
BRANCH   8  18
ATOM     18  C   UNL     1      18.118   6.652  21.458  0.00  0.00    +0.158 C 
BRANCH  18  23
ATOM     23  C   UNL     1      19.176   7.718  21.318  0.00  0.00    -0.028 A 
ATOM     30  C   UNL     1      18.851   9.057  21.528  0.00  0.00    +0.009 A 
ATOM     31  C   UNL     1      20.482   7.362  20.979  0.00  0.00    +0.009 A 
ATOM     33  C   UNL     1      19.830  10.042  21.398  0.00  0.00    +0.046 A 
ATOM     34  C   UNL     1      21.461   8.347  20.849  0.00  0.00    +0.046 A 
ATOM     35  C   UNL     1      21.135   9.686  21.059  0.00  0.00    +0.120 A 
BRANCH  35   6
ATOM      6  O   UNL     1      22.091  10.647  20.933  0.00  0.00    -0.495 OA
ATOM     38  C   UNL     1      23.000  10.519  19.840  0.00  0.00    +0.277 C 
ENDBRANCH  35   6
ENDBRANCH  18  23
ENDBRANCH   8  18
TORSDOF 8
ENDMDL
MODEL 10
REMARK VINA RESULT:      -5.9     31.504     33.413
REMARK  Name = 45360614
REMARK  12 active torsions:
REMARK  status: ('A' for Active; 'I' for Inactive)
REMARK    1  A    between atoms: S_1  and  N_7
REMARK    2  A    between atoms: S_1  and  C_16
REMARK    3  A    between atoms: O_4  and  C_17
REMARK    4  A    between atoms: O_4  and  C_32
REMARK    5  A    between atoms: O_6  and  C_35
REMARK    6  A    between atoms: O_6  and  C_38
REMARK    7  A    between atoms: N_8  and  C_18
REMARK    8  A    between atoms: N_10  and  C_25
REMARK    9  A    between atoms: N_10  and  C_36
REMARK   10  A    between atoms: N_10  and  C_37
REMARK   11  A    between atoms: C_11  and  C_17
REMARK   12  A    between atoms: C_18  and  C_23
REMARK                            x       y       z     vdW  Elec       q    Type
REMARK                         _______ _______ _______ _____ _____    ______ ____
ROOT
ATOM      7  N   UNL     1     -13.574  -5.523  11.573  0.00  0.00    -0.157 NA
ATOM      8  N   UNL     1     -12.803  -6.116  15.185  0.00  0.00    -0.328 N 
ATOM      9  N   UNL     1     -14.984  -6.575  15.341  0.00  0.00    -0.240 NA
ATOM     11  C   UNL     1     -15.023  -5.180  11.810  0.00  0.00    +0.194 C 
ATOM     12  C   UNL     1     -12.647  -5.364  12.753  0.00  0.00    +0.165 C 
ATOM     13  C   UNL     1     -15.631  -6.015  12.957  0.00  0.00    +0.089 C 
ATOM     14  C   UNL     1     -13.339  -5.862  13.958  0.00  0.00    +0.057 A 
ATOM     15  C   UNL     1     -14.676  -6.147  14.080  0.00  0.00    +0.066 A 
ATOM     19  C   UNL     1     -13.833  -6.544  15.984  0.00  0.00    +0.200 A 
ENDROOT
BRANCH   7   1
ATOM      1  S   UNL     1     -12.915  -5.066  10.059  0.00  0.00    +0.062 S 
ATOM      2  O   UNL     1     -12.044  -3.926  10.248  0.00  0.00    -0.153 OA
ATOM      3  O   UNL     1     -13.976  -5.038   9.075  0.00  0.00    -0.153 OA
BRANCH   1  16
ATOM     16  C   UNL     1     -11.902  -6.472   9.726  0.00  0.00    +0.113 A 
ATOM     20  C   UNL     1     -10.610  -6.368   9.186  0.00  0.00    +0.010 A 
ATOM     21  C   UNL     1     -12.450  -7.720  10.026  0.00  0.00    +0.029 A 
ATOM     22  C   UNL     1      -9.862  -7.546   8.948  0.00  0.00    +0.005 A 
ATOM     24  C   UNL     1     -10.042  -5.121   8.876  0.00  0.00    +0.010 A 
ATOM     25  C   UNL     1      -8.570  -7.443   8.409  0.00  0.00    +0.037 A 
ATOM     26  C   UNL     1     -11.715  -8.877   9.792  0.00  0.00    +0.003 A 
ATOM     27  C   UNL     1     -10.429  -8.794   9.257  0.00  0.00    +0.010 A 
ATOM     28  C   UNL     1      -8.758  -5.037   8.341  0.00  0.00    +0.002 A 
ATOM     29  C   UNL     1      -8.022  -6.195   8.107  0.00  0.00    +0.024 A 
BRANCH  25  10
ATOM     10  N   UNL     1      -7.779  -8.589   8.152  0.00  0.00    -0.336 N 
ATOM     36  C   UNL     1      -7.850  -9.250   6.867  0.00  0.00    +0.129 C 
ATOM     37  C   UNL     1      -6.901  -9.112   9.175  0.00  0.00    +0.129 C 
ENDBRANCH  25  10
ENDBRANCH   1  16
ENDBRANCH   7   1
BRANCH  11  17
ATOM      5  O   UNL     1     -14.558  -3.124  12.968  0.00  0.00    -0.249 OA
ATOM     17  C   UNL     1     -15.136  -3.710  12.063  0.00  0.00    +0.326 C 
BRANCH  17   4
ATOM      4  O   UNL     1     -15.970  -3.152  11.140  0.00  0.00    -0.467 OA
ATOM     32  C   UNL     1     -15.461  -1.992  10.474  0.00  0.00    +0.280 C 
ENDBRANCH  17   4
ENDBRANCH  11  17
BRANCH   8  18
ATOM     18  C   UNL     1     -11.425  -5.962  15.585  0.00  0.00    +0.158 C 
BRANCH  18  23
ATOM     23  C   UNL     1     -10.747  -7.270  15.909  0.00  0.00    -0.028 A 
ATOM     30  C   UNL     1     -10.338  -7.540  17.214  0.00  0.00    +0.009 A 
ATOM     31  C   UNL     1     -10.531  -8.211  14.901  0.00  0.00    +0.009 A 
ATOM     33  C   UNL     1      -9.711  -8.750  17.513  0.00  0.00    +0.046 A 
ATOM     34  C   UNL     1      -9.903  -9.420  15.199  0.00  0.00    +0.046 A 
ATOM     35  C   UNL     1      -9.494  -9.690  16.505  0.00  0.00    +0.120 A 
BRANCH  35   6
ATOM      6  O   UNL     1      -8.883 -10.870  16.796  0.00  0.00    -0.495 OA
ATOM     38  C   UNL     1      -7.460 -10.854  16.913  0.00  0.00    +0.277 C 
ENDBRANCH  35   6
ENDBRANCH  18  23
ENDBRANCH   8  18
TORSDOF 8
ENDMDL
