MODEL 1
REMARK VINA RESULT:      -7.9      0.000      0.000
REMARK  Name = 28961042
REMARK  7 active torsions:
REMARK  status: ('A' for Active; 'I' for Inactive)
REMARK    1  A    between atoms: S_1  and  N_8
REMARK    2  A    between atoms: S_1  and  C_18
REMARK    3  A    between atoms: N_7  and  C_17
REMARK    4  A    between atoms: N_8  and  C_12
REMARK    5  A    between atoms: C_13  and  C_16
REMARK    6  A    between atoms: C_19  and  C_20
REMARK    7  A    between atoms: C_28  and  C_32
REMARK                            x       y       z     vdW  Elec       q    Type
REMARK                         _______ _______ _______ _____ _____    ______ ____
ROOT
ATOM      7  N   UNL     1      11.368   6.886  21.728  0.00  0.00    -0.293 NA
ATOM     12  C   UNL     1      10.630   9.067  22.106  0.00  0.00    +0.092 C 
ATOM     13  C   UNL     1      11.657   7.584  20.460  0.00  0.00    +0.147 C 
ATOM     14  C   UNL     1      11.352   9.065  20.760  0.00  0.00    +0.050 C 
ATOM     15  C   UNL     1      10.251   7.614  22.340  0.00  0.00    +0.105 C 
ATOM     17  C   UNL     1      11.061   5.472  21.549  0.00  0.00    +0.105 C 
ENDROOT
BRANCH  13  16
ATOM      2  O   UNL     1      13.289   7.614  18.643  0.00  0.00    -0.336 OA
ATOM      9  N   UNL     1      14.131   6.979  20.618  0.00  0.00    -0.190 NA
ATOM     10  N   UNL     1      14.646   7.351  18.421  0.00  0.00    -0.056 NA
ATOM     16  C   UNL     1      13.069   7.370  19.961  0.00  0.00    +0.245 A 
ATOM     19  C   UNL     1      15.075   6.982  19.631  0.00  0.00    +0.202 A 
BRANCH  19  20
ATOM      5  O   UNL     1      19.179   7.087  22.279  0.00  0.00    -0.453 OA
ATOM      6  O   UNL     1      20.329   5.630  20.742  0.00  0.00    -0.453 OA
ATOM     20  C   UNL     1      16.436   6.613  19.889  0.00  0.00    +0.026 A 
ATOM     23  C   UNL     1      17.083   7.098  21.027  0.00  0.00    +0.061 A 
ATOM     26  C   UNL     1      17.107   5.763  18.992  0.00  0.00    +0.015 A 
ATOM     27  C   UNL     1      18.393   6.715  21.233  0.00  0.00    +0.167 A 
ATOM     29  C   UNL     1      19.050   5.883  20.355  0.00  0.00    +0.166 A 
ATOM     30  C   UNL     1      18.433   5.389  19.223  0.00  0.00    +0.050 A 
ATOM     31  C   UNL     1      20.404   6.395  21.962  0.00  0.00    +0.466 C 
ENDBRANCH  19  20
ENDBRANCH  13  16
BRANCH  12   8
ATOM      8  N   UNL     1      11.553   9.530  23.172  0.00  0.00    -0.186 NA
ATOM     33  H   UNL     1      11.740   8.884  23.949  0.00  0.00    +0.148 HD
BRANCH   8   1
ATOM      1  S   UNL     1      11.930  11.179  23.304  0.00  0.00    +0.059 S 
ATOM      3  O   UNL     1      12.104  11.525  24.702  0.00  0.00    -0.153 OA
ATOM      4  O   UNL     1      11.012  11.934  22.474  0.00  0.00    -0.153 OA
BRANCH   1  18
ATOM     18  C   UNL     1      13.515  11.255  22.523  0.00  0.00    +0.105 A 
ATOM     21  C   UNL     1      13.847  12.350  21.726  0.00  0.00    +0.030 A 
ATOM     22  C   UNL     1      14.432  10.220  22.705  0.00  0.00    +0.030 A 
ATOM     24  C   UNL     1      15.096  12.411  21.110  0.00  0.00    +0.021 A 
ATOM     25  C   UNL     1      15.682  10.280  22.089  0.00  0.00    +0.021 A 
ATOM     28  C   UNL     1      16.014  11.376  21.291  0.00  0.00    +0.052 A 
BRANCH  28  32
ATOM     11  N   UNL     1      18.335  11.487  20.147  0.00  0.00    -0.191 NA
ATOM     32  C   UNL     1      17.295  11.437  20.660  0.00  0.00    +0.099 C 
ENDBRANCH  28  32
ENDBRANCH   1  18
ENDBRANCH   8   1
ENDBRANCH  12   8
TORSDOF 6
ENDMDL
MODEL 2
REMARK VINA RESULT:      -6.9     27.227     29.926
REMARK  Name = 28961042
REMARK  7 active torsions:
REMARK  status: ('A' for Active; 'I' for Inactive)
REMARK    1  A    between atoms: S_1  and  N_8
REMARK    2  A    between atoms: S_1  and  C_18
REMARK    3  A    between atoms: N_7  and  C_17
REMARK    4  A    between atoms: N_8  and  C_12
REMARK    5  A    between atoms: C_13  and  C_16
REMARK    6  A    between atoms: C_19  and  C_20
REMARK    7  A    between atoms: C_28  and  C_32
REMARK                            x       y       z     vdW  Elec       q    Type
REMARK                         _______ _______ _______ _____ _____    ______ ____
ROOT
ATOM      7  N   UNL     1      -5.788 -11.935  17.693  0.00  0.00    -0.293 NA
ATOM     12  C   UNL     1      -3.655 -11.270  17.020  0.00  0.00    +0.092 C 
ATOM     13  C   UNL     1      -5.906 -10.473  17.531  0.00  0.00    +0.147 C 
ATOM     14  C   UNL     1      -4.563 -10.048  16.905  0.00  0.00    +0.050 C 
ATOM     15  C   UNL     1      -4.375 -12.192  17.991  0.00  0.00    +0.105 C 
ATOM     17  C   UNL     1      -6.666 -12.472  18.726  0.00  0.00    +0.105 C 
ENDROOT
BRANCH  13  16
ATOM      2  O   UNL     1      -7.323 -10.761  15.563  0.00  0.00    -0.336 OA
ATOM      9  N   UNL     1      -7.957  -9.088  16.909  0.00  0.00    -0.190 NA
ATOM     10  N   UNL     1      -8.459 -10.195  14.971  0.00  0.00    -0.056 NA
ATOM     16  C   UNL     1      -7.096 -10.051  16.698  0.00  0.00    +0.245 A 
ATOM     19  C   UNL     1      -8.774  -9.215  15.823  0.00  0.00    +0.202 A 
BRANCH  19  20
ATOM      5  O   UNL     1     -12.723  -7.723  13.363  0.00  0.00    -0.453 OA
ATOM      6  O   UNL     1     -13.146  -5.936  14.924  0.00  0.00    -0.453 OA
ATOM     20  C   UNL     1      -9.898  -8.347  15.620  0.00  0.00    +0.026 A 
ATOM     23  C   UNL     1     -10.737  -8.545  14.521  0.00  0.00    +0.061 A 
ATOM     26  C   UNL     1     -10.145  -7.305  16.529  0.00  0.00    +0.015 A 
ATOM     27  C   UNL     1     -11.805  -7.685  14.367  0.00  0.00    +0.167 A 
ATOM     29  C   UNL     1     -12.047  -6.664  15.258  0.00  0.00    +0.166 A 
ATOM     30  C   UNL     1     -11.234  -6.448  16.352  0.00  0.00    +0.050 A 
ATOM     31  C   UNL     1     -13.570  -6.613  13.723  0.00  0.00    +0.466 C 
ENDBRANCH  19  20
ENDBRANCH  13  16
BRANCH  12   8
ATOM      8  N   UNL     1      -3.526 -11.928  15.695  0.00  0.00    -0.186 NA
ATOM     33  H   UNL     1      -4.149 -12.721  15.498  0.00  0.00    +0.148 HD
BRANCH   8   1
ATOM      1  S   UNL     1      -2.146 -11.651  14.748  0.00  0.00    +0.059 S 
ATOM      3  O   UNL     1      -1.568 -12.921  14.351  0.00  0.00    -0.153 OA
ATOM      4  O   UNL     1      -1.327 -10.649  15.400  0.00  0.00    -0.153 OA
BRANCH   1  18
ATOM     18  C   UNL     1      -2.838 -10.895  13.307  0.00  0.00    +0.105 A 
ATOM     21  C   UNL     1      -2.024 -10.603  12.213  0.00  0.00    +0.030 A 
ATOM     22  C   UNL     1      -4.199 -10.590  13.265  0.00  0.00    +0.030 A 
ATOM     24  C   UNL     1      -2.569 -10.007  11.077  0.00  0.00    +0.021 A 
ATOM     25  C   UNL     1      -4.745  -9.994  12.128  0.00  0.00    +0.021 A 
ATOM     28  C   UNL     1      -3.929  -9.702  11.034  0.00  0.00    +0.052 A 
BRANCH  28  32
ATOM     11  N   UNL     1      -4.943  -8.594   8.924  0.00  0.00    -0.191 NA
ATOM     32  C   UNL     1      -4.489  -9.091   9.870  0.00  0.00    +0.099 C 
ENDBRANCH  28  32
ENDBRANCH   1  18
ENDBRANCH   8   1
ENDBRANCH  12   8
TORSDOF 6
ENDMDL
MODEL 3
REMARK VINA RESULT:      -6.9     26.856     31.097
REMARK  Name = 28961042
REMARK  7 active torsions:
REMARK  status: ('A' for Active; 'I' for Inactive)
REMARK    1  A    between atoms: S_1  and  N_8
REMARK    2  A    between atoms: S_1  and  C_18
REMARK    3  A    between atoms: N_7  and  C_17
REMARK    4  A    between atoms: N_8  and  C_12
REMARK    5  A    between atoms: C_13  and  C_16
REMARK    6  A    between atoms: C_19  and  C_20
REMARK    7  A    between atoms: C_28  and  C_32
REMARK                            x       y       z     vdW  Elec       q    Type
REMARK                         _______ _______ _______ _____ _____    ______ ____
ROOT
ATOM      7  N   UNL     1     -17.550   7.216  25.208  0.00  0.00    -0.293 NA
ATOM     12  C   UNL     1     -16.687   6.430  23.188  0.00  0.00    +0.092 C 
ATOM     13  C   UNL     1     -18.094   5.848  25.097  0.00  0.00    +0.147 C 
ATOM     14  C   UNL     1     -17.381   5.251  23.867  0.00  0.00    +0.050 C 
ATOM     15  C   UNL     1     -17.302   7.661  23.833  0.00  0.00    +0.105 C 
ATOM     17  C   UNL     1     -18.433   8.129  25.924  0.00  0.00    +0.105 C 
ENDROOT
BRANCH  13  16
ATOM      2  O   UNL     1     -18.982   4.859  27.146  0.00  0.00    -0.336 OA
ATOM      9  N   UNL     1     -16.820   4.411  26.778  0.00  0.00    -0.190 NA
ATOM     10  N   UNL     1     -18.562   4.064  28.219  0.00  0.00    -0.056 NA
ATOM     16  C   UNL     1     -17.897   5.015  26.345  0.00  0.00    +0.245 A 
ATOM     19  C   UNL     1     -17.276   3.841  27.931  0.00  0.00    +0.202 A 
BRANCH  19  20
ATOM      5  O   UNL     1     -16.059  -0.294  30.231  0.00  0.00    -0.453 OA
ATOM      6  O   UNL     1     -14.064   0.690  31.160  0.00  0.00    -0.453 OA
ATOM     20  C   UNL     1     -16.423   3.053  28.771  0.00  0.00    +0.026 A 
ATOM     23  C   UNL     1     -16.752   1.723  29.044  0.00  0.00    +0.061 A 
ATOM     26  C   UNL     1     -15.260   3.626  29.314  0.00  0.00    +0.015 A 
ATOM     27  C   UNL     1     -15.901   1.005  29.857  0.00  0.00    +0.167 A 
ATOM     29  C   UNL     1     -14.762   1.567  30.389  0.00  0.00    +0.166 A 
ATOM     30  C   UNL     1     -14.413   2.878  30.135  0.00  0.00    +0.050 A 
ATOM     31  C   UNL     1     -14.891  -0.487  31.055  0.00  0.00    +0.466 C 
ENDBRANCH  19  20
ENDBRANCH  13  16
BRANCH  12   8
ATOM      8  N   UNL     1     -15.229   6.385  23.467  0.00  0.00    -0.186 NA
ATOM     33  H   UNL     1     -14.844   7.105  24.090  0.00  0.00    +0.148 HD
BRANCH   8   1
ATOM      1  S   UNL     1     -14.210   5.459  22.476  0.00  0.00    +0.059 S 
ATOM      3  O   UNL     1     -15.005   4.747  21.494  0.00  0.00    -0.153 OA
ATOM      4  O   UNL     1     -13.272   4.740  23.316  0.00  0.00    -0.153 OA
BRANCH   1  18
ATOM     18  C   UNL     1     -13.290   6.709  21.628  0.00  0.00    +0.105 A 
ATOM     21  C   UNL     1     -13.765   8.019  21.591  0.00  0.00    +0.030 A 
ATOM     22  C   UNL     1     -12.089   6.383  20.997  0.00  0.00    +0.030 A 
ATOM     24  C   UNL     1     -13.040   9.005  20.923  0.00  0.00    +0.021 A 
ATOM     25  C   UNL     1     -11.364   7.369  20.328  0.00  0.00    +0.021 A 
ATOM     28  C   UNL     1     -11.840   8.681  20.291  0.00  0.00    +0.052 A 
BRANCH  28  32
ATOM     11  N   UNL     1     -10.492  10.510  19.048  0.00  0.00    -0.191 NA
ATOM     32  C   UNL     1     -11.096   9.690  19.605  0.00  0.00    +0.099 C 
ENDBRANCH  28  32
ENDBRANCH   1  18
ENDBRANCH   8   1
ENDBRANCH  12   8
TORSDOF 6
ENDMDL
MODEL 4
REMARK VINA RESULT:      -6.7     27.630     29.783
REMARK  Name = 28961042
REMARK  7 active torsions:
REMARK  status: ('A' for Active; 'I' for Inactive)
REMARK    1  A    between atoms: S_1  and  N_8
REMARK    2  A    between atoms: S_1  and  C_18
REMARK    3  A    between atoms: N_7  and  C_17
REMARK    4  A    between atoms: N_8  and  C_12
REMARK    5  A    between atoms: C_13  and  C_16
REMARK    6  A    between atoms: C_19  and  C_20
REMARK    7  A    between atoms: C_28  and  C_32
REMARK                            x       y       z     vdW  Elec       q    Type
REMARK                         _______ _______ _______ _____ _____    ______ ____
ROOT
ATOM      7  N   UNL     1      -4.449 -11.439   9.762  0.00  0.00    -0.293 NA
ATOM     12  C   UNL     1      -4.768  -9.440   8.602  0.00  0.00    +0.092 C 
ATOM     13  C   UNL     1      -3.386 -10.555  10.277  0.00  0.00    +0.147 C 
ATOM     14  C   UNL     1      -3.701  -9.177   9.663  0.00  0.00    +0.050 C 
ATOM     15  C   UNL     1      -4.759 -10.949   8.415  0.00  0.00    +0.105 C 
ATOM     17  C   UNL     1      -4.072 -12.847   9.754  0.00  0.00    +0.105 C 
ENDROOT
BRANCH  13  16
ATOM      2  O   UNL     1      -2.075 -10.371  12.331  0.00  0.00    -0.336 OA
ATOM      9  N   UNL     1      -4.276 -10.600  12.669  0.00  0.00    -0.190 NA
ATOM     10  N   UNL     1      -2.258 -10.361  13.719  0.00  0.00    -0.056 NA
ATOM     16  C   UNL     1      -3.312 -10.515  11.788  0.00  0.00    +0.245 A 
ATOM     19  C   UNL     1      -3.581 -10.501  13.840  0.00  0.00    +0.202 A 
BRANCH  19  20
ATOM      5  O   UNL     1      -7.330  -9.554  16.827  0.00  0.00    -0.453 OA
ATOM      6  O   UNL     1      -6.233 -10.600  18.701  0.00  0.00    -0.453 OA
ATOM     20  C   UNL     1      -4.240 -10.543  15.113  0.00  0.00    +0.026 A 
ATOM     23  C   UNL     1      -5.510  -9.980  15.256  0.00  0.00    +0.061 A 
ATOM     26  C   UNL     1      -3.600 -11.153  16.206  0.00  0.00    +0.015 A 
ATOM     27  C   UNL     1      -6.104 -10.046  16.500  0.00  0.00    +0.167 A 
ATOM     29  C   UNL     1      -5.477 -10.643  17.571  0.00  0.00    +0.166 A 
ATOM     30  C   UNL     1      -4.223 -11.207  17.455  0.00  0.00    +0.050 A 
ATOM     31  C   UNL     1      -7.405  -9.909  18.223  0.00  0.00    +0.466 C 
ENDBRANCH  19  20
ENDBRANCH  13  16
BRANCH  12   8
ATOM      8  N   UNL     1      -6.094  -8.997   9.100  0.00  0.00    -0.186 NA
ATOM     33  H   UNL     1      -6.165  -8.742  10.093  0.00  0.00    +0.148 HD
BRANCH   8   1
ATOM      1  S   UNL     1      -7.486  -9.307   8.181  0.00  0.00    +0.059 S 
ATOM      3  O   UNL     1      -8.221 -10.410   8.772  0.00  0.00    -0.153 OA
ATOM      4  O   UNL     1      -7.119  -9.344   6.779  0.00  0.00    -0.153 OA
BRANCH   1  18
ATOM     18  C   UNL     1      -8.426  -7.831   8.431  0.00  0.00    +0.105 A 
ATOM     21  C   UNL     1      -7.889  -6.594   8.075  0.00  0.00    +0.030 A 
ATOM     22  C   UNL     1      -9.705  -7.904   8.984  0.00  0.00    +0.030 A 
ATOM     24  C   UNL     1      -8.630  -5.429   8.272  0.00  0.00    +0.021 A 
ATOM     25  C   UNL     1     -10.446  -6.739   9.181  0.00  0.00    +0.021 A 
ATOM     28  C   UNL     1      -9.908  -5.501   8.825  0.00  0.00    +0.052 A 
BRANCH  28  32
ATOM     11  N   UNL     1     -11.285  -3.338   9.193  0.00  0.00    -0.191 NA
ATOM     32  C   UNL     1     -10.668  -4.308   9.028  0.00  0.00    +0.099 C 
ENDBRANCH  28  32
ENDBRANCH   1  18
ENDBRANCH   8   1
ENDBRANCH  12   8
TORSDOF 6
ENDMDL
MODEL 5
REMARK VINA RESULT:      -6.6     27.082     29.701
REMARK  Name = 28961042
REMARK  7 active torsions:
REMARK  status: ('A' for Active; 'I' for Inactive)
REMARK    1  A    between atoms: S_1  and  N_8
REMARK    2  A    between atoms: S_1  and  C_18
REMARK    3  A    between atoms: N_7  and  C_17
REMARK    4  A    between atoms: N_8  and  C_12
REMARK    5  A    between atoms: C_13  and  C_16
REMARK    6  A    between atoms: C_19  and  C_20
REMARK    7  A    between atoms: C_28  and  C_32
REMARK                            x       y       z     vdW  Elec       q    Type
REMARK                         _______ _______ _______ _____ _____    ______ ____
ROOT
ATOM      7  N   UNL     1      -4.376 -12.622  15.686  0.00  0.00    -0.293 NA
ATOM     12  C   UNL     1      -2.638 -11.263  14.927  0.00  0.00    +0.092 C 
ATOM     13  C   UNL     1      -4.115 -11.712  16.818  0.00  0.00    +0.147 C 
ATOM     14  C   UNL     1      -3.104 -10.689  16.263  0.00  0.00    +0.050 C 
ATOM     15  C   UNL     1      -3.115 -12.706  14.941  0.00  0.00    +0.105 C 
ATOM     17  C   UNL     1      -4.849 -13.936  16.102  0.00  0.00    +0.105 C 
ENDROOT
BRANCH  13  16
ATOM      2  O   UNL     1      -5.432 -10.923  18.718  0.00  0.00    -0.336 OA
ATOM      9  N   UNL     1      -6.407 -10.592  16.730  0.00  0.00    -0.190 NA
ATOM     10  N   UNL     1      -6.658 -10.300  18.984  0.00  0.00    -0.056 NA
ATOM     16  C   UNL     1      -5.363 -11.058  17.368  0.00  0.00    +0.245 A 
ATOM     19  C   UNL     1      -7.174 -10.138  17.763  0.00  0.00    +0.202 A 
BRANCH  19  20
ATOM      5  O   UNL     1     -10.102  -6.830  15.675  0.00  0.00    -0.453 OA
ATOM      6  O   UNL     1     -12.047  -7.683  16.814  0.00  0.00    -0.453 OA
ATOM     20  C   UNL     1      -8.452  -9.525  17.540  0.00  0.00    +0.026 A 
ATOM     23  C   UNL     1      -8.558  -8.441  16.665  0.00  0.00    +0.061 A 
ATOM     26  C   UNL     1      -9.586 -10.022  18.205  0.00  0.00    +0.015 A 
ATOM     27  C   UNL     1      -9.807  -7.885  16.483  0.00  0.00    +0.167 A 
ATOM     29  C   UNL     1     -10.919  -8.372  17.134  0.00  0.00    +0.166 A 
ATOM     30  C   UNL     1     -10.841  -9.442  18.002  0.00  0.00    +0.050 A 
ATOM     31  C   UNL     1     -11.523  -6.708  15.890  0.00  0.00    +0.466 C 
ENDBRANCH  19  20
ENDBRANCH  13  16
BRANCH  12   8
ATOM      8  N   UNL     1      -3.283 -10.526  13.810  0.00  0.00    -0.186 NA
ATOM     33  H   UNL     1      -4.229 -10.159  13.969  0.00  0.00    +0.148 HD
BRANCH   8   1
ATOM      1  S   UNL     1      -2.656 -10.661  12.239  0.00  0.00    +0.059 S 
ATOM      3  O   UNL     1      -2.615 -12.058  11.852  0.00  0.00    -0.153 OA
ATOM      4  O   UNL     1      -1.464  -9.842  12.142  0.00  0.00    -0.153 OA
BRANCH   1  18
ATOM     18  C   UNL     1      -3.908  -9.867  11.276  0.00  0.00    +0.105 A 
ATOM     21  C   UNL     1      -3.620  -9.423   9.986  0.00  0.00    +0.030 A 
ATOM     22  C   UNL     1      -5.185  -9.684  11.808  0.00  0.00    +0.030 A 
ATOM     24  C   UNL     1      -4.607  -8.797   9.226  0.00  0.00    +0.021 A 
ATOM     25  C   UNL     1      -6.173  -9.057  11.048  0.00  0.00    +0.021 A 
ATOM     28  C   UNL     1      -5.884  -8.614   9.757  0.00  0.00    +0.052 A 
BRANCH  28  32
ATOM     11  N   UNL     1      -7.719  -7.450   8.348  0.00  0.00    -0.191 NA
ATOM     32  C   UNL     1      -6.896  -7.972   8.980  0.00  0.00    +0.099 C 
ENDBRANCH  28  32
ENDBRANCH   1  18
ENDBRANCH   8   1
ENDBRANCH  12   8
TORSDOF 6
ENDMDL
MODEL 6
REMARK VINA RESULT:      -6.6     27.471     31.298
REMARK  Name = 28961042
REMARK  7 active torsions:
REMARK  status: ('A' for Active; 'I' for Inactive)
REMARK    1  A    between atoms: S_1  and  N_8
REMARK    2  A    between atoms: S_1  and  C_18
REMARK    3  A    between atoms: N_7  and  C_17
REMARK    4  A    between atoms: N_8  and  C_12
REMARK    5  A    between atoms: C_13  and  C_16
REMARK    6  A    between atoms: C_19  and  C_20
REMARK    7  A    between atoms: C_28  and  C_32
REMARK                            x       y       z     vdW  Elec       q    Type
REMARK                         _______ _______ _______ _____ _____    ______ ____
ROOT
ATOM      7  N   UNL     1     -10.650 -10.996  17.023  0.00  0.00    -0.293 NA
ATOM     12  C   UNL     1      -9.552 -10.908  19.080  0.00  0.00    +0.092 C 
ATOM     13  C   UNL     1     -11.420 -10.001  17.795  0.00  0.00    +0.147 C 
ATOM     14  C   UNL     1     -10.596  -9.793  19.082  0.00  0.00    +0.050 C 
ATOM     15  C   UNL     1     -10.032 -11.881  18.016  0.00  0.00    +0.105 C 
ATOM     17  C   UNL     1     -11.463 -11.737  16.067  0.00  0.00    +0.105 C 
ENDROOT
BRANCH  13  16
ATOM      2  O   UNL     1     -10.744  -7.726  17.217  0.00  0.00    -0.336 OA
ATOM      9  N   UNL     1     -12.645  -8.391  16.239  0.00  0.00    -0.190 NA
ATOM     10  N   UNL     1     -11.177  -6.648  16.436  0.00  0.00    -0.056 NA
ATOM     16  C   UNL     1     -11.664  -8.710  17.045  0.00  0.00    +0.245 A 
ATOM     19  C   UNL     1     -12.303  -7.117  15.890  0.00  0.00    +0.202 A 
BRANCH  19  20
ATOM      5  O   UNL     1     -12.960  -3.518  12.652  0.00  0.00    -0.453 OA
ATOM      6  O   UNL     1     -15.299  -4.038  12.395  0.00  0.00    -0.453 OA
ATOM     20  C   UNL     1     -13.108  -6.339  14.994  0.00  0.00    +0.026 A 
ATOM     23  C   UNL     1     -12.530  -5.289  14.277  0.00  0.00    +0.061 A 
ATOM     26  C   UNL     1     -14.472  -6.642  14.844  0.00  0.00    +0.015 A 
ATOM     27  C   UNL     1     -13.344  -4.569  13.426  0.00  0.00    +0.167 A 
ATOM     29  C   UNL     1     -14.680  -4.866  13.279  0.00  0.00    +0.166 A 
ATOM     30  C   UNL     1     -15.275  -5.899  13.975  0.00  0.00    +0.050 A 
ATOM     31  C   UNL     1     -14.204  -3.187  12.001  0.00  0.00    +0.466 C 
ENDBRANCH  19  20
ENDBRANCH  13  16
BRANCH  12   8
ATOM      8  N   UNL     1      -8.227 -10.355  18.704  0.00  0.00    -0.186 NA
ATOM     33  H   UNL     1      -8.191  -9.717  17.900  0.00  0.00    +0.148 HD
BRANCH   8   1
ATOM      1  S   UNL     1      -6.812 -11.075  19.306  0.00  0.00    +0.059 S 
ATOM      3  O   UNL     1      -7.047 -12.488  19.533  0.00  0.00    -0.153 OA
ATOM      4  O   UNL     1      -6.283 -10.243  20.368  0.00  0.00    -0.153 OA
BRANCH   1  18
ATOM     18  C   UNL     1      -5.711 -10.921  17.931  0.00  0.00    +0.105 A 
ATOM     21  C   UNL     1      -6.158 -10.351  16.740  0.00  0.00    +0.030 A 
ATOM     22  C   UNL     1      -4.394 -11.370  18.039  0.00  0.00    +0.030 A 
ATOM     24  C   UNL     1      -5.289 -10.229  15.656  0.00  0.00    +0.021 A 
ATOM     25  C   UNL     1      -3.525 -11.249  16.955  0.00  0.00    +0.021 A 
ATOM     28  C   UNL     1      -3.973 -10.678  15.763  0.00  0.00    +0.052 A 
BRANCH  28  32
ATOM     11  N   UNL     1      -2.359 -10.454  13.750  0.00  0.00    -0.191 NA
ATOM     32  C   UNL     1      -3.083 -10.554  14.652  0.00  0.00    +0.099 C 
ENDBRANCH  28  32
ENDBRANCH   1  18
ENDBRANCH   8   1
ENDBRANCH  12   8
TORSDOF 6
ENDMDL
MODEL 7
REMARK VINA RESULT:      -6.6      2.362      4.671
REMARK  Name = 28961042
REMARK  7 active torsions:
REMARK  status: ('A' for Active; 'I' for Inactive)
REMARK    1  A    between atoms: S_1  and  N_8
REMARK    2  A    between atoms: S_1  and  C_18
REMARK    3  A    between atoms: N_7  and  C_17
REMARK    4  A    between atoms: N_8  and  C_12
REMARK    5  A    between atoms: C_13  and  C_16
REMARK    6  A    between atoms: C_19  and  C_20
REMARK    7  A    between atoms: C_28  and  C_32
REMARK                            x       y       z     vdW  Elec       q    Type
REMARK                         _______ _______ _______ _____ _____    ______ ____
ROOT
ATOM      7  N   UNL     1      13.120  12.544  21.648  0.00  0.00    -0.293 NA
ATOM     12  C   UNL     1      11.702  10.704  21.859  0.00  0.00    +0.092 C 
ATOM     13  C   UNL     1      13.866  11.618  22.524  0.00  0.00    +0.147 C 
ATOM     14  C   UNL     1      13.028  10.325  22.515  0.00  0.00    +0.050 C 
ATOM     15  C   UNL     1      11.702  12.224  21.843  0.00  0.00    +0.105 C 
ATOM     17  C   UNL     1      13.402  13.948  21.924  0.00  0.00    +0.105 C 
ENDROOT
BRANCH  13  16
ATOM      2  O   UNL     1      15.911  12.427  21.460  0.00  0.00    -0.336 OA
ATOM      9  N   UNL     1      16.043  10.323  22.213  0.00  0.00    -0.190 NA
ATOM     10  N   UNL     1      17.203  11.984  21.152  0.00  0.00    -0.056 NA
ATOM     16  C   UNL     1      15.295  11.389  22.083  0.00  0.00    +0.245 A 
ATOM     19  C   UNL     1      17.204  10.735  21.627  0.00  0.00    +0.202 A 
BRANCH  19  20
ATOM      5  O   UNL     1      19.372   6.358  21.755  0.00  0.00    -0.453 OA
ATOM      6  O   UNL     1      21.539   7.304  21.290  0.00  0.00    -0.453 OA
ATOM     20  C   UNL     1      18.348   9.875  21.533  0.00  0.00    +0.026 A 
ATOM     23  C   UNL     1      18.197   8.498  21.711  0.00  0.00    +0.061 A 
ATOM     26  C   UNL     1      19.612  10.426  21.263  0.00  0.00    +0.015 A 
ATOM     27  C   UNL     1      19.326   7.711  21.612  0.00  0.00    +0.167 A 
ATOM     29  C   UNL     1      20.564   8.251  21.346  0.00  0.00    +0.166 A 
ATOM     30  C   UNL     1      20.740   9.608  21.166  0.00  0.00    +0.050 A 
ATOM     31  C   UNL     1      20.777   6.108  21.549  0.00  0.00    +0.466 C 
ENDBRANCH  19  20
ENDBRANCH  13  16
BRANCH  12   8
ATOM      8  N   UNL     1      11.660  10.181  20.470  0.00  0.00    -0.186 NA
ATOM     33  H   UNL     1      11.622  10.868  19.707  0.00  0.00    +0.148 HD
BRANCH   8   1
ATOM      1  S   UNL     1      11.269   8.553  20.194  0.00  0.00    +0.059 S 
ATOM      3  O   UNL     1      10.486   8.443  18.978  0.00  0.00    -0.153 OA
ATOM      4  O   UNL     1      10.781   7.975  21.431  0.00  0.00    -0.153 OA
BRANCH   1  18
ATOM     18  C   UNL     1      12.858   7.842  19.884  0.00  0.00    +0.105 A 
ATOM     21  C   UNL     1      13.462   8.003  18.637  0.00  0.00    +0.030 A 
ATOM     22  C   UNL     1      13.507   7.121  20.886  0.00  0.00    +0.030 A 
ATOM     24  C   UNL     1      14.715   7.444  18.392  0.00  0.00    +0.021 A 
ATOM     25  C   UNL     1      14.761   6.561  20.641  0.00  0.00    +0.021 A 
ATOM     28  C   UNL     1      15.365   6.722  19.393  0.00  0.00    +0.052 A 
BRANCH  28  32
ATOM     11  N   UNL     1      17.692   5.680  18.939  0.00  0.00    -0.191 NA
ATOM     32  C   UNL     1      16.649   6.148  19.143  0.00  0.00    +0.099 C 
ENDBRANCH  28  32
ENDBRANCH   1  18
ENDBRANCH   8   1
ENDBRANCH  12   8
TORSDOF 6
ENDMDL
MODEL 8
REMARK VINA RESULT:      -6.5      8.130     10.376
REMARK  Name = 28961042
REMARK  7 active torsions:
REMARK  status: ('A' for Active; 'I' for Inactive)
REMARK    1  A    between atoms: S_1  and  N_8
REMARK    2  A    between atoms: S_1  and  C_18
REMARK    3  A    between atoms: N_7  and  C_17
REMARK    4  A    between atoms: N_8  and  C_12
REMARK    5  A    between atoms: C_13  and  C_16
REMARK    6  A    between atoms: C_19  and  C_20
REMARK    7  A    between atoms: C_28  and  C_32
REMARK                            x       y       z     vdW  Elec       q    Type
REMARK                         _______ _______ _______ _____ _____    ______ ____
ROOT
ATOM      7  N   UNL     1      15.096  11.460  13.609  0.00  0.00    -0.293 NA
ATOM     12  C   UNL     1      13.697  13.002  12.555  0.00  0.00    +0.092 C 
ATOM     13  C   UNL     1      14.181  11.902  14.680  0.00  0.00    +0.147 C 
ATOM     14  C   UNL     1      13.135  12.773  13.957  0.00  0.00    +0.050 C 
ATOM     15  C   UNL     1      15.151  12.567  12.649  0.00  0.00    +0.105 C 
ATOM     17  C   UNL     1      16.421  11.099  14.097  0.00  0.00    +0.105 C 
ENDROOT
BRANCH  13  16
ATOM      2  O   UNL     1      12.652   9.999  14.778  0.00  0.00    -0.336 OA
ATOM      9  N   UNL     1      13.755  10.384  16.687  0.00  0.00    -0.190 NA
ATOM     10  N   UNL     1      12.219   9.021  15.681  0.00  0.00    -0.056 NA
ATOM     16  C   UNL     1      13.555  10.759  15.450  0.00  0.00    +0.245 A 
ATOM     19  C   UNL     1      12.914   9.314  16.784  0.00  0.00    +0.202 A 
BRANCH  19  20
ATOM      5  O   UNL     1      10.494   7.860  20.772  0.00  0.00    -0.453 OA
ATOM      6  O   UNL     1      12.312   6.448  21.485  0.00  0.00    -0.453 OA
ATOM     20  C   UNL     1      12.791   8.558  17.997  0.00  0.00    +0.026 A 
ATOM     23  C   UNL     1      11.620   8.646  18.753  0.00  0.00    +0.061 A 
ATOM     26  C   UNL     1      13.851   7.735  18.414  0.00  0.00    +0.015 A 
ATOM     27  C   UNL     1      11.548   7.901  19.912  0.00  0.00    +0.167 A 
ATOM     29  C   UNL     1      12.587   7.094  20.320  0.00  0.00    +0.166 A 
ATOM     30  C   UNL     1      13.754   6.990  19.591  0.00  0.00    +0.050 A 
ATOM     31  C   UNL     1      10.985   6.937  21.766  0.00  0.00    +0.466 C 
ENDBRANCH  19  20
ENDBRANCH  13  16
BRANCH  12   8
ATOM      8  N   UNL     1      12.974  12.151  11.577  0.00  0.00    -0.186 NA
ATOM     33  H   UNL     1      13.540  11.576  10.941  0.00  0.00    +0.148 HD
BRANCH   8   1
ATOM      1  S   UNL     1      11.334  12.444  11.256  0.00  0.00    +0.059 S 
ATOM      3  O   UNL     1      11.150  13.841  10.911  0.00  0.00    -0.153 OA
ATOM      4  O   UNL     1      10.539  11.842  12.308  0.00  0.00    -0.153 OA
BRANCH   1  18
ATOM     18  C   UNL     1      11.070  11.483   9.795  0.00  0.00    +0.105 A 
ATOM     21  C   UNL     1       9.796  10.997   9.501  0.00  0.00    +0.030 A 
ATOM     22  C   UNL     1      12.136  11.212   8.937  0.00  0.00    +0.030 A 
ATOM     24  C   UNL     1       9.588  10.240   8.349  0.00  0.00    +0.021 A 
ATOM     25  C   UNL     1      11.928  10.454   7.785  0.00  0.00    +0.021 A 
ATOM     28  C   UNL     1      10.653   9.968   7.491  0.00  0.00    +0.052 A 
BRANCH  28  32
ATOM     11  N   UNL     1      10.268   8.560   5.351  0.00  0.00    -0.191 NA
ATOM     32  C   UNL     1      10.441   9.191   6.311  0.00  0.00    +0.099 C 
ENDBRANCH  28  32
ENDBRANCH   1  18
ENDBRANCH   8   1
ENDBRANCH  12   8
TORSDOF 6
ENDMDL
MODEL 9
REMARK VINA RESULT:      -6.3     27.629     30.342
REMARK  Name = 28961042
REMARK  7 active torsions:
REMARK  status: ('A' for Active; 'I' for Inactive)
REMARK    1  A    between atoms: S_1  and  N_8
REMARK    2  A    between atoms: S_1  and  C_18
REMARK    3  A    between atoms: N_7  and  C_17
REMARK    4  A    between atoms: N_8  and  C_12
REMARK    5  A    between atoms: C_13  and  C_16
REMARK    6  A    between atoms: C_19  and  C_20
REMARK    7  A    between atoms: C_28  and  C_32
REMARK                            x       y       z     vdW  Elec       q    Type
REMARK                         _______ _______ _______ _____ _____    ______ ____
ROOT
ATOM      7  N   UNL     1      -6.587 -13.240  17.215  0.00  0.00    -0.293 NA
ATOM     12  C   UNL     1      -4.450 -12.316  17.353  0.00  0.00    +0.092 C 
ATOM     13  C   UNL     1      -6.627 -12.435  18.452  0.00  0.00    +0.147 C 
ATOM     14  C   UNL     1      -5.289 -11.669  18.453  0.00  0.00    +0.050 C 
ATOM     15  C   UNL     1      -5.180 -13.607  17.022  0.00  0.00    +0.105 C 
ATOM     17  C   UNL     1      -7.451 -14.414  17.266  0.00  0.00    +0.105 C 
ENDROOT
BRANCH  13  16
ATOM      2  O   UNL     1      -8.412 -11.393  19.754  0.00  0.00    -0.336 OA
ATOM      9  N   UNL     1      -8.392 -10.803  17.595  0.00  0.00    -0.190 NA
ATOM     10  N   UNL     1      -9.479 -10.503  19.584  0.00  0.00    -0.056 NA
ATOM     16  C   UNL     1      -7.825 -11.514  18.535  0.00  0.00    +0.245 A 
ATOM     19  C   UNL     1      -9.403 -10.200  18.286  0.00  0.00    +0.202 A 
BRANCH  19  20
ATOM      5  O   UNL     1     -10.462  -6.196  15.694  0.00  0.00    -0.453 OA
ATOM      6  O   UNL     1     -12.829  -6.640  15.783  0.00  0.00    -0.453 OA
ATOM     20  C   UNL     1     -10.318  -9.298  17.648  0.00  0.00    +0.026 A 
ATOM     23  C   UNL     1      -9.831  -8.172  16.981  0.00  0.00    +0.061 A 
ATOM     26  C   UNL     1     -11.698  -9.557  17.701  0.00  0.00    +0.015 A 
ATOM     27  C   UNL     1     -10.749  -7.334  16.383  0.00  0.00    +0.167 A 
ATOM     29  C   UNL     1     -12.101  -7.587  16.434  0.00  0.00    +0.166 A 
ATOM     30  C   UNL     1     -12.608  -8.693  17.086  0.00  0.00    +0.050 A 
ATOM     31  C   UNL     1     -11.785  -5.762  15.316  0.00  0.00    +0.466 C 
ENDBRANCH  19  20
ENDBRANCH  13  16
BRANCH  12   8
ATOM      8  N   UNL     1      -4.414 -11.431  16.161  0.00  0.00    -0.186 NA
ATOM     33  H   UNL     1      -5.302 -11.012  15.856  0.00  0.00    +0.148 HD
BRANCH   8   1
ATOM      1  S   UNL     1      -3.068 -11.462  15.128  0.00  0.00    +0.059 S 
ATOM      3  O   UNL     1      -2.720 -12.838  14.828  0.00  0.00    -0.153 OA
ATOM      4  O   UNL     1      -2.065 -10.552  15.645  0.00  0.00    -0.153 OA
BRANCH   1  18
ATOM     18  C   UNL     1      -3.720 -10.731  13.656  0.00  0.00    +0.105 A 
ATOM     21  C   UNL     1      -5.057 -10.339  13.605  0.00  0.00    +0.030 A 
ATOM     22  C   UNL     1      -2.896 -10.548  12.545  0.00  0.00    +0.030 A 
ATOM     24  C   UNL     1      -5.571  -9.763  12.445  0.00  0.00    +0.021 A 
ATOM     25  C   UNL     1      -3.410  -9.972  11.384  0.00  0.00    +0.021 A 
ATOM     28  C   UNL     1      -4.748  -9.579  11.334  0.00  0.00    +0.052 A 
BRANCH  28  32
ATOM     11  N   UNL     1      -5.703  -8.509   9.176  0.00  0.00    -0.191 NA
ATOM     32  C   UNL     1      -5.275  -8.989  10.143  0.00  0.00    +0.099 C 
ENDBRANCH  28  32
ENDBRANCH   1  18
ENDBRANCH   8   1
ENDBRANCH  12   8
TORSDOF 6
ENDMDL
MODEL 10
REMARK VINA RESULT:      -6.2     27.024     30.159
REMARK  Name = 28961042
REMARK  7 active torsions:
REMARK  status: ('A' for Active; 'I' for Inactive)
REMARK    1  A    between atoms: S_1  and  N_8
REMARK    2  A    between atoms: S_1  and  C_18
REMARK    3  A    between atoms: N_7  and  C_17
REMARK    4  A    between atoms: N_8  and  C_12
REMARK    5  A    between atoms: C_13  and  C_16
REMARK    6  A    between atoms: C_19  and  C_20
REMARK    7  A    between atoms: C_28  and  C_32
REMARK                            x       y       z     vdW  Elec       q    Type
REMARK                         _______ _______ _______ _____ _____    ______ ____
ROOT
ATOM      7  N   UNL     1      -4.275 -12.590  15.405  0.00  0.00    -0.293 NA
ATOM     12  C   UNL     1      -2.524 -11.118  14.942  0.00  0.00    +0.092 C 
ATOM     13  C   UNL     1      -4.175 -11.761  16.622  0.00  0.00    +0.147 C 
ATOM     14  C   UNL     1      -3.154 -10.665  16.257  0.00  0.00    +0.050 C 
ATOM     15  C   UNL     1      -2.939 -12.573  14.799  0.00  0.00    +0.105 C 
ATOM     17  C   UNL     1      -4.734 -13.948  15.669  0.00  0.00    +0.105 C 
ENDROOT
BRANCH  13  16
ATOM      2  O   UNL     1      -5.755  -9.903  16.741  0.00  0.00    -0.336 OA
ATOM      9  N   UNL     1      -6.459 -11.768  17.760  0.00  0.00    -0.190 NA
ATOM     10  N   UNL     1      -7.021  -9.607  17.263  0.00  0.00    -0.056 NA
ATOM     16  C   UNL     1      -5.501 -11.194  17.078  0.00  0.00    +0.245 A 
ATOM     19  C   UNL     1      -7.370 -10.756  17.849  0.00  0.00    +0.202 A 
BRANCH  19  20
ATOM      5  O   UNL     1     -10.409 -13.169  20.818  0.00  0.00    -0.453 OA
ATOM      6  O   UNL     1     -12.152 -11.528  20.535  0.00  0.00    -0.453 OA
ATOM     20  C   UNL     1      -8.621 -10.926  18.530  0.00  0.00    +0.026 A 
ATOM     23  C   UNL     1      -8.819 -12.038  19.351  0.00  0.00    +0.061 A 
ATOM     26  C   UNL     1      -9.638  -9.969  18.364  0.00  0.00    +0.015 A 
ATOM     27  C   UNL     1     -10.038 -12.158  19.986  0.00  0.00    +0.167 A 
ATOM     29  C   UNL     1     -11.034 -11.221  19.824  0.00  0.00    +0.166 A 
ATOM     30  C   UNL     1     -10.864 -10.113  19.019  0.00  0.00    +0.050 A 
ATOM     31  C   UNL     1     -11.749 -12.762  21.163  0.00  0.00    +0.466 C 
ENDBRANCH  19  20
ENDBRANCH  13  16
BRANCH  12   8
ATOM      8  N   UNL     1      -3.076 -10.320  13.818  0.00  0.00    -0.186 NA
ATOM     33  H   UNL     1      -3.960  -9.823  13.980  0.00  0.00    +0.148 HD
BRANCH   8   1
ATOM      1  S   UNL     1      -2.494 -10.568  12.243  0.00  0.00    +0.059 S 
ATOM      3  O   UNL     1      -2.470 -11.989  11.955  0.00  0.00    -0.153 OA
ATOM      4  O   UNL     1      -1.301  -9.765  12.056  0.00  0.00    -0.153 OA
BRANCH   1  18
ATOM     18  C   UNL     1      -3.769  -9.835  11.263  0.00  0.00    +0.105 A 
ATOM     21  C   UNL     1      -3.485  -9.381   9.975  0.00  0.00    +0.030 A 
ATOM     22  C   UNL     1      -5.061  -9.712  11.777  0.00  0.00    +0.030 A 
ATOM     24  C   UNL     1      -4.491  -8.803   9.201  0.00  0.00    +0.021 A 
ATOM     25  C   UNL     1      -6.067  -9.134  11.003  0.00  0.00    +0.021 A 
ATOM     28  C   UNL     1      -5.781  -8.679   9.715  0.00  0.00    +0.052 A 
BRANCH  28  32
ATOM     11  N   UNL     1      -7.651  -7.605   8.279  0.00  0.00    -0.191 NA
ATOM     32  C   UNL     1      -6.813  -8.087   8.923  0.00  0.00    +0.099 C 
ENDBRANCH  28  32
ENDBRANCH   1  18
ENDBRANCH   8   1
ENDBRANCH  12   8
TORSDOF 6
ENDMDL
