MODEL 1
REMARK VINA RESULT:      -7.3      0.000      0.000
REMARK  Name = 25312749
REMARK  7 active torsions:
REMARK  status: ('A' for Active; 'I' for Inactive)
REMARK    1  A    between atoms: O_3  and  C_30
REMARK    2  A    between atoms: N_5  and  C_17
REMARK    3  A    between atoms: N_8  and  C_27
REMARK    4  A    between atoms: C_13  and  C_18
REMARK    5  A    between atoms: C_15  and  C_23
REMARK    6  A    between atoms: C_17  and  C_18
REMARK    7  A    between atoms: C_23  and  C_30
REMARK                            x       y       z     vdW  Elec       q    Type
REMARK                         _______ _______ _______ _____ _____    ______ ____
ROOT
ATOM      2  O   UNL     1      -1.484 -10.494  11.952  0.00  0.00    -0.253 OA
ATOM      7  N   UNL     1      -2.839 -11.707  13.390  0.00  0.00    -0.285 N 
ATOM      8  N   UNL     1      -3.635 -10.947  11.296  0.00  0.00    -0.296 N 
ATOM     13  C   UNL     1      -4.667 -11.760  15.064  0.00  0.00    +0.011 C 
ATOM     15  C   UNL     1      -3.593 -11.836  16.181  0.00  0.00    +0.006 C 
ATOM     20  C   UNL     1      -4.103 -12.360  13.764  0.00  0.00    +0.113 C 
ATOM     21  C   UNL     1      -2.253 -11.229  15.729  0.00  0.00    +0.023 C 
ATOM     22  C   UNL     1      -1.789 -11.825  14.401  0.00  0.00    +0.109 C 
ATOM     26  C   UNL     1      -2.577 -11.016  12.196  0.00  0.00    +0.302 C 
ATOM     36  H   UNL     1      -4.562 -11.237  11.572  0.00  0.00    +0.151 HD
ENDROOT
BRANCH   8  27
ATOM     27  C   UNL     1      -3.522 -10.263  10.028  0.00  0.00    +0.074 C 
ATOM     31  C   UNL     1      -4.495 -10.848   8.998  0.00  0.00    +0.022 C 
ATOM     32  C   UNL     1      -3.731  -8.754  10.195  0.00  0.00    +0.022 C 
ATOM     33  C   UNL     1      -5.949 -10.485   9.296  0.00  0.00    +0.002 C 
ATOM     34  C   UNL     1      -5.188  -8.395  10.491  0.00  0.00    +0.002 C 
ATOM     35  C   UNL     1      -6.135  -8.978   9.447  0.00  0.00    +0.000 C 
ENDBRANCH   8  27
BRANCH  13  18
ATOM     18  C   UNL     1      -5.207 -10.347  14.811  0.00  0.00    +0.020 C 
BRANCH  18  17
ATOM     17  C   UNL     1      -6.649 -10.383  14.313  0.00  0.00    +0.085 C 
BRANCH  17   5
ATOM      1  O   UNL     1     -10.391 -13.590  17.999  0.00  0.00    -0.268 OA
ATOM      5  N   UNL     1      -7.575 -10.314  15.440  0.00  0.00    -0.301 NA
ATOM      6  N   UNL     1      -9.265 -11.541  17.853  0.00  0.00    -0.312 N 
ATOM      9  C   UNL     1      -9.894  -9.706  16.179  0.00  0.00    +0.024 C 
ATOM     10  C   UNL     1      -8.012  -9.362  17.710  0.00  0.00    +0.050 C 
ATOM     11  C   UNL     1      -9.331  -8.761  17.232  0.00  0.00    +0.017 C 
ATOM     12  C   UNL     1      -8.898  -9.846  15.007  0.00  0.00    +0.089 C 
ATOM     14  C   UNL     1      -7.033  -9.473  16.518  0.00  0.00    +0.094 C 
ATOM     16  C   UNL     1     -10.214 -11.053  16.843  0.00  0.00    +0.130 C 
ATOM     19  C   UNL     1      -8.239 -10.724  18.338  0.00  0.00    +0.026 A 
ATOM     24  C   UNL     1      -7.452 -11.152  19.340  0.00  0.00    +0.022 A 
ATOM     25  C   UNL     1      -9.498 -12.828  18.372  0.00  0.00    +0.251 A 
ATOM     28  C   UNL     1      -7.634 -12.456  19.912  0.00  0.00    +0.007 A 
ATOM     29  C   UNL     1      -8.590 -13.275  19.465  0.00  0.00    +0.070 A 
ENDBRANCH  17   5
ENDBRANCH  18  17
ENDBRANCH  13  18
BRANCH  15  23
ATOM     23  C   UNL     1      -4.053 -11.210  17.497  0.00  0.00    +0.124 C 
BRANCH  23  30
ATOM      4  O   UNL     1      -3.416 -11.977  19.722  0.00  0.00    -0.251 OA
ATOM     30  C   UNL     1      -3.948 -12.181  18.640  0.00  0.00    +0.305 C 
BRANCH  30   3
ATOM      3  O   UNL     1      -4.542 -13.354  18.301  0.00  0.00    -0.481 OA
ATOM     37  H   UNL     1      -5.226 -13.620  18.953  0.00  0.00    +0.295 HD
ENDBRANCH  30   3
ENDBRANCH  23  30
ENDBRANCH  15  23
TORSDOF 7
ENDMDL
MODEL 2
REMARK VINA RESULT:      -7.2      1.925      3.265
REMARK  Name = 25312749
REMARK  7 active torsions:
REMARK  status: ('A' for Active; 'I' for Inactive)
REMARK    1  A    between atoms: O_3  and  C_30
REMARK    2  A    between atoms: N_5  and  C_17
REMARK    3  A    between atoms: N_8  and  C_27
REMARK    4  A    between atoms: C_13  and  C_18
REMARK    5  A    between atoms: C_15  and  C_23
REMARK    6  A    between atoms: C_17  and  C_18
REMARK    7  A    between atoms: C_23  and  C_30
REMARK                            x       y       z     vdW  Elec       q    Type
REMARK                         _______ _______ _______ _____ _____    ______ ____
ROOT
ATOM      2  O   UNL     1      -1.625  -9.924  12.364  0.00  0.00    -0.253 OA
ATOM      7  N   UNL     1      -2.886 -11.319  13.722  0.00  0.00    -0.285 N 
ATOM      8  N   UNL     1      -3.749 -10.468  11.692  0.00  0.00    -0.296 N 
ATOM     13  C   UNL     1      -4.689 -11.604  15.399  0.00  0.00    +0.011 C 
ATOM     15  C   UNL     1      -3.601 -11.689  16.501  0.00  0.00    +0.006 C 
ATOM     20  C   UNL     1      -4.101 -12.075  14.057  0.00  0.00    +0.113 C 
ATOM     21  C   UNL     1      -2.307 -10.967  16.085  0.00  0.00    +0.023 C 
ATOM     22  C   UNL     1      -1.819 -11.439  14.716  0.00  0.00    +0.109 C 
ATOM     26  C   UNL     1      -2.680 -10.531  12.578  0.00  0.00    +0.302 C 
ATOM     36  H   UNL     1      -4.653 -10.835  11.951  0.00  0.00    +0.151 HD
ENDROOT
BRANCH   8  27
ATOM     27  C   UNL     1      -3.693  -9.691  10.473  0.00  0.00    +0.074 C 
ATOM     31  C   UNL     1      -4.074 -10.544   9.258  0.00  0.00    +0.022 C 
ATOM     32  C   UNL     1      -4.576  -8.443  10.574  0.00  0.00    +0.022 C 
ATOM     33  C   UNL     1      -5.566 -10.874   9.220  0.00  0.00    +0.002 C 
ATOM     34  C   UNL     1      -6.068  -8.777  10.534  0.00  0.00    +0.002 C 
ATOM     35  C   UNL     1      -6.424  -9.616   9.311  0.00  0.00    +0.000 C 
ENDBRANCH   8  27
BRANCH  13  18
ATOM     18  C   UNL     1      -5.320 -10.215  15.248  0.00  0.00    +0.020 C 
BRANCH  18  17
ATOM     17  C   UNL     1      -6.578 -10.265  14.387  0.00  0.00    +0.085 C 
BRANCH  17   5
ATOM      1  O   UNL     1     -10.743  -5.917  15.659  0.00  0.00    -0.268 OA
ATOM      5  N   UNL     1      -7.753  -9.922  15.185  0.00  0.00    -0.301 NA
ATOM      6  N   UNL     1     -10.359  -8.217  15.878  0.00  0.00    -0.312 N 
ATOM      9  C   UNL     1      -8.585  -9.205  17.440  0.00  0.00    +0.024 C 
ATOM     10  C   UNL     1      -9.960 -10.696  16.064  0.00  0.00    +0.050 C 
ATOM     11  C   UNL     1      -9.520 -10.407  17.497  0.00  0.00    +0.017 C 
ATOM     12  C   UNL     1      -7.368  -9.525  16.545  0.00  0.00    +0.089 C 
ATOM     14  C   UNL     1      -8.722 -11.027  15.201  0.00  0.00    +0.094 C 
ATOM     16  C   UNL     1      -9.376  -7.986  16.944  0.00  0.00    +0.130 C 
ATOM     19  C   UNL     1     -10.711  -9.512  15.483  0.00  0.00    +0.026 A 
ATOM     24  C   UNL     1     -11.692  -9.702  14.585  0.00  0.00    +0.022 A 
ATOM     25  C   UNL     1     -10.995  -7.081  15.345  0.00  0.00    +0.251 A 
ATOM     28  C   UNL     1     -12.378  -8.585  13.999  0.00  0.00    +0.007 A 
ATOM     29  C   UNL     1     -12.061  -7.332  14.334  0.00  0.00    +0.070 A 
ENDBRANCH  17   5
ENDBRANCH  18  17
ENDBRANCH  13  18
BRANCH  15  23
ATOM     23  C   UNL     1      -4.085 -11.186  17.861  0.00  0.00    +0.124 C 
BRANCH  23  30
ATOM      4  O   UNL     1      -3.364 -12.132  19.989  0.00  0.00    -0.251 OA
ATOM     30  C   UNL     1      -3.952 -12.242  18.923  0.00  0.00    +0.305 C 
BRANCH  30   3
ATOM      3  O   UNL     1      -4.591 -13.373  18.528  0.00  0.00    -0.481 OA
ATOM     37  H   UNL     1      -5.104 -13.235  17.703  0.00  0.00    +0.295 HD
ENDBRANCH  30   3
ENDBRANCH  23  30
ENDBRANCH  15  23
TORSDOF 7
ENDMDL
MODEL 3
REMARK VINA RESULT:      -7.1     25.285     29.089
REMARK  Name = 25312749
REMARK  7 active torsions:
REMARK  status: ('A' for Active; 'I' for Inactive)
REMARK    1  A    between atoms: O_3  and  C_30
REMARK    2  A    between atoms: N_5  and  C_17
REMARK    3  A    between atoms: N_8  and  C_27
REMARK    4  A    between atoms: C_13  and  C_18
REMARK    5  A    between atoms: C_15  and  C_23
REMARK    6  A    between atoms: C_17  and  C_18
REMARK    7  A    between atoms: C_23  and  C_30
REMARK                            x       y       z     vdW  Elec       q    Type
REMARK                         _______ _______ _______ _____ _____    ______ ____
ROOT
ATOM      2  O   UNL     1      13.222   6.414   7.634  0.00  0.00    -0.253 OA
ATOM      7  N   UNL     1      13.706   7.976   5.990  0.00  0.00    -0.285 N 
ATOM      8  N   UNL     1      11.681   6.755   5.969  0.00  0.00    -0.296 N 
ATOM     13  C   UNL     1      14.456   8.482   3.682  0.00  0.00    +0.011 C 
ATOM     15  C   UNL     1      15.866   8.796   4.248  0.00  0.00    +0.006 C 
ATOM     20  C   UNL     1      13.396   8.734   4.768  0.00  0.00    +0.113 C 
ATOM     21  C   UNL     1      16.127   8.061   5.575  0.00  0.00    +0.023 C 
ATOM     22  C   UNL     1      15.003   8.305   6.580  0.00  0.00    +0.109 C 
ATOM     26  C   UNL     1      12.892   7.010   6.603  0.00  0.00    +0.302 C 
ATOM     36  H   UNL     1      11.494   7.128   5.050  0.00  0.00    +0.151 HD
ENDROOT
BRANCH   8  27
ATOM     27  C   UNL     1      10.739   5.781   6.475  0.00  0.00    +0.074 C 
ATOM     31  C   UNL     1       9.700   6.442   7.387  0.00  0.00    +0.022 C 
ATOM     32  C   UNL     1      10.066   5.018   5.329  0.00  0.00    +0.022 C 
ATOM     33  C   UNL     1       8.705   7.304   6.611  0.00  0.00    +0.002 C 
ATOM     34  C   UNL     1       9.070   5.882   4.556  0.00  0.00    +0.002 C 
ATOM     35  C   UNL     1       8.040   6.520   5.484  0.00  0.00    +0.000 C 
ENDBRANCH   8  27
BRANCH  13  18
ATOM     18  C   UNL     1      14.313   7.065   3.113  0.00  0.00    +0.020 C 
BRANCH  18  17
ATOM     17  C   UNL     1      13.913   7.094   1.641  0.00  0.00    +0.085 C 
BRANCH  17   5
ATOM      1  O   UNL     1       9.375   4.700  -1.757  0.00  0.00    -0.268 OA
ATOM      5  N   UNL     1      13.191   5.875   1.287  0.00  0.00    -0.301 NA
ATOM      6  N   UNL     1      11.289   4.091  -0.552  0.00  0.00    -0.312 N 
ATOM      9  C   UNL     1      11.446   4.222   2.002  0.00  0.00    +0.024 C 
ATOM     10  C   UNL     1      13.375   3.452   0.704  0.00  0.00    +0.050 C 
ATOM     11  C   UNL     1      12.439   3.078   1.851  0.00  0.00    +0.017 C 
ATOM     12  C   UNL     1      12.195   5.537   2.311  0.00  0.00    +0.089 C 
ATOM     14  C   UNL     1      14.121   4.761   1.051  0.00  0.00    +0.094 C 
ATOM     16  C   UNL     1      10.598   4.314   0.725  0.00  0.00    +0.130 C 
ATOM     19  C   UNL     1      12.602   3.610  -0.592  0.00  0.00    +0.026 A 
ATOM     24  C   UNL     1      13.175   3.308  -1.769  0.00  0.00    +0.022 A 
ATOM     25  C   UNL     1      10.537   4.293  -1.724  0.00  0.00    +0.251 A 
ATOM     28  C   UNL     1      12.464   3.496  -3.002  0.00  0.00    +0.007 A 
ATOM     29  C   UNL     1      11.216   3.970  -3.010  0.00  0.00    +0.070 A 
ENDBRANCH  17   5
ENDBRANCH  18  17
ENDBRANCH  13  18
BRANCH  15  23
ATOM     23  C   UNL     1      16.988   8.520   3.248  0.00  0.00    +0.124 C 
BRANCH  23  30
ATOM      4  O   UNL     1      18.798   9.771   4.298  0.00  0.00    -0.251 OA
ATOM     30  C   UNL     1      18.344   8.721   3.865  0.00  0.00    +0.305 C 
BRANCH  30   3
ATOM      3  O   UNL     1      19.022   7.545   3.879  0.00  0.00    -0.481 OA
ATOM     37  H   UNL     1      19.926   7.647   4.247  0.00  0.00    +0.295 HD
ENDBRANCH  30   3
ENDBRANCH  23  30
ENDBRANCH  15  23
TORSDOF 7
ENDMDL
MODEL 4
REMARK VINA RESULT:      -7.0      2.060      7.957
REMARK  Name = 25312749
REMARK  7 active torsions:
REMARK  status: ('A' for Active; 'I' for Inactive)
REMARK    1  A    between atoms: O_3  and  C_30
REMARK    2  A    between atoms: N_5  and  C_17
REMARK    3  A    between atoms: N_8  and  C_27
REMARK    4  A    between atoms: C_13  and  C_18
REMARK    5  A    between atoms: C_15  and  C_23
REMARK    6  A    between atoms: C_17  and  C_18
REMARK    7  A    between atoms: C_23  and  C_30
REMARK                            x       y       z     vdW  Elec       q    Type
REMARK                         _______ _______ _______ _____ _____    ______ ____
ROOT
ATOM      2  O   UNL     1      -7.750 -11.571  19.322  0.00  0.00    -0.253 OA
ATOM      7  N   UNL     1      -6.396 -10.384  17.860  0.00  0.00    -0.285 N 
ATOM      8  N   UNL     1      -8.712 -10.642  17.458  0.00  0.00    -0.296 N 
ATOM     13  C   UNL     1      -5.135 -10.279  15.728  0.00  0.00    +0.011 C 
ATOM     15  C   UNL     1      -3.837 -10.576  16.523  0.00  0.00    +0.006 C 
ATOM     20  C   UNL     1      -6.156  -9.587  16.648  0.00  0.00    +0.113 C 
ATOM     21  C   UNL     1      -4.127 -11.331  17.833  0.00  0.00    +0.023 C 
ATOM     22  C   UNL     1      -5.196 -10.620  18.662  0.00  0.00    +0.109 C 
ATOM     26  C   UNL     1      -7.627 -10.909  18.285  0.00  0.00    +0.302 C 
ATOM     36  H   UNL     1      -8.572 -10.241  16.542  0.00  0.00    +0.151 HD
ENDROOT
BRANCH   8  27
ATOM     27  C   UNL     1     -10.043 -11.122  17.757  0.00  0.00    +0.074 C 
ATOM     31  C   UNL     1     -10.827 -10.094  18.580  0.00  0.00    +0.022 C 
ATOM     32  C   UNL     1     -10.795 -11.497  16.476  0.00  0.00    +0.022 C 
ATOM     33  C   UNL     1     -11.231  -8.872  17.756  0.00  0.00    +0.002 C 
ATOM     34  C   UNL     1     -11.200 -10.272  15.655  0.00  0.00    +0.002 C 
ATOM     35  C   UNL     1     -11.988  -9.269  16.493  0.00  0.00    +0.000 C 
ENDBRANCH   8  27
BRANCH  13  18
ATOM     18  C   UNL     1      -5.761 -11.514  15.068  0.00  0.00    +0.020 C 
BRANCH  18  17
ATOM     17  C   UNL     1      -6.335 -11.180  13.695  0.00  0.00    +0.085 C 
BRANCH  17   5
ATOM      1  O   UNL     1      -5.284 -13.085   7.938  0.00  0.00    -0.268 OA
ATOM      5  N   UNL     1      -5.323 -11.380  12.660  0.00  0.00    -0.301 NA
ATOM      6  N   UNL     1      -4.325 -11.822   9.662  0.00  0.00    -0.312 N 
ATOM      9  C   UNL     1      -3.460 -12.847  11.844  0.00  0.00    +0.024 C 
ATOM     10  C   UNL     1      -3.325 -10.425  11.502  0.00  0.00    +0.050 C 
ATOM     11  C   UNL     1      -2.502 -11.664  11.846  0.00  0.00    +0.017 C 
ATOM     12  C   UNL     1      -4.577 -12.625  12.887  0.00  0.00    +0.089 C 
ATOM     14  C   UNL     1      -4.423 -10.221  12.572  0.00  0.00    +0.094 C 
ATOM     16  C   UNL     1      -4.009 -13.038  10.424  0.00  0.00    +0.130 C 
ATOM     19  C   UNL     1      -3.946 -10.558  10.124  0.00  0.00    +0.026 A 
ATOM     24  C   UNL     1      -4.146  -9.471   9.359  0.00  0.00    +0.022 A 
ATOM     25  C   UNL     1      -4.939 -12.001   8.408  0.00  0.00    +0.251 A 
ATOM     28  C   UNL     1      -4.772  -9.584   8.072  0.00  0.00    +0.007 A 
ATOM     29  C   UNL     1      -5.166 -10.770   7.601  0.00  0.00    +0.070 A 
ENDBRANCH  17   5
ENDBRANCH  18  17
ENDBRANCH  13  18
BRANCH  15  23
ATOM     23  C   UNL     1      -2.784 -11.315  15.697  0.00  0.00    +0.124 C 
BRANCH  23  30
ATOM      4  O   UNL     1      -1.417  -9.744  14.430  0.00  0.00    -0.251 OA
ATOM     30  C   UNL     1      -1.590 -10.447  15.415  0.00  0.00    +0.305 C 
BRANCH  30   3
ATOM      3  O   UNL     1      -0.697 -10.551  16.433  0.00  0.00    -0.481 OA
ATOM     37  H   UNL     1       0.215 -10.710  16.105  0.00  0.00    +0.295 HD
ENDBRANCH  30   3
ENDBRANCH  23  30
ENDBRANCH  15  23
TORSDOF 7
ENDMDL
MODEL 5
REMARK VINA RESULT:      -6.8      2.074      7.759
REMARK  Name = 25312749
REMARK  7 active torsions:
REMARK  status: ('A' for Active; 'I' for Inactive)
REMARK    1  A    between atoms: O_3  and  C_30
REMARK    2  A    between atoms: N_5  and  C_17
REMARK    3  A    between atoms: N_8  and  C_27
REMARK    4  A    between atoms: C_13  and  C_18
REMARK    5  A    between atoms: C_15  and  C_23
REMARK    6  A    between atoms: C_17  and  C_18
REMARK    7  A    between atoms: C_23  and  C_30
REMARK                            x       y       z     vdW  Elec       q    Type
REMARK                         _______ _______ _______ _____ _____    ______ ____
ROOT
ATOM      2  O   UNL     1      -7.557 -12.088  20.210  0.00  0.00    -0.253 OA
ATOM      7  N   UNL     1      -6.480 -10.645  18.748  0.00  0.00    -0.285 N 
ATOM      8  N   UNL     1      -8.840 -10.758  18.850  0.00  0.00    -0.296 N 
ATOM     13  C   UNL     1      -5.720 -10.112  16.449  0.00  0.00    +0.011 C 
ATOM     15  C   UNL     1      -4.302 -10.603  16.843  0.00  0.00    +0.006 C 
ATOM     20  C   UNL     1      -6.459  -9.611  17.702  0.00  0.00    +0.113 C 
ATOM     21  C   UNL     1      -4.348 -11.615  18.002  0.00  0.00    +0.023 C 
ATOM     22  C   UNL     1      -5.152 -11.076  19.184  0.00  0.00    +0.109 C 
ATOM     26  C   UNL     1      -7.620 -11.221  19.331  0.00  0.00    +0.302 C 
ATOM     36  H   UNL     1      -8.879 -10.172  18.029  0.00  0.00    +0.151 HD
ENDROOT
BRANCH   8  27
ATOM     27  C   UNL     1     -10.102 -11.261  19.346  0.00  0.00    +0.074 C 
ATOM     31  C   UNL     1     -11.076 -10.113  19.635  0.00  0.00    +0.022 C 
ATOM     32  C   UNL     1     -10.712 -12.275  18.373  0.00  0.00    +0.022 C 
ATOM     33  C   UNL     1     -11.604  -9.460  18.359  0.00  0.00    +0.002 C 
ATOM     34  C   UNL     1     -11.241 -11.617  17.098  0.00  0.00    +0.002 C 
ATOM     35  C   UNL     1     -12.217 -10.487  17.411  0.00  0.00    +0.000 C 
ENDBRANCH   8  27
BRANCH  13  18
ATOM     18  C   UNL     1      -6.563 -11.162  15.715  0.00  0.00    +0.020 C 
BRANCH  18  17
ATOM     17  C   UNL     1      -7.375 -10.532  14.586  0.00  0.00    +0.085 C 
BRANCH  17   5
ATOM      1  O   UNL     1      -4.335  -8.422   9.669  0.00  0.00    -0.268 OA
ATOM      5  N   UNL     1      -6.796 -10.879  13.291  0.00  0.00    -0.301 NA
ATOM      6  N   UNL     1      -4.887 -10.410  10.777  0.00  0.00    -0.312 N 
ATOM      9  C   UNL     1      -7.267 -11.353  10.874  0.00  0.00    +0.024 C 
ATOM     10  C   UNL     1      -5.443 -12.538  12.002  0.00  0.00    +0.050 C 
ATOM     11  C   UNL     1      -6.568 -12.702  10.983  0.00  0.00    +0.017 C 
ATOM     12  C   UNL     1      -7.830 -10.937  12.250  0.00  0.00    +0.089 C 
ATOM     14  C   UNL     1      -6.041 -12.137  13.370  0.00  0.00    +0.094 C 
ATOM     16  C   UNL     1      -6.277 -10.327  10.307  0.00  0.00    +0.130 C 
ATOM     19  C   UNL     1      -4.442 -11.498  11.535  0.00  0.00    +0.026 A 
ATOM     24  C   UNL     1      -3.143 -11.609  11.859  0.00  0.00    +0.022 A 
ATOM     25  C   UNL     1      -4.011  -9.396  10.348  0.00  0.00    +0.251 A 
ATOM     28  C   UNL     1      -2.197 -10.607  11.457  0.00  0.00    +0.007 A 
ATOM     29  C   UNL     1      -2.583  -9.543  10.748  0.00  0.00    +0.070 A 
ENDBRANCH  17   5
ENDBRANCH  18  17
ENDBRANCH  13  18
BRANCH  15  23
ATOM     23  C   UNL     1      -3.515 -11.171  15.662  0.00  0.00    +0.124 C 
BRANCH  23  30
ATOM      4  O   UNL     1      -1.632  -9.923  14.745  0.00  0.00    -0.251 OA
ATOM     30  C   UNL     1      -2.112 -10.631  15.618  0.00  0.00    +0.305 C 
BRANCH  30   3
ATOM      3  O   UNL     1      -1.427 -11.047  16.714  0.00  0.00    -0.481 OA
ATOM     37  H   UNL     1      -1.976 -11.615  17.296  0.00  0.00    +0.295 HD
ENDBRANCH  30   3
ENDBRANCH  23  30
ENDBRANCH  15  23
TORSDOF 7
ENDMDL
MODEL 6
REMARK VINA RESULT:      -6.8      2.930      5.053
REMARK  Name = 25312749
REMARK  7 active torsions:
REMARK  status: ('A' for Active; 'I' for Inactive)
REMARK    1  A    between atoms: O_3  and  C_30
REMARK    2  A    between atoms: N_5  and  C_17
REMARK    3  A    between atoms: N_8  and  C_27
REMARK    4  A    between atoms: C_13  and  C_18
REMARK    5  A    between atoms: C_15  and  C_23
REMARK    6  A    between atoms: C_17  and  C_18
REMARK    7  A    between atoms: C_23  and  C_30
REMARK                            x       y       z     vdW  Elec       q    Type
REMARK                         _______ _______ _______ _____ _____    ______ ____
ROOT
ATOM      2  O   UNL     1      -2.355 -10.887  16.489  0.00  0.00    -0.253 OA
ATOM      7  N   UNL     1      -4.462 -11.772  16.880  0.00  0.00    -0.285 N 
ATOM      8  N   UNL     1      -3.637 -11.482  14.683  0.00  0.00    -0.296 N 
ATOM     13  C   UNL     1      -6.922 -11.476  16.947  0.00  0.00    +0.011 C 
ATOM     15  C   UNL     1      -6.824 -11.306  18.486  0.00  0.00    +0.006 C 
ATOM     20  C   UNL     1      -5.749 -12.337  16.447  0.00  0.00    +0.113 C 
ATOM     21  C   UNL     1      -5.435 -10.801  18.918  0.00  0.00    +0.023 C 
ATOM     22  C   UNL     1      -4.319 -11.665  18.332  0.00  0.00    +0.109 C 
ATOM     26  C   UNL     1      -3.412 -11.351  16.049  0.00  0.00    +0.302 C 
ATOM     36  H   UNL     1      -4.556 -11.711  14.334  0.00  0.00    +0.151 HD
ENDROOT
BRANCH   8  27
ATOM     27  C   UNL     1      -2.654 -11.083  13.700  0.00  0.00    +0.074 C 
ATOM     31  C   UNL     1      -1.851 -12.291  13.204  0.00  0.00    +0.022 C 
ATOM     32  C   UNL     1      -3.311 -10.337  12.534  0.00  0.00    +0.022 C 
ATOM     33  C   UNL     1      -2.675 -13.212  12.306  0.00  0.00    +0.002 C 
ATOM     34  C   UNL     1      -4.133 -11.262  11.636  0.00  0.00    +0.002 C 
ATOM     35  C   UNL     1      -3.309 -12.449  11.147  0.00  0.00    +0.000 C 
ENDBRANCH   8  27
BRANCH  13  18
ATOM     18  C   UNL     1      -6.982 -10.152  16.174  0.00  0.00    +0.020 C 
BRANCH  18  17
ATOM     17  C   UNL     1      -8.076 -10.178  15.111  0.00  0.00    +0.085 C 
BRANCH  17   5
ATOM      1  O   UNL     1     -11.883  -5.486  13.944  0.00  0.00    -0.268 OA
ATOM      5  N   UNL     1      -9.248  -9.438  15.571  0.00  0.00    -0.301 NA
ATOM      6  N   UNL     1     -11.718  -7.451  15.208  0.00  0.00    -0.312 N 
ATOM      9  C   UNL     1     -10.111  -7.723  17.184  0.00  0.00    +0.024 C 
ATOM     10  C   UNL     1     -11.553  -9.590  16.525  0.00  0.00    +0.050 C 
ATOM     11  C   UNL     1     -11.151  -8.707  17.703  0.00  0.00    +0.017 C 
ATOM     12  C   UNL     1      -8.889  -8.489  16.631  0.00  0.00    +0.089 C 
ATOM     14  C   UNL     1     -10.313 -10.354  16.006  0.00  0.00    +0.094 C 
ATOM     16  C   UNL     1     -10.765  -6.819  16.131  0.00  0.00    +0.130 C 
ATOM     19  C   UNL     1     -12.167  -8.759  15.413  0.00  0.00    +0.026 A 
ATOM     24  C   UNL     1     -13.121  -9.278  14.622  0.00  0.00    +0.022 A 
ATOM     25  C   UNL     1     -12.225  -6.647  14.170  0.00  0.00    +0.251 A 
ATOM     28  C   UNL     1     -13.677  -8.512  13.543  0.00  0.00    +0.007 A 
ATOM     29  C   UNL     1     -13.263  -7.266  13.300  0.00  0.00    +0.070 A 
ENDBRANCH  17   5
ENDBRANCH  18  17
ENDBRANCH  13  18
BRANCH  15  23
ATOM     23  C   UNL     1      -7.924 -10.415  19.062  0.00  0.00    +0.124 C 
BRANCH  23  30
ATOM      4  O   UNL     1      -9.340 -12.381  19.335  0.00  0.00    -0.251 OA
ATOM     30  C   UNL     1      -9.059 -11.227  19.623  0.00  0.00    +0.305 C 
BRANCH  30   3
ATOM      3  O   UNL     1      -9.754 -10.483  20.521  0.00  0.00    -0.481 OA
ATOM     37  H   UNL     1     -10.594 -10.917  20.783  0.00  0.00    +0.295 HD
ENDBRANCH  30   3
ENDBRANCH  23  30
ENDBRANCH  15  23
TORSDOF 7
ENDMDL
MODEL 7
REMARK VINA RESULT:      -6.7      2.282      6.244
REMARK  Name = 25312749
REMARK  7 active torsions:
REMARK  status: ('A' for Active; 'I' for Inactive)
REMARK    1  A    between atoms: O_3  and  C_30
REMARK    2  A    between atoms: N_5  and  C_17
REMARK    3  A    between atoms: N_8  and  C_27
REMARK    4  A    between atoms: C_13  and  C_18
REMARK    5  A    between atoms: C_15  and  C_23
REMARK    6  A    between atoms: C_17  and  C_18
REMARK    7  A    between atoms: C_23  and  C_30
REMARK                            x       y       z     vdW  Elec       q    Type
REMARK                         _______ _______ _______ _____ _____    ______ ____
ROOT
ATOM      2  O   UNL     1      -2.400 -10.605  16.818  0.00  0.00    -0.253 OA
ATOM      7  N   UNL     1      -4.238 -11.943  17.272  0.00  0.00    -0.285 N 
ATOM      8  N   UNL     1      -2.972 -12.221  15.294  0.00  0.00    -0.296 N 
ATOM     13  C   UNL     1      -6.623 -12.497  16.881  0.00  0.00    +0.011 C 
ATOM     15  C   UNL     1      -6.975 -11.750  18.194  0.00  0.00    +0.006 C 
ATOM     20  C   UNL     1      -5.180 -13.028  16.960  0.00  0.00    +0.113 C 
ATOM     21  C   UNL     1      -5.922 -10.682  18.545  0.00  0.00    +0.023 C 
ATOM     22  C   UNL     1      -4.510 -11.267  18.540  0.00  0.00    +0.109 C 
ATOM     26  C   UNL     1      -3.151 -11.528  16.486  0.00  0.00    +0.302 C 
ATOM     36  H   UNL     1      -3.680 -12.860  14.961  0.00  0.00    +0.151 HD
ENDROOT
BRANCH   8  27
ATOM     27  C   UNL     1      -1.903 -11.904  14.374  0.00  0.00    +0.074 C 
ATOM     31  C   UNL     1      -1.493 -13.137  13.561  0.00  0.00    +0.022 C 
ATOM     32  C   UNL     1      -2.290 -10.739  13.457  0.00  0.00    +0.022 C 
ATOM     33  C   UNL     1      -2.544 -13.529  12.523  0.00  0.00    +0.002 C 
ATOM     34  C   UNL     1      -3.341 -11.135  12.419  0.00  0.00    +0.002 C 
ATOM     35  C   UNL     1      -2.905 -12.357  11.616  0.00  0.00    +0.000 C 
ENDBRANCH   8  27
BRANCH  13  18
ATOM     18  C   UNL     1      -6.814 -11.657  15.612  0.00  0.00    +0.020 C 
BRANCH  18  17
ATOM     17  C   UNL     1      -6.357 -12.414  14.369  0.00  0.00    +0.085 C 
BRANCH  17   5
ATOM      1  O   UNL     1      -4.951  -7.899  10.431  0.00  0.00    -0.268 OA
ATOM      5  N   UNL     1      -6.766 -11.701  13.162  0.00  0.00    -0.301 NA
ATOM      6  N   UNL     1      -6.283  -9.814  10.634  0.00  0.00    -0.312 N 
ATOM      9  C   UNL     1      -8.302  -9.965  12.204  0.00  0.00    +0.024 C 
ATOM     10  C   UNL     1      -7.674 -11.903  10.842  0.00  0.00    +0.050 C 
ATOM     11  C   UNL     1      -8.830 -10.967  11.186  0.00  0.00    +0.017 C 
ATOM     12  C   UNL     1      -7.802 -10.705  13.464  0.00  0.00    +0.089 C 
ATOM     14  C   UNL     1      -7.208 -12.639  12.120  0.00  0.00    +0.094 C 
ATOM     16  C   UNL     1      -7.205  -9.120  11.543  0.00  0.00    +0.130 C 
ATOM     19  C   UNL     1      -6.522 -11.131  10.225  0.00  0.00    +0.026 A 
ATOM     24  C   UNL     1      -5.728 -11.708   9.308  0.00  0.00    +0.022 A 
ATOM     25  C   UNL     1      -5.208  -9.063  10.124  0.00  0.00    +0.251 A 
ATOM     28  C   UNL     1      -4.611 -10.998   8.752  0.00  0.00    +0.007 A 
ATOM     29  C   UNL     1      -4.336  -9.747   9.128  0.00  0.00    +0.070 A 
ENDBRANCH  17   5
ENDBRANCH  18  17
ENDBRANCH  13  18
BRANCH  15  23
ATOM     23  C   UNL     1      -8.376 -11.140  18.179  0.00  0.00    +0.124 C 
BRANCH  23  30
ATOM      4  O   UNL     1      -9.580 -12.566  19.749  0.00  0.00    -0.251 OA
ATOM     30  C   UNL     1      -9.138 -11.470  19.433  0.00  0.00    +0.305 C 
BRANCH  30   3
ATOM      3  O   UNL     1      -9.277 -10.353  20.192  0.00  0.00    -0.481 OA
ATOM     37  H   UNL     1      -8.956  -9.552  19.727  0.00  0.00    +0.295 HD
ENDBRANCH  30   3
ENDBRANCH  23  30
ENDBRANCH  15  23
TORSDOF 7
ENDMDL
MODEL 8
REMARK VINA RESULT:      -6.6     20.814     23.311
REMARK  Name = 25312749
REMARK  7 active torsions:
REMARK  status: ('A' for Active; 'I' for Inactive)
REMARK    1  A    between atoms: O_3  and  C_30
REMARK    2  A    between atoms: N_5  and  C_17
REMARK    3  A    between atoms: N_8  and  C_27
REMARK    4  A    between atoms: C_13  and  C_18
REMARK    5  A    between atoms: C_15  and  C_23
REMARK    6  A    between atoms: C_17  and  C_18
REMARK    7  A    between atoms: C_23  and  C_30
REMARK                            x       y       z     vdW  Elec       q    Type
REMARK                         _______ _______ _______ _____ _____    ______ ____
ROOT
ATOM      2  O   UNL     1      -9.710   9.206  18.579  0.00  0.00    -0.253 OA
ATOM      7  N   UNL     1     -11.859   8.458  19.029  0.00  0.00    -0.285 N 
ATOM      8  N   UNL     1     -11.423  10.730  18.540  0.00  0.00    -0.296 N 
ATOM     13  C   UNL     1     -13.755   8.242  20.611  0.00  0.00    +0.011 C 
ATOM     15  C   UNL     1     -13.302   6.787  20.900  0.00  0.00    +0.006 C 
ATOM     20  C   UNL     1     -13.307   8.651  19.197  0.00  0.00    +0.113 C 
ATOM     21  C   UNL     1     -11.799   6.591  20.627  0.00  0.00    +0.023 C 
ATOM     22  C   UNL     1     -11.417   7.078  19.230  0.00  0.00    +0.109 C 
ATOM     26  C   UNL     1     -10.916   9.447  18.705  0.00  0.00    +0.302 C 
ATOM     36  H   UNL     1     -12.375  10.943  18.800  0.00  0.00    +0.151 HD
ENDROOT
BRANCH   8  27
ATOM     27  C   UNL     1     -10.576  11.856  18.214  0.00  0.00    +0.074 C 
ATOM     31  C   UNL     1     -10.109  11.788  16.755  0.00  0.00    +0.022 C 
ATOM     32  C   UNL     1     -11.283  13.183  18.509  0.00  0.00    +0.022 C 
ATOM     33  C   UNL     1     -11.235  12.088  15.766  0.00  0.00    +0.002 C 
ATOM     34  C   UNL     1     -12.408  13.480  17.517  0.00  0.00    +0.002 C 
ATOM     35  C   UNL     1     -11.916  13.418  16.074  0.00  0.00    +0.000 C 
ENDBRANCH   8  27
BRANCH  13  18
ATOM     18  C   UNL     1     -13.267   9.266  21.644  0.00  0.00    +0.020 C 
BRANCH  18  17
ATOM     17  C   UNL     1     -14.421   9.794  22.491  0.00  0.00    +0.085 C 
BRANCH  17   5
ATOM      1  O   UNL     1     -13.890  10.529  28.578  0.00  0.00    -0.268 OA
ATOM      5  N   UNL     1     -13.914  10.652  23.559  0.00  0.00    -0.301 NA
ATOM      6  N   UNL     1     -12.996  11.283  26.549  0.00  0.00    -0.312 N 
ATOM      9  C   UNL     1     -14.297  12.741  24.893  0.00  0.00    +0.024 C 
ATOM     10  C   UNL     1     -12.007  12.051  24.365  0.00  0.00    +0.050 C 
ATOM     11  C   UNL     1     -12.922  13.265  24.503  0.00  0.00    +0.017 C 
ATOM     12  C   UNL     1     -14.824  11.778  23.807  0.00  0.00    +0.089 C 
ATOM     14  C   UNL     1     -12.552  11.117  23.261  0.00  0.00    +0.094 C 
ATOM     16  C   UNL     1     -14.201  12.077  26.273  0.00  0.00    +0.130 C 
ATOM     19  C   UNL     1     -11.898  11.308  25.683  0.00  0.00    +0.026 A 
ATOM     24  C   UNL     1     -10.765  10.663  26.011  0.00  0.00    +0.022 A 
ATOM     25  C   UNL     1     -12.965  10.579  27.767  0.00  0.00    +0.251 A 
ATOM     28  C   UNL     1     -10.670   9.922  27.237  0.00  0.00    +0.007 A 
ATOM     29  C   UNL     1     -11.701   9.858  28.083  0.00  0.00    +0.070 A 
ENDBRANCH  17   5
ENDBRANCH  18  17
ENDBRANCH  13  18
BRANCH  15  23
ATOM     23  C   UNL     1     -13.660   6.316  22.309  0.00  0.00    +0.124 C 
BRANCH  23  30
ATOM      4  O   UNL     1     -15.243   4.695  21.411  0.00  0.00    -0.251 OA
ATOM     30  C   UNL     1     -14.461   5.045  22.283  0.00  0.00    +0.305 C 
BRANCH  30   3
ATOM      3  O   UNL     1     -14.194   4.311  23.394  0.00  0.00    -0.481 OA
ATOM     37  H   UNL     1     -14.893   4.411  24.075  0.00  0.00    +0.295 HD
ENDBRANCH  30   3
ENDBRANCH  23  30
ENDBRANCH  15  23
TORSDOF 7
ENDMDL
MODEL 9
REMARK VINA RESULT:      -6.3      2.463      5.826
REMARK  Name = 25312749
REMARK  7 active torsions:
REMARK  status: ('A' for Active; 'I' for Inactive)
REMARK    1  A    between atoms: O_3  and  C_30
REMARK    2  A    between atoms: N_5  and  C_17
REMARK    3  A    between atoms: N_8  and  C_27
REMARK    4  A    between atoms: C_13  and  C_18
REMARK    5  A    between atoms: C_15  and  C_23
REMARK    6  A    between atoms: C_17  and  C_18
REMARK    7  A    between atoms: C_23  and  C_30
REMARK                            x       y       z     vdW  Elec       q    Type
REMARK                         _______ _______ _______ _____ _____    ______ ____
ROOT
ATOM      2  O   UNL     1      -3.149 -13.025  11.329  0.00  0.00    -0.253 OA
ATOM      7  N   UNL     1      -3.860 -10.887  10.782  0.00  0.00    -0.285 N 
ATOM      8  N   UNL     1      -3.126 -11.419  12.966  0.00  0.00    -0.296 N 
ATOM     13  C   UNL     1      -5.621  -9.143  10.841  0.00  0.00    +0.011 C 
ATOM     15  C   UNL     1      -6.000  -9.527   9.386  0.00  0.00    +0.006 C 
ATOM     20  C   UNL     1      -4.140  -9.477  11.094  0.00  0.00    +0.113 C 
ATOM     21  C   UNL     1      -5.611 -10.980   9.058  0.00  0.00    +0.023 C 
ATOM     22  C   UNL     1      -4.146 -11.256   9.395  0.00  0.00    +0.109 C 
ATOM     26  C   UNL     1      -3.362 -11.856  11.667  0.00  0.00    +0.302 C 
ATOM     36  H   UNL     1      -3.451 -10.512  13.269  0.00  0.00    +0.151 HD
ENDROOT
BRANCH   8  27
ATOM     27  C   UNL     1      -2.622 -12.302  13.994  0.00  0.00    +0.074 C 
ATOM     31  C   UNL     1      -1.198 -11.910  14.406  0.00  0.00    +0.022 C 
ATOM     32  C   UNL     1      -3.561 -12.332  15.204  0.00  0.00    +0.022 C 
ATOM     33  C   UNL     1      -1.160 -10.613  15.214  0.00  0.00    +0.002 C 
ATOM     34  C   UNL     1      -3.518 -11.034  16.011  0.00  0.00    +0.002 C 
ATOM     35  C   UNL     1      -2.093 -10.671  16.419  0.00  0.00    +0.000 C 
ENDBRANCH   8  27
BRANCH  13  18
ATOM     18  C   UNL     1      -6.507  -9.794  11.910  0.00  0.00    +0.020 C 
BRANCH  18  17
ATOM     17  C   UNL     1      -5.958  -9.547  13.312  0.00  0.00    +0.085 C 
BRANCH  17   5
ATOM      1  O   UNL     1      -5.330 -13.669  17.839  0.00  0.00    -0.268 OA
ATOM      5  N   UNL     1      -6.659 -10.381  14.286  0.00  0.00    -0.301 NA
ATOM      6  N   UNL     1      -6.870 -12.158  16.927  0.00  0.00    -0.312 N 
ATOM      9  C   UNL     1      -7.977 -12.485  14.640  0.00  0.00    +0.024 C 
ATOM     10  C   UNL     1      -8.501 -10.496  15.971  0.00  0.00    +0.050 C 
ATOM     11  C   UNL     1      -9.123 -11.688  15.247  0.00  0.00    +0.017 C 
ATOM     12  C   UNL     1      -7.180 -11.600  13.656  0.00  0.00    +0.089 C 
ATOM     14  C   UNL     1      -7.726  -9.624  14.957  0.00  0.00    +0.094 C 
ATOM     16  C   UNL     1      -7.103 -13.039  15.774  0.00  0.00    +0.130 C 
ATOM     19  C   UNL     1      -7.579 -10.963  17.082  0.00  0.00    +0.026 A 
ATOM     24  C   UNL     1      -7.431 -10.229  18.198  0.00  0.00    +0.022 A 
ATOM     25  C   UNL     1      -5.973 -12.622  17.908  0.00  0.00    +0.251 A 
ATOM     28  C   UNL     1      -6.529 -10.644  19.235  0.00  0.00    +0.007 A 
ATOM     29  C   UNL     1      -5.818 -11.769  19.119  0.00  0.00    +0.070 A 
ENDBRANCH  17   5
ENDBRANCH  18  17
ENDBRANCH  13  18
BRANCH  15  23
ATOM     23  C   UNL     1      -7.473  -9.278   9.066  0.00  0.00    +0.124 C 
BRANCH  23  30
ATOM      4  O   UNL     1      -8.098  -8.662   6.791  0.00  0.00    -0.251 OA
ATOM     30  C   UNL     1      -7.637  -8.364   7.883  0.00  0.00    +0.305 C 
BRANCH  30   3
ATOM      3  O   UNL     1      -7.191  -7.121   8.200  0.00  0.00    -0.481 OA
ATOM     37  H   UNL     1      -7.079  -6.559   7.404  0.00  0.00    +0.295 HD
ENDBRANCH  30   3
ENDBRANCH  23  30
ENDBRANCH  15  23
TORSDOF 7
ENDMDL
MODEL 10
REMARK VINA RESULT:      -6.2     24.045     28.735
REMARK  Name = 25312749
REMARK  7 active torsions:
REMARK  status: ('A' for Active; 'I' for Inactive)
REMARK    1  A    between atoms: O_3  and  C_30
REMARK    2  A    between atoms: N_5  and  C_17
REMARK    3  A    between atoms: N_8  and  C_27
REMARK    4  A    between atoms: C_13  and  C_18
REMARK    5  A    between atoms: C_15  and  C_23
REMARK    6  A    between atoms: C_17  and  C_18
REMARK    7  A    between atoms: C_23  and  C_30
REMARK                            x       y       z     vdW  Elec       q    Type
REMARK                         _______ _______ _______ _____ _____    ______ ____
ROOT
ATOM      2  O   UNL     1      11.540  11.496   6.012  0.00  0.00    -0.253 OA
ATOM      7  N   UNL     1      11.960   9.366   6.828  0.00  0.00    -0.285 N 
ATOM      8  N   UNL     1      13.090  10.200   4.925  0.00  0.00    -0.296 N 
ATOM     13  C   UNL     1      11.636   6.914   6.660  0.00  0.00    +0.011 C 
ATOM     15  C   UNL     1      10.563   7.016   7.775  0.00  0.00    +0.006 C 
ATOM     20  C   UNL     1      12.646   8.066   6.810  0.00  0.00    +0.113 C 
ATOM     21  C   UNL     1       9.927   8.417   7.832  0.00  0.00    +0.023 C 
ATOM     22  C   UNL     1      10.990   9.511   7.914  0.00  0.00    +0.109 C 
ATOM     26  C   UNL     1      12.156  10.428   5.930  0.00  0.00    +0.302 C 
ATOM     36  H   UNL     1      13.466   9.276   4.775  0.00  0.00    +0.151 HD
ENDROOT
BRANCH   8  27
ATOM     27  C   UNL     1      13.395  11.194   3.920  0.00  0.00    +0.074 C 
ATOM     31  C   UNL     1      14.556  12.090   4.366  0.00  0.00    +0.022 C 
ATOM     32  C   UNL     1      13.689  10.537   2.567  0.00  0.00    +0.022 C 
ATOM     33  C   UNL     1      15.899  11.360   4.345  0.00  0.00    +0.002 C 
ATOM     34  C   UNL     1      15.033   9.810   2.549  0.00  0.00    +0.002 C 
ATOM     35  C   UNL     1      16.174  10.725   2.986  0.00  0.00    +0.000 C 
ENDBRANCH   8  27
BRANCH  13  18
ATOM     18  C   UNL     1      11.060   6.889   5.239  0.00  0.00    +0.020 C 
BRANCH  18  17
ATOM     17  C   UNL     1      10.861   5.459   4.745  0.00  0.00    +0.085 C 
BRANCH  17   5
ATOM      1  O   UNL     1      14.620   7.266   0.220  0.00  0.00    -0.268 OA
ATOM      5  N   UNL     1      11.152   5.371   3.316  0.00  0.00    -0.301 NA
ATOM      6  N   UNL     1      13.014   5.643   0.739  0.00  0.00    -0.312 N 
ATOM      9  C   UNL     1      10.523   6.167   1.023  0.00  0.00    +0.024 C 
ATOM     10  C   UNL     1      11.323   3.872   1.324  0.00  0.00    +0.050 C 
ATOM     11  C   UNL     1      10.320   4.731   0.559  0.00  0.00    +0.017 C 
ATOM     12  C   UNL     1      10.285   6.270   2.546  0.00  0.00    +0.089 C 
ATOM     14  C   UNL     1      11.048   3.983   2.841  0.00  0.00    +0.094 C 
ATOM     16  C   UNL     1      11.930   6.626   0.615  0.00  0.00    +0.130 C 
ATOM     19  C   UNL     1      12.745   4.297   1.011  0.00  0.00    +0.026 A 
ATOM     24  C   UNL     1      13.742   3.395   1.010  0.00  0.00    +0.022 A 
ATOM     25  C   UNL     1      14.319   6.101   0.478  0.00  0.00    +0.251 A 
ATOM     28  C   UNL     1      15.096   3.798   0.756  0.00  0.00    +0.007 A 
ATOM     29  C   UNL     1      15.399   5.075   0.511  0.00  0.00    +0.070 A 
ENDBRANCH  17   5
ENDBRANCH  18  17
ENDBRANCH  13  18
BRANCH  15  23
ATOM     23  C   UNL     1       9.484   5.938   7.669  0.00  0.00    +0.124 C 
BRANCH  23  30
ATOM      4  O   UNL     1      10.016   4.613   9.645  0.00  0.00    -0.251 OA
ATOM     30  C   UNL     1       9.859   4.700   8.435  0.00  0.00    +0.305 C 
BRANCH  30   3
ATOM      3  O   UNL     1      10.006   3.657   7.578  0.00  0.00    -0.481 OA
ATOM     37  H   UNL     1      10.369   3.943   6.713  0.00  0.00    +0.295 HD
ENDBRANCH  30   3
ENDBRANCH  23  30
ENDBRANCH  15  23
TORSDOF 7
ENDMDL
