REMARK  Name = 45784327
REMARK  5 active torsions:
REMARK  status: ('A' for Active; 'I' for Inactive)
REMARK    1  A    between atoms: N_4  and  C_13
REMARK    2  A    between atoms: C_8  and  C_12
REMARK    3  A    between atoms: C_13  and  C_14
REMARK    4  A    between atoms: C_23  and  C_26
REMARK    5  A    between atoms: C_24  and  C_27
REMARK                            x       y       z     vdW  Elec       q    Type
REMARK                         _______ _______ _______ _____ _____    ______ ____
ROOT
ATOM      4  N   UNL     1      -1.040  -0.184  -0.274  0.00  0.00    -0.297 NA
ATOM      8  C   UNL     1       1.137  -0.761   0.379  0.00  0.00    +0.070 C 
ATOM      9  C   UNL     1       0.389  -0.141   1.572  0.00  0.00    +0.028 C 
ATOM     10  C   UNL     1       0.292  -0.387  -0.846  0.00  0.00    +0.096 C 
ATOM     11  C   UNL     1      -0.811   0.569   0.959  0.00  0.00    +0.085 C 
ENDROOT
BRANCH   8  12
ATOM      5  N   UNL     1       3.595  -1.261   0.288  0.00  0.00    -0.342 N 
ATOM      6  N   UNL     1       3.036   0.881   0.091  0.00  0.00    -0.232 NA
ATOM     12  C   UNL     1       2.583  -0.342   0.249  0.00  0.00    +0.113 A 
ATOM     15  C   UNL     1       4.779  -0.585   0.146  0.00  0.00    +0.067 A 
ATOM     16  C   UNL     1       4.404   0.750   0.025  0.00  0.00    +0.089 A 
ATOM     19  C   UNL     1       6.107  -1.014   0.114  0.00  0.00    +0.046 A 
ATOM     20  C   UNL     1       5.398   1.729  -0.139  0.00  0.00    +0.031 A 
ATOM     24  C   UNL     1       7.083  -0.026  -0.050  0.00  0.00    +0.054 A 
ATOM     25  C   UNL     1       6.738   1.321  -0.174  0.00  0.00    +0.021 A 
ATOM     28  H   UNL     1       3.492  -2.261   0.402  0.00  0.00    +0.167 HD
BRANCH  24  27
ATOM      7  N   UNL     1       9.580  -0.713  -0.123  0.00  0.00    -0.191 NA
ATOM     27  C   UNL     1       8.462  -0.405  -0.091  0.00  0.00    +0.099 C 
ENDBRANCH  24  27
ENDBRANCH   8  12
BRANCH   4  13
ATOM     13  C   UNL     1      -1.938   0.507  -1.188  0.00  0.00    +0.119 C 
BRANCH  13  14
ATOM     14  C   UNL     1      -3.381   0.330  -0.798  0.00  0.00    -0.033 A 
ATOM     17  C   UNL     1      -4.031  -0.876  -1.063  0.00  0.00    +0.005 A 
ATOM     18  C   UNL     1      -4.068   1.369  -0.170  0.00  0.00    +0.005 A 
ATOM     21  C   UNL     1      -5.368  -1.041  -0.702  0.00  0.00    +0.012 A 
ATOM     22  C   UNL     1      -5.405   1.204   0.191  0.00  0.00    +0.012 A 
ATOM     23  C   UNL     1      -6.055  -0.001  -0.074  0.00  0.00    +0.055 A 
BRANCH  23  26
ATOM      1  F   UNL     1      -7.707  -0.043   1.655  0.00  0.00    -0.166 F 
ATOM      2  F   UNL     1      -7.967  -1.413  -0.012  0.00  0.00    -0.166 F 
ATOM      3  F   UNL     1      -8.328   0.714  -0.280  0.00  0.00    -0.166 F 
ATOM     26  C   UNL     1      -7.484  -0.180   0.315  0.00  0.00    +0.417 C 
ENDBRANCH  23  26
ENDBRANCH  13  14
ENDBRANCH   4  13
TORSDOF 5
