REMARK  Name = 11912970
REMARK  5 active torsions:
REMARK  status: ('A' for Active; 'I' for Inactive)
REMARK    1  A    between atoms: N_5  and  C_11
REMARK    2  A    between atoms: N_6  and  C_12
REMARK    3  A    between atoms: C_15  and  C_17
REMARK    4  A    between atoms: C_20  and  C_26
REMARK    5  A    between atoms: C_25  and  C_27
REMARK                            x       y       z     vdW  Elec       q    Type
REMARK                         _______ _______ _______ _____ _____    ______ ____
ROOT
ATOM      1  O   UNL     1       0.118   1.221   1.713  0.00  0.00    -0.370 OA
ATOM      2  O   UNL     1      -0.105   3.678  -0.197  0.00  0.00    -0.370 OA
ATOM      9  C   UNL     1      -0.598   2.330  -0.266  0.00  0.00    +0.171 C 
ATOM     10  C   UNL     1       0.465   1.430   0.334  0.00  0.00    +0.171 C 
ATOM     11  C   UNL     1      -1.786   2.158   0.653  0.00  0.00    +0.130 C 
ATOM     12  C   UNL     1       1.736   2.238   0.229  0.00  0.00    +0.130 C 
ATOM     13  C   UNL     1      -1.126   1.881   1.991  0.00  0.00    +0.185 C 
ATOM     14  C   UNL     1       1.231   3.666   0.327  0.00  0.00    +0.185 C 
ENDROOT
BRANCH  12   6
ATOM      6  N   UNL     1       2.360   2.015  -1.057  0.00  0.00    -0.306 N 
ATOM      7  N   UNL     1       3.473   0.090  -0.307  0.00  0.00    -0.211 NA
ATOM      8  N   UNL     1       3.731   0.865  -2.574  0.00  0.00    -0.223 NA
ATOM     16  C   UNL     1       3.213   0.959  -1.320  0.00  0.00    +0.216 A 
ATOM     20  C   UNL     1       4.308  -0.928  -0.599  0.00  0.00    +0.111 A 
ATOM     21  C   UNL     1       4.558  -0.177  -2.797  0.00  0.00    +0.116 A 
ATOM     22  C   UNL     1       4.886  -1.114  -1.838  0.00  0.00    +0.051 A 
ATOM     32  H   UNL     1       2.133   2.626  -1.833  0.00  0.00    +0.149 HD
BRANCH  20  26
ATOM      4  O   UNL     1       3.931  -1.527   1.655  0.00  0.00    -0.461 OA
ATOM     26  C   UNL     1       4.564  -1.830   0.493  0.00  0.00    +0.153 A 
ATOM     28  C   UNL     1       5.327  -2.963   0.634  0.00  0.00    +0.051 A 
ATOM     29  C   UNL     1       5.152  -3.387   1.973  0.00  0.00    +0.042 A 
ATOM     30  C   UNL     1       4.295  -2.480   2.552  0.00  0.00    +0.196 A 
ENDBRANCH  20  26
ENDBRANCH  12   6
BRANCH  11   5
ATOM      3  O   UNL     1      -4.588   1.811   1.182  0.00  0.00    -0.270 OA
ATOM      5  N   UNL     1      -2.611   1.049   0.237  0.00  0.00    -0.304 N 
ATOM     15  C   UNL     1      -3.962   0.969   0.542  0.00  0.00    +0.244 C 
ATOM     31  H   UNL     1      -2.138   0.263  -0.195  0.00  0.00    +0.149 HD
BRANCH  15  17
ATOM     17  C   UNL     1      -4.666  -0.249   0.064  0.00  0.00    +0.037 A 
ATOM     18  C   UNL     1      -5.779  -0.688   0.751  0.00  0.00    +0.013 A 
ATOM     19  C   UNL     1      -4.185  -0.902  -1.052  0.00  0.00    +0.013 A 
ATOM     23  C   UNL     1      -6.440  -1.831   0.302  0.00  0.00    +0.004 A 
ATOM     24  C   UNL     1      -4.847  -2.045  -1.501  0.00  0.00    +0.004 A 
ATOM     25  C   UNL     1      -5.974  -2.509  -0.824  0.00  0.00    -0.050 A 
ATOM     27  C   UNL     1      -6.681  -3.732  -1.304  0.00  0.00    +0.044 C 
ENDBRANCH  15  17
ENDBRANCH  11   5
TORSDOF 4
