MODEL 1
REMARK VINA RESULT:      -6.8      0.000      0.000
REMARK  Name = 7052042
REMARK  11 active torsions:
REMARK  status: ('A' for Active; 'I' for Inactive)
REMARK    1  A    between atoms: O_4  and  C_27
REMARK    2  A    between atoms: O_4  and  C_34
REMARK    3  A    between atoms: N_8  and  C_24
REMARK    4  A    between atoms: N_9  and  C_25
REMARK    5  A    between atoms: C_11  and  C_18
REMARK    6  A    between atoms: C_16  and  C_22
REMARK    7  A    between atoms: C_24  and  C_26
REMARK    8  A    between atoms: C_24  and  C_27
REMARK    9  A    between atoms: C_25  and  C_29
REMARK   10  A    between atoms: C_25  and  C_30
REMARK   11  A    between atoms: C_26  and  C_28
REMARK                            x       y       z     vdW  Elec       q    Type
REMARK                         _______ _______ _______ _____ _____    ______ ____
ROOT
ATOM      1  O   UNL     1      11.158  11.944  22.123  0.00  0.00    -0.275 OA
ATOM      3  O   UNL     1      17.291  12.570  18.137  0.00  0.00    -0.253 OA
ATOM      6  N   UNL     1      13.199  12.464  21.135  0.00  0.00    -0.287 N 
ATOM      7  N   UNL     1      15.124  12.329  18.937  0.00  0.00    -0.282 N 
ATOM      9  N   UNL     1      15.603  12.130  16.635  0.00  0.00    -0.297 N 
ATOM     16  C   UNL     1      12.929  11.636  19.960  0.00  0.00    +0.179 C 
ATOM     18  C   UNL     1      12.217  12.577  22.125  0.00  0.00    +0.219 C 
ATOM     19  C   UNL     1      14.454  13.222  21.148  0.00  0.00    +0.127 C 
ATOM     20  C   UNL     1      13.693  12.075  18.711  0.00  0.00    +0.141 C 
ATOM     21  C   UNL     1      15.547  12.567  20.316  0.00  0.00    +0.128 C 
ATOM     23  C   UNL     1      16.094  12.355  17.918  0.00  0.00    +0.303 C 
ATOM     37  H   UNL     1      14.621  11.950  16.479  0.00  0.00    +0.150 HD
ENDROOT
BRANCH  18  11
ATOM     11  C   UNL     1      12.508  13.531  23.247  0.00  0.00    +0.075 C 
ATOM     12  C   UNL     1      12.880  12.757  24.513  0.00  0.00    +0.013 C 
ATOM     13  C   UNL     1      11.340  14.496  23.465  0.00  0.00    +0.013 C 
ATOM     14  C   UNL     1      11.672  12.129  25.208  0.00  0.00    +0.001 C 
ATOM     15  C   UNL     1      10.152  13.860  24.187  0.00  0.00    +0.001 C 
ATOM     17  C   UNL     1      10.578  13.157  25.471  0.00  0.00    +0.000 C 
ENDBRANCH  18  11
BRANCH  16  22
ATOM      2  O   UNL     1      13.501   9.876  21.471  0.00  0.00    -0.274 OA
ATOM      8  N   UNL     1      13.266   9.385  19.208  0.00  0.00    -0.301 N 
ATOM     22  C   UNL     1      13.257  10.214  20.316  0.00  0.00    +0.236 C 
ATOM     36  H   UNL     1      13.073   9.779  18.290  0.00  0.00    +0.150 HD
BRANCH   8  24
ATOM     24  C   UNL     1      13.575   7.975  19.278  0.00  0.00    +0.186 C 
BRANCH  24  27
ATOM      5  O   UNL     1      11.900   7.231  17.701  0.00  0.00    -0.249 OA
ATOM     27  C   UNL     1      12.412   7.110  18.810  0.00  0.00    +0.328 C 
BRANCH  27   4
ATOM      4  O   UNL     1      12.016   6.221  19.765  0.00  0.00    -0.467 OA
ATOM     34  C   UNL     1      11.813   6.764  21.073  0.00  0.00    +0.280 C 
ENDBRANCH  27   4
ENDBRANCH  24  27
BRANCH  24  26
ATOM     26  C   UNL     1      14.877   7.637  18.535  0.00  0.00    +0.070 C 
BRANCH  26  28
ATOM     10  N   UNL     1      17.937   5.887  19.929  0.00  0.00    -0.263 NA
ATOM     28  C   UNL     1      16.050   7.313  19.432  0.00  0.00    -0.027 A 
ATOM     31  C   UNL     1      16.333   8.090  20.550  0.00  0.00    +0.006 A 
ATOM     32  C   UNL     1      16.875   6.232  19.167  0.00  0.00    +0.114 A 
ATOM     33  C   UNL     1      17.418   7.766  21.358  0.00  0.00    +0.020 A 
ATOM     35  C   UNL     1      18.182   6.665  21.007  0.00  0.00    +0.111 A 
ENDBRANCH  26  28
ENDBRANCH  24  26
ENDBRANCH   8  24
ENDBRANCH  16  22
BRANCH   9  25
ATOM     25  C   UNL     1      16.458  12.131  15.469  0.00  0.00    +0.068 C 
ATOM     29  C   UNL     1      16.513  13.523  14.854  0.00  0.00    +0.027 C 
ATOM     30  C   UNL     1      15.980  11.098  14.456  0.00  0.00    +0.027 C 
ENDBRANCH   9  25
TORSDOF 8
ENDMDL
MODEL 2
REMARK VINA RESULT:      -6.2     26.896     31.129
REMARK  Name = 7052042
REMARK  11 active torsions:
REMARK  status: ('A' for Active; 'I' for Inactive)
REMARK    1  A    between atoms: O_4  and  C_27
REMARK    2  A    between atoms: O_4  and  C_34
REMARK    3  A    between atoms: N_8  and  C_24
REMARK    4  A    between atoms: N_9  and  C_25
REMARK    5  A    between atoms: C_11  and  C_18
REMARK    6  A    between atoms: C_16  and  C_22
REMARK    7  A    between atoms: C_24  and  C_26
REMARK    8  A    between atoms: C_24  and  C_27
REMARK    9  A    between atoms: C_25  and  C_29
REMARK   10  A    between atoms: C_25  and  C_30
REMARK   11  A    between atoms: C_26  and  C_28
REMARK                            x       y       z     vdW  Elec       q    Type
REMARK                         _______ _______ _______ _____ _____    ______ ____
ROOT
ATOM      1  O   UNL     1      -4.573 -11.093  10.438  0.00  0.00    -0.275 OA
ATOM      3  O   UNL     1     -10.626 -10.280  14.512  0.00  0.00    -0.253 OA
ATOM      6  N   UNL     1      -6.698 -10.990  11.380  0.00  0.00    -0.287 N 
ATOM      7  N   UNL     1      -8.590 -10.074  13.413  0.00  0.00    -0.282 N 
ATOM      9  N   UNL     1      -9.298  -8.460  14.983  0.00  0.00    -0.297 N 
ATOM     16  C   UNL     1      -6.238 -10.200  12.522  0.00  0.00    +0.179 C 
ATOM     18  C   UNL     1      -5.782 -11.332  10.380  0.00  0.00    +0.219 C 
ATOM     19  C   UNL     1      -8.133 -11.279  11.298  0.00  0.00    +0.127 C 
ATOM     20  C   UNL     1      -7.335  -9.350  13.163  0.00  0.00    +0.141 C 
ATOM     21  C   UNL     1      -8.806 -11.309  12.663  0.00  0.00    +0.128 C 
ATOM     23  C   UNL     1      -9.580  -9.651  14.321  0.00  0.00    +0.303 C 
ATOM     37  H   UNL     1      -8.432  -7.964  14.816  0.00  0.00    +0.150 HD
ENDROOT
BRANCH  18  11
ATOM     11  C   UNL     1      -6.339 -12.042   9.179  0.00  0.00    +0.075 C 
ATOM     12  C   UNL     1      -5.503 -13.284   8.868  0.00  0.00    +0.013 C 
ATOM     13  C   UNL     1      -6.457 -11.092   7.985  0.00  0.00    +0.013 C 
ATOM     14  C   UNL     1      -4.170 -12.957   8.196  0.00  0.00    +0.001 C 
ATOM     15  C   UNL     1      -5.118 -10.798   7.308  0.00  0.00    +0.001 C 
ATOM     17  C   UNL     1      -4.361 -12.077   6.967  0.00  0.00    +0.000 C 
ENDBRANCH  18  11
BRANCH  16  22
ATOM      2  O   UNL     1      -5.729 -12.366  13.394  0.00  0.00    -0.274 OA
ATOM      8  N   UNL     1      -5.030 -10.486  14.574  0.00  0.00    -0.301 N 
ATOM     22  C   UNL     1      -5.642 -11.149  13.523  0.00  0.00    +0.236 C 
ATOM     36  H   UNL     1      -5.039  -9.469  14.592  0.00  0.00    +0.150 HD
BRANCH   8  24
ATOM     24  C   UNL     1      -4.400 -11.169  15.680  0.00  0.00    +0.186 C 
BRANCH  24  27
ATOM      5  O   UNL     1      -2.540 -12.240  14.566  0.00  0.00    -0.249 OA
ATOM     27  C   UNL     1      -2.924 -11.444  15.418  0.00  0.00    +0.328 C 
BRANCH  27   4
ATOM      4  O   UNL     1      -2.113 -10.723  16.243  0.00  0.00    -0.467 OA
ATOM     34  C   UNL     1      -1.027 -10.043  15.606  0.00  0.00    +0.280 C 
ENDBRANCH  27   4
ENDBRANCH  24  27
BRANCH  24  26
ATOM     26  C   UNL     1      -4.620 -10.429  17.008  0.00  0.00    +0.070 C 
BRANCH  26  28
ATOM     10  N   UNL     1      -6.758 -11.086  20.069  0.00  0.00    -0.263 NA
ATOM     28  C   UNL     1      -5.608 -11.088  17.942  0.00  0.00    -0.027 A 
ATOM     31  C   UNL     1      -6.265 -12.259  17.580  0.00  0.00    +0.006 A 
ATOM     32  C   UNL     1      -5.887 -10.547  19.187  0.00  0.00    +0.114 A 
ATOM     33  C   UNL     1      -7.169 -12.844  18.461  0.00  0.00    +0.020 A 
ATOM     35  C   UNL     1      -7.378 -12.224  19.682  0.00  0.00    +0.111 A 
ENDBRANCH  26  28
ENDBRANCH  24  26
ENDBRANCH   8  24
ENDBRANCH  16  22
BRANCH   9  25
ATOM     25  C   UNL     1     -10.208  -7.875  15.942  0.00  0.00    +0.068 C 
ATOM     29  C   UNL     1     -10.459  -6.411  15.609  0.00  0.00    +0.027 C 
ATOM     30  C   UNL     1      -9.666  -8.034  17.358  0.00  0.00    +0.027 C 
ENDBRANCH   9  25
TORSDOF 8
ENDMDL
MODEL 3
REMARK VINA RESULT:      -6.1     27.406     30.762
REMARK  Name = 7052042
REMARK  11 active torsions:
REMARK  status: ('A' for Active; 'I' for Inactive)
REMARK    1  A    between atoms: O_4  and  C_27
REMARK    2  A    between atoms: O_4  and  C_34
REMARK    3  A    between atoms: N_8  and  C_24
REMARK    4  A    between atoms: N_9  and  C_25
REMARK    5  A    between atoms: C_11  and  C_18
REMARK    6  A    between atoms: C_16  and  C_22
REMARK    7  A    between atoms: C_24  and  C_26
REMARK    8  A    between atoms: C_24  and  C_27
REMARK    9  A    between atoms: C_25  and  C_29
REMARK   10  A    between atoms: C_25  and  C_30
REMARK   11  A    between atoms: C_26  and  C_28
REMARK                            x       y       z     vdW  Elec       q    Type
REMARK                         _______ _______ _______ _____ _____    ______ ____
ROOT
ATOM      1  O   UNL     1      -4.899 -14.027  12.899  0.00  0.00    -0.275 OA
ATOM      3  O   UNL     1      -7.234  -9.635  18.298  0.00  0.00    -0.253 OA
ATOM      6  N   UNL     1      -5.489 -12.946  14.873  0.00  0.00    -0.287 N 
ATOM      7  N   UNL     1      -6.946 -10.902  16.372  0.00  0.00    -0.282 N 
ATOM      9  N   UNL     1      -8.818  -9.489  16.634  0.00  0.00    -0.297 N 
ATOM     16  C   UNL     1      -6.296 -11.946  14.175  0.00  0.00    +0.179 C 
ATOM     18  C   UNL     1      -4.881 -13.964  14.131  0.00  0.00    +0.219 C 
ATOM     19  C   UNL     1      -5.462 -12.884  16.338  0.00  0.00    +0.127 C 
ATOM     20  C   UNL     1      -7.396 -11.332  15.040  0.00  0.00    +0.141 C 
ATOM     21  C   UNL     1      -5.699 -11.478  16.871  0.00  0.00    +0.128 C 
ATOM     23  C   UNL     1      -7.636  -9.979  17.182  0.00  0.00    +0.303 C 
ATOM     37  H   UNL     1      -9.126  -9.780  15.716  0.00  0.00    +0.150 HD
ENDROOT
BRANCH  18  11
ATOM     11  C   UNL     1      -4.164 -15.025  14.916  0.00  0.00    +0.075 C 
ATOM     12  C   UNL     1      -2.709 -15.128  14.453  0.00  0.00    +0.013 C 
ATOM     13  C   UNL     1      -4.906 -16.361  14.840  0.00  0.00    +0.013 C 
ATOM     14  C   UNL     1      -2.555 -15.854  13.117  0.00  0.00    +0.001 C 
ATOM     15  C   UNL     1      -4.718 -17.086  13.507  0.00  0.00    +0.001 C 
ATOM     17  C   UNL     1      -3.246 -17.213  13.132  0.00  0.00    +0.000 C 
ENDBRANCH  18  11
BRANCH  16  22
ATOM      2  O   UNL     1      -5.775  -9.792  13.281  0.00  0.00    -0.274 OA
ATOM      8  N   UNL     1      -4.046 -11.306  13.649  0.00  0.00    -0.301 N 
ATOM     22  C   UNL     1      -5.365 -10.886  13.659  0.00  0.00    +0.236 C 
ATOM     36  H   UNL     1      -3.822 -12.247  13.962  0.00  0.00    +0.150 HD
BRANCH   8  24
ATOM     24  C   UNL     1      -2.957 -10.481  13.177  0.00  0.00    +0.186 C 
BRANCH  24  27
ATOM      5  O   UNL     1      -1.026  -9.433  14.184  0.00  0.00    -0.249 OA
ATOM     27  C   UNL     1      -1.855 -10.337  14.219  0.00  0.00    +0.328 C 
BRANCH  27   4
ATOM      4  O   UNL     1      -1.900 -11.326  15.155  0.00  0.00    -0.467 OA
ATOM     34  C   UNL     1      -1.985 -10.890  16.516  0.00  0.00    +0.280 C 
ENDBRANCH  27   4
ENDBRANCH  24  27
BRANCH  24  26
ATOM     26  C   UNL     1      -2.412 -10.971  11.828  0.00  0.00    +0.070 C 
BRANCH  26  28
ATOM     10  N   UNL     1      -4.668 -11.219   8.790  0.00  0.00    -0.263 NA
ATOM     28  C   UNL     1      -3.239 -10.567  10.628  0.00  0.00    -0.027 A 
ATOM     31  C   UNL     1      -3.343  -9.234  10.247  0.00  0.00    +0.006 A 
ATOM     32  C   UNL     1      -3.914 -11.512   9.873  0.00  0.00    +0.114 A 
ATOM     33  C   UNL     1      -4.110  -8.892   9.138  0.00  0.00    +0.020 A 
ATOM     35  C   UNL     1      -4.747  -9.912   8.450  0.00  0.00    +0.111 A 
ENDBRANCH  26  28
ENDBRANCH  24  26
ENDBRANCH   8  24
ENDBRANCH  16  22
BRANCH   9  25
ATOM     25  C   UNL     1      -9.658  -8.541  17.332  0.00  0.00    +0.068 C 
ATOM     29  C   UNL     1     -10.874  -9.244  17.921  0.00  0.00    +0.027 C 
ATOM     30  C   UNL     1     -10.072  -7.408  16.401  0.00  0.00    +0.027 C 
ENDBRANCH   9  25
TORSDOF 8
ENDMDL
MODEL 4
REMARK VINA RESULT:      -6.1     13.074     16.479
REMARK  Name = 7052042
REMARK  11 active torsions:
REMARK  status: ('A' for Active; 'I' for Inactive)
REMARK    1  A    between atoms: O_4  and  C_27
REMARK    2  A    between atoms: O_4  and  C_34
REMARK    3  A    between atoms: N_8  and  C_24
REMARK    4  A    between atoms: N_9  and  C_25
REMARK    5  A    between atoms: C_11  and  C_18
REMARK    6  A    between atoms: C_16  and  C_22
REMARK    7  A    between atoms: C_24  and  C_26
REMARK    8  A    between atoms: C_24  and  C_27
REMARK    9  A    between atoms: C_25  and  C_29
REMARK   10  A    between atoms: C_25  and  C_30
REMARK   11  A    between atoms: C_26  and  C_28
REMARK                            x       y       z     vdW  Elec       q    Type
REMARK                         _______ _______ _______ _____ _____    ______ ____
ROOT
ATOM      1  O   UNL     1      15.992   9.511   5.454  0.00  0.00    -0.275 OA
ATOM      3  O   UNL     1       9.359   7.767   8.072  0.00  0.00    -0.253 OA
ATOM      6  N   UNL     1      13.919   9.336   6.495  0.00  0.00    -0.287 N 
ATOM      7  N   UNL     1      11.564   7.824   7.343  0.00  0.00    -0.282 N 
ATOM      9  N   UNL     1      10.555   5.801   8.020  0.00  0.00    -0.297 N 
ATOM     16  C   UNL     1      13.759   7.934   6.113  0.00  0.00    +0.179 C 
ATOM     18  C   UNL     1      15.100  10.002   6.150  0.00  0.00    +0.219 C 
ATOM     19  C   UNL     1      12.866   9.931   7.324  0.00  0.00    +0.127 C 
ATOM     20  C   UNL     1      12.833   7.146   7.041  0.00  0.00    +0.141 C 
ATOM     21  C   UNL     1      11.512   9.268   7.120  0.00  0.00    +0.128 C 
ATOM     23  C   UNL     1      10.414   7.172   7.827  0.00  0.00    +0.303 C 
ATOM     37  H   UNL     1      11.426   5.333   7.807  0.00  0.00    +0.150 HD
ENDROOT
BRANCH  18  11
ATOM     11  C   UNL     1      15.253  11.402   6.671  0.00  0.00    +0.075 C 
ATOM     12  C   UNL     1      14.833  12.410   5.600  0.00  0.00    +0.013 C 
ATOM     13  C   UNL     1      16.673  11.645   7.188  0.00  0.00    +0.013 C 
ATOM     14  C   UNL     1      15.877  12.585   4.498  0.00  0.00    +0.001 C 
ATOM     15  C   UNL     1      17.700  11.846   6.073  0.00  0.00    +0.001 C 
ATOM     17  C   UNL     1      17.252  12.905   5.072  0.00  0.00    +0.000 C 
ENDBRANCH  18  11
BRANCH  16  22
ATOM      2  O   UNL     1      12.969   8.925   4.088  0.00  0.00    -0.274 OA
ATOM      8  N   UNL     1      13.142   6.607   4.213  0.00  0.00    -0.301 N 
ATOM     22  C   UNL     1      13.255   7.899   4.698  0.00  0.00    +0.236 C 
ATOM     36  H   UNL     1      13.384   5.826   4.818  0.00  0.00    +0.150 HD
BRANCH   8  24
ATOM     24  C   UNL     1      12.660   6.300   2.886  0.00  0.00    +0.186 C 
BRANCH  24  27
ATOM      5  O   UNL     1      14.697   6.325   1.586  0.00  0.00    -0.249 OA
ATOM     27  C   UNL     1      13.742   5.682   2.011  0.00  0.00    +0.328 C 
BRANCH  27   4
ATOM      4  O   UNL     1      13.506   4.364   1.756  0.00  0.00    -0.467 OA
ATOM     34  C   UNL     1      14.660   3.518   1.741  0.00  0.00    +0.280 C 
ENDBRANCH  27   4
ENDBRANCH  24  27
BRANCH  24  26
ATOM     26  C   UNL     1      11.390   5.437   2.926  0.00  0.00    +0.070 C 
BRANCH  26  28
ATOM     10  N   UNL     1       8.639   7.984   3.489  0.00  0.00    -0.263 NA
ATOM     28  C   UNL     1      10.178   6.121   3.518  0.00  0.00    -0.027 A 
ATOM     31  C   UNL     1       9.497   5.564   4.595  0.00  0.00    +0.006 A 
ATOM     32  C   UNL     1       9.714   7.321   3.006  0.00  0.00    +0.114 A 
ATOM     33  C   UNL     1       8.386   6.217   5.119  0.00  0.00    +0.020 A 
ATOM     35  C   UNL     1       8.001   7.413   4.536  0.00  0.00    +0.111 A 
ENDBRANCH  26  28
ENDBRANCH  24  26
ENDBRANCH   8  24
ENDBRANCH  16  22
BRANCH   9  25
ATOM     25  C   UNL     1       9.478   4.976   8.520  0.00  0.00    +0.068 C 
ATOM     29  C   UNL     1       9.604   4.798  10.028  0.00  0.00    +0.027 C 
ATOM     30  C   UNL     1       9.460   3.630   7.806  0.00  0.00    +0.027 C 
ENDBRANCH   9  25
TORSDOF 8
ENDMDL
MODEL 5
REMARK VINA RESULT:      -5.9     27.967     30.868
REMARK  Name = 7052042
REMARK  11 active torsions:
REMARK  status: ('A' for Active; 'I' for Inactive)
REMARK    1  A    between atoms: O_4  and  C_27
REMARK    2  A    between atoms: O_4  and  C_34
REMARK    3  A    between atoms: N_8  and  C_24
REMARK    4  A    between atoms: N_9  and  C_25
REMARK    5  A    between atoms: C_11  and  C_18
REMARK    6  A    between atoms: C_16  and  C_22
REMARK    7  A    between atoms: C_24  and  C_26
REMARK    8  A    between atoms: C_24  and  C_27
REMARK    9  A    between atoms: C_25  and  C_29
REMARK   10  A    between atoms: C_25  and  C_30
REMARK   11  A    between atoms: C_26  and  C_28
REMARK                            x       y       z     vdW  Elec       q    Type
REMARK                         _______ _______ _______ _____ _____    ______ ____
ROOT
ATOM      1  O   UNL     1      -5.183  -9.082  11.980  0.00  0.00    -0.275 OA
ATOM      3  O   UNL     1     -10.770 -11.981  15.758  0.00  0.00    -0.253 OA
ATOM      6  N   UNL     1      -7.147 -10.029  12.791  0.00  0.00    -0.287 N 
ATOM      7  N   UNL     1      -8.990 -10.726  14.952  0.00  0.00    -0.282 N 
ATOM      9  N   UNL     1      -9.932 -10.286  17.071  0.00  0.00    -0.297 N 
ATOM     16  C   UNL     1      -6.796  -9.756  14.184  0.00  0.00    +0.179 C 
ATOM     18  C   UNL     1      -6.284  -9.600  11.777  0.00  0.00    +0.219 C 
ATOM     19  C   UNL     1      -8.455 -10.644  12.535  0.00  0.00    +0.127 C 
ATOM     20  C   UNL     1      -8.006  -9.645  15.112  0.00  0.00    +0.141 C 
ATOM     21  C   UNL     1      -8.947 -11.485  13.704  0.00  0.00    +0.128 C 
ATOM     23  C   UNL     1      -9.955 -11.066  15.919  0.00  0.00    +0.303 C 
ATOM     37  H   UNL     1      -9.252  -9.546  17.184  0.00  0.00    +0.150 HD
ENDROOT
BRANCH  18  11
ATOM     11  C   UNL     1      -6.756  -9.806  10.366  0.00  0.00    +0.075 C 
ATOM     12  C   UNL     1      -6.410 -11.221   9.898  0.00  0.00    +0.013 C 
ATOM     13  C   UNL     1      -6.203  -8.723   9.438  0.00  0.00    +0.013 C 
ATOM     14  C   UNL     1      -4.933 -11.393   9.548  0.00  0.00    +0.001 C 
ATOM     15  C   UNL     1      -4.731  -8.926   9.076  0.00  0.00    +0.001 C 
ATOM     17  C   UNL     1      -4.463 -10.334   8.557  0.00  0.00    +0.000 C 
ENDBRANCH  18  11
BRANCH  16  22
ATOM      2  O   UNL     1      -6.218 -12.020  14.685  0.00  0.00    -0.274 OA
ATOM      8  N   UNL     1      -4.628 -10.352  15.017  0.00  0.00    -0.301 N 
ATOM     22  C   UNL     1      -5.867 -10.844  14.643  0.00  0.00    +0.236 C 
ATOM     36  H   UNL     1      -4.455  -9.352  14.966  0.00  0.00    +0.150 HD
BRANCH   8  24
ATOM     24  C   UNL     1      -3.563 -11.191  15.517  0.00  0.00    +0.186 C 
BRANCH  24  27
ATOM      5  O   UNL     1      -1.178 -11.382  15.175  0.00  0.00    -0.249 OA
ATOM     27  C   UNL     1      -2.258 -10.971  14.762  0.00  0.00    +0.328 C 
BRANCH  27   4
ATOM      4  O   UNL     1      -2.443 -10.264  13.612  0.00  0.00    -0.467 OA
ATOM     34  C   UNL     1      -2.040 -10.923  12.407  0.00  0.00    +0.280 C 
ENDBRANCH  27   4
ENDBRANCH  24  27
BRANCH  24  26
ATOM     26  C   UNL     1      -3.381 -11.039  17.035  0.00  0.00    +0.070 C 
BRANCH  26  28
ATOM     10  N   UNL     1      -6.185 -13.058  18.596  0.00  0.00    -0.263 NA
ATOM     28  C   UNL     1      -4.602 -11.388  17.856  0.00  0.00    -0.027 A 
ATOM     31  C   UNL     1      -5.263 -10.419  18.603  0.00  0.00    +0.006 A 
ATOM     32  C   UNL     1      -5.099 -12.681  17.886  0.00  0.00    +0.114 A 
ATOM     33  C   UNL     1      -6.385 -10.769  19.348  0.00  0.00    +0.020 A 
ATOM     35  C   UNL     1      -6.801 -12.090  19.311  0.00  0.00    +0.111 A 
ENDBRANCH  26  28
ENDBRANCH  24  26
ENDBRANCH   8  24
ENDBRANCH  16  22
BRANCH   9  25
ATOM     25  C   UNL     1     -10.858 -10.491  18.162  0.00  0.00    +0.068 C 
ATOM     29  C   UNL     1     -11.880  -9.363  18.207  0.00  0.00    +0.027 C 
ATOM     30  C   UNL     1     -10.109 -10.610  19.483  0.00  0.00    +0.027 C 
ENDBRANCH   9  25
TORSDOF 8
ENDMDL
MODEL 6
REMARK VINA RESULT:      -5.9     14.225     18.490
REMARK  Name = 7052042
REMARK  11 active torsions:
REMARK  status: ('A' for Active; 'I' for Inactive)
REMARK    1  A    between atoms: O_4  and  C_27
REMARK    2  A    between atoms: O_4  and  C_34
REMARK    3  A    between atoms: N_8  and  C_24
REMARK    4  A    between atoms: N_9  and  C_25
REMARK    5  A    between atoms: C_11  and  C_18
REMARK    6  A    between atoms: C_16  and  C_22
REMARK    7  A    between atoms: C_24  and  C_26
REMARK    8  A    between atoms: C_24  and  C_27
REMARK    9  A    between atoms: C_25  and  C_29
REMARK   10  A    between atoms: C_25  and  C_30
REMARK   11  A    between atoms: C_26  and  C_28
REMARK                            x       y       z     vdW  Elec       q    Type
REMARK                         _______ _______ _______ _____ _____    ______ ____
ROOT
ATOM      1  O   UNL     1      12.624   8.028   4.448  0.00  0.00    -0.275 OA
ATOM      3  O   UNL     1      12.917   2.939  -0.835  0.00  0.00    -0.253 OA
ATOM      6  N   UNL     1      13.146   6.440   2.830  0.00  0.00    -0.287 N 
ATOM      7  N   UNL     1      12.473   4.767   0.528  0.00  0.00    -0.282 N 
ATOM      9  N   UNL     1      11.238   4.390  -1.447  0.00  0.00    -0.297 N 
ATOM     16  C   UNL     1      11.784   6.422   2.297  0.00  0.00    +0.179 C 
ATOM     18  C   UNL     1      13.454   7.320   3.872  0.00  0.00    +0.219 C 
ATOM     19  C   UNL     1      14.144   5.605   2.153  0.00  0.00    +0.127 C 
ATOM     20  C   UNL     1      11.702   5.981   0.836  0.00  0.00    +0.141 C 
ATOM     21  C   UNL     1      13.529   4.394   1.467  0.00  0.00    +0.128 C 
ATOM     23  C   UNL     1      12.254   3.955  -0.602  0.00  0.00    +0.303 C 
ATOM     37  H   UNL     1      10.704   5.222  -1.234  0.00  0.00    +0.150 HD
ENDROOT
BRANCH  18  11
ATOM     11  C   UNL     1      14.894   7.376   4.296  0.00  0.00    +0.075 C 
ATOM     12  C   UNL     1      14.993   7.385   5.822  0.00  0.00    +0.013 C 
ATOM     13  C   UNL     1      15.613   8.562   3.648  0.00  0.00    +0.013 C 
ATOM     14  C   UNL     1      14.644   8.739   6.437  0.00  0.00    +0.001 C 
ATOM     15  C   UNL     1      15.273   9.904   4.294  0.00  0.00    +0.001 C 
ATOM     17  C   UNL     1      15.451   9.868   5.808  0.00  0.00    +0.000 C 
ENDBRANCH  18  11
BRANCH  16  22
ATOM      2  O   UNL     1      10.710   4.363   2.859  0.00  0.00    -0.274 OA
ATOM      8  N   UNL     1      10.530   6.162   4.324  0.00  0.00    -0.301 N 
ATOM     22  C   UNL     1      10.962   5.522   3.175  0.00  0.00    +0.236 C 
ATOM     36  H   UNL     1      10.778   7.137   4.473  0.00  0.00    +0.150 HD
BRANCH   8  24
ATOM     24  C   UNL     1       9.704   5.523   5.323  0.00  0.00    +0.186 C 
BRANCH  24  27
ATOM      5  O   UNL     1      11.327   6.212   6.977  0.00  0.00    -0.249 OA
ATOM     27  C   UNL     1      10.379   5.487   6.688  0.00  0.00    +0.328 C 
BRANCH  27   4
ATOM      4  O   UNL     1       9.820   4.559   7.514  0.00  0.00    -0.467 OA
ATOM     34  C   UNL     1       9.607   4.978   8.866  0.00  0.00    +0.280 C 
ENDBRANCH  27   4
ENDBRANCH  24  27
BRANCH  24  26
ATOM     26  C   UNL     1       8.303   6.148   5.391  0.00  0.00    +0.070 C 
BRANCH  26  28
ATOM     10  N   UNL     1       8.605   9.873   6.032  0.00  0.00    -0.263 NA
ATOM     28  C   UNL     1       8.266   7.643   5.163  0.00  0.00    -0.027 A 
ATOM     31  C   UNL     1       7.877   8.170   3.938  0.00  0.00    +0.006 A 
ATOM     32  C   UNL     1       8.617   8.528   6.169  0.00  0.00    +0.114 A 
ATOM     33  C   UNL     1       7.851   9.550   3.757  0.00  0.00    +0.020 A 
ATOM     35  C   UNL     1       8.221  10.350   4.826  0.00  0.00    +0.111 A 
ENDBRANCH  26  28
ENDBRANCH  24  26
ENDBRANCH   8  24
ENDBRANCH  16  22
BRANCH   9  25
ATOM     25  C   UNL     1      10.885   3.683  -2.658  0.00  0.00    +0.068 C 
ATOM     29  C   UNL     1      11.944   3.906  -3.729  0.00  0.00    +0.027 C 
ATOM     30  C   UNL     1       9.507   4.114  -3.146  0.00  0.00    +0.027 C 
ENDBRANCH   9  25
TORSDOF 8
ENDMDL
MODEL 7
REMARK VINA RESULT:      -5.8     28.537     32.533
REMARK  Name = 7052042
REMARK  11 active torsions:
REMARK  status: ('A' for Active; 'I' for Inactive)
REMARK    1  A    between atoms: O_4  and  C_27
REMARK    2  A    between atoms: O_4  and  C_34
REMARK    3  A    between atoms: N_8  and  C_24
REMARK    4  A    between atoms: N_9  and  C_25
REMARK    5  A    between atoms: C_11  and  C_18
REMARK    6  A    between atoms: C_16  and  C_22
REMARK    7  A    between atoms: C_24  and  C_26
REMARK    8  A    between atoms: C_24  and  C_27
REMARK    9  A    between atoms: C_25  and  C_29
REMARK   10  A    between atoms: C_25  and  C_30
REMARK   11  A    between atoms: C_26  and  C_28
REMARK                            x       y       z     vdW  Elec       q    Type
REMARK                         _______ _______ _______ _____ _____    ______ ____
ROOT
ATOM      1  O   UNL     1     -10.364  -7.789  17.294  0.00  0.00    -0.275 OA
ATOM      3  O   UNL     1     -12.930 -14.031  20.183  0.00  0.00    -0.253 OA
ATOM      6  N   UNL     1     -11.444  -9.769  17.867  0.00  0.00    -0.287 N 
ATOM      7  N   UNL     1     -12.135 -11.891  19.757  0.00  0.00    -0.282 N 
ATOM      9  N   UNL     1     -12.527 -12.629  21.964  0.00  0.00    -0.297 N 
ATOM     16  C   UNL     1     -10.855  -9.793  19.205  0.00  0.00    +0.179 C 
ATOM     18  C   UNL     1     -11.162  -8.690  17.022  0.00  0.00    +0.219 C 
ATOM     19  C   UNL     1     -12.395 -10.834  17.532  0.00  0.00    +0.127 C 
ATOM     20  C   UNL     1     -11.683 -10.573  20.227  0.00  0.00    +0.141 C 
ATOM     21  C   UNL     1     -12.142 -12.115  18.313  0.00  0.00    +0.128 C 
ATOM     23  C   UNL     1     -12.555 -12.932  20.606  0.00  0.00    +0.303 C 
ATOM     37  H   UNL     1     -12.211 -11.725  22.289  0.00  0.00    +0.150 HD
ENDROOT
BRANCH  18  11
ATOM     11  C   UNL     1     -11.888  -8.665  15.708  0.00  0.00    +0.075 C 
ATOM     12  C   UNL     1     -11.118  -7.810  14.699  0.00  0.00    +0.013 C 
ATOM     13  C   UNL     1     -13.337  -8.207  15.889  0.00  0.00    +0.013 C 
ATOM     14  C   UNL     1     -11.274  -6.310  14.942  0.00  0.00    +0.001 C 
ATOM     15  C   UNL     1     -13.476  -6.699  16.102  0.00  0.00    +0.001 C 
ATOM     17  C   UNL     1     -12.740  -5.903  15.031  0.00  0.00    +0.000 C 
ENDBRANCH  18  11
BRANCH  16  22
ATOM      2  O   UNL     1      -8.930 -10.951  20.021  0.00  0.00    -0.274 OA
ATOM      8  N   UNL     1      -8.914 -10.138  17.840  0.00  0.00    -0.301 N 
ATOM     22  C   UNL     1      -9.472 -10.369  19.086  0.00  0.00    +0.236 C 
ATOM     36  H   UNL     1      -9.445  -9.620  17.146  0.00  0.00    +0.150 HD
BRANCH   8  24
ATOM     24  C   UNL     1      -7.583 -10.571  17.478  0.00  0.00    +0.186 C 
BRANCH  24  27
ATOM      5  O   UNL     1      -8.162 -12.297  15.888  0.00  0.00    -0.249 OA
ATOM     27  C   UNL     1      -7.573 -11.988  16.920  0.00  0.00    +0.328 C 
BRANCH  27   4
ATOM      4  O   UNL     1      -6.859 -12.844  17.703  0.00  0.00    -0.467 OA
ATOM     34  C   UNL     1      -5.842 -13.597  17.034  0.00  0.00    +0.280 C 
ENDBRANCH  27   4
ENDBRANCH  24  27
BRANCH  24  26
ATOM     26  C   UNL     1      -6.898  -9.575  16.531  0.00  0.00    +0.070 C 
BRANCH  26  28
ATOM     10  N   UNL     1      -4.156 -10.673  14.153  0.00  0.00    -0.263 NA
ATOM     28  C   UNL     1      -5.545 -10.017  16.019  0.00  0.00    -0.027 A 
ATOM     31  C   UNL     1      -4.471 -10.181  16.887  0.00  0.00    +0.006 A 
ATOM     32  C   UNL     1      -5.338 -10.274  14.674  0.00  0.00    +0.114 A 
ATOM     33  C   UNL     1      -3.238 -10.590  16.388  0.00  0.00    +0.020 A 
ATOM     35  C   UNL     1      -3.134 -10.820  15.026  0.00  0.00    +0.111 A 
ENDBRANCH  26  28
ENDBRANCH  24  26
ENDBRANCH   8  24
ENDBRANCH  16  22
BRANCH   9  25
ATOM     25  C   UNL     1     -12.933 -13.578  22.977  0.00  0.00    +0.068 C 
ATOM     29  C   UNL     1     -13.704 -12.873  24.085  0.00  0.00    +0.027 C 
ATOM     30  C   UNL     1     -11.723 -14.319  23.531  0.00  0.00    +0.027 C 
ENDBRANCH   9  25
TORSDOF 8
ENDMDL
MODEL 8
REMARK VINA RESULT:      -5.8     29.148     32.633
REMARK  Name = 7052042
REMARK  11 active torsions:
REMARK  status: ('A' for Active; 'I' for Inactive)
REMARK    1  A    between atoms: O_4  and  C_27
REMARK    2  A    between atoms: O_4  and  C_34
REMARK    3  A    between atoms: N_8  and  C_24
REMARK    4  A    between atoms: N_9  and  C_25
REMARK    5  A    between atoms: C_11  and  C_18
REMARK    6  A    between atoms: C_16  and  C_22
REMARK    7  A    between atoms: C_24  and  C_26
REMARK    8  A    between atoms: C_24  and  C_27
REMARK    9  A    between atoms: C_25  and  C_29
REMARK   10  A    between atoms: C_25  and  C_30
REMARK   11  A    between atoms: C_26  and  C_28
REMARK                            x       y       z     vdW  Elec       q    Type
REMARK                         _______ _______ _______ _____ _____    ______ ____
ROOT
ATOM      1  O   UNL     1      -7.470  -9.441  17.971  0.00  0.00    -0.275 OA
ATOM      3  O   UNL     1     -12.329  -8.091  12.635  0.00  0.00    -0.253 OA
ATOM      6  N   UNL     1      -8.703  -9.169  16.016  0.00  0.00    -0.287 N 
ATOM      7  N   UNL     1     -10.938  -8.055  14.496  0.00  0.00    -0.282 N 
ATOM      9  N   UNL     1     -12.510  -6.336  14.114  0.00  0.00    -0.297 N 
ATOM     16  C   UNL     1      -9.724  -8.361  16.681  0.00  0.00    +0.179 C 
ATOM     18  C   UNL     1      -7.600  -9.609  16.755  0.00  0.00    +0.219 C 
ATOM     19  C   UNL     1      -8.844  -9.375  14.571  0.00  0.00    +0.127 C 
ATOM     20  C   UNL     1     -10.473  -7.419  15.737  0.00  0.00    +0.141 C 
ATOM     21  C   UNL     1     -10.292  -9.306  14.106  0.00  0.00    +0.128 C 
ATOM     23  C   UNL     1     -11.957  -7.535  13.674  0.00  0.00    +0.303 C 
ATOM     37  H   UNL     1     -12.194  -5.900  14.971  0.00  0.00    +0.150 HD
ENDROOT
BRANCH  18  11
ATOM     11  C   UNL     1      -6.530 -10.334  15.990  0.00  0.00    +0.075 C 
ATOM     12  C   UNL     1      -6.803 -11.839  16.003  0.00  0.00    +0.013 C 
ATOM     13  C   UNL     1      -5.139  -9.979  16.520  0.00  0.00    +0.013 C 
ATOM     14  C   UNL     1      -6.455 -12.500  17.336  0.00  0.00    +0.001 C 
ATOM     15  C   UNL     1      -4.796 -10.672  17.840  0.00  0.00    +0.001 C 
ATOM     17  C   UNL     1      -5.030 -12.176  17.770  0.00  0.00    +0.000 C 
ENDBRANCH  18  11
BRANCH  16  22
ATOM      2  O   UNL     1     -11.766  -9.586  16.880  0.00  0.00    -0.274 OA
ATOM      8  N   UNL     1     -10.183  -9.755  18.577  0.00  0.00    -0.301 N 
ATOM     22  C   UNL     1     -10.676  -9.300  17.366  0.00  0.00    +0.236 C 
ATOM     36  H   UNL     1      -9.273  -9.431  18.897  0.00  0.00    +0.150 HD
BRANCH   8  24
ATOM     24  C   UNL     1     -10.915 -10.652  19.442  0.00  0.00    +0.186 C 
BRANCH  24  27
ATOM      5  O   UNL     1      -8.777 -11.577  20.089  0.00  0.00    -0.249 OA
ATOM     27  C   UNL     1     -10.001 -11.657  20.130  0.00  0.00    +0.328 C 
BRANCH  27   4
ATOM      4  O   UNL     1     -10.702 -12.638  20.765  0.00  0.00    -0.467 OA
ATOM     34  C   UNL     1     -10.073 -13.924  20.807  0.00  0.00    +0.280 C 
ENDBRANCH  27   4
ENDBRANCH  24  27
BRANCH  24  26
ATOM     26  C   UNL     1     -11.789  -9.888  20.448  0.00  0.00    +0.070 C 
BRANCH  26  28
ATOM     10  N   UNL     1     -15.104 -11.238  19.198  0.00  0.00    -0.263 NA
ATOM     28  C   UNL     1     -13.278 -10.040  20.234  0.00  0.00    -0.027 A 
ATOM     31  C   UNL     1     -14.180  -9.172  20.838  0.00  0.00    +0.006 A 
ATOM     32  C   UNL     1     -13.786 -11.047  19.430  0.00  0.00    +0.114 A 
ATOM     33  C   UNL     1     -15.545  -9.335  20.623  0.00  0.00    +0.020 A 
ATOM     35  C   UNL     1     -15.951 -10.374  19.802  0.00  0.00    +0.111 A 
ENDBRANCH  26  28
ENDBRANCH  24  26
ENDBRANCH   8  24
ENDBRANCH  16  22
BRANCH   9  25
ATOM     25  C   UNL     1     -13.559  -5.656  13.388  0.00  0.00    +0.068 C 
ATOM     29  C   UNL     1     -13.221  -4.180  13.225  0.00  0.00    +0.027 C 
ATOM     30  C   UNL     1     -14.900  -5.841  14.089  0.00  0.00    +0.027 C 
ENDBRANCH   9  25
TORSDOF 8
ENDMDL
MODEL 9
REMARK VINA RESULT:      -5.8     13.785     17.750
REMARK  Name = 7052042
REMARK  11 active torsions:
REMARK  status: ('A' for Active; 'I' for Inactive)
REMARK    1  A    between atoms: O_4  and  C_27
REMARK    2  A    between atoms: O_4  and  C_34
REMARK    3  A    between atoms: N_8  and  C_24
REMARK    4  A    between atoms: N_9  and  C_25
REMARK    5  A    between atoms: C_11  and  C_18
REMARK    6  A    between atoms: C_16  and  C_22
REMARK    7  A    between atoms: C_24  and  C_26
REMARK    8  A    between atoms: C_24  and  C_27
REMARK    9  A    between atoms: C_25  and  C_29
REMARK   10  A    between atoms: C_25  and  C_30
REMARK   11  A    between atoms: C_26  and  C_28
REMARK                            x       y       z     vdW  Elec       q    Type
REMARK                         _______ _______ _______ _____ _____    ______ ____
ROOT
ATOM      1  O   UNL     1       6.851   8.980   3.755  0.00  0.00    -0.275 OA
ATOM      3  O   UNL     1      12.893   7.036   0.065  0.00  0.00    -0.253 OA
ATOM      6  N   UNL     1       8.623   8.643   2.286  0.00  0.00    -0.287 N 
ATOM      7  N   UNL     1      10.943   7.145   1.323  0.00  0.00    -0.282 N 
ATOM      9  N   UNL     1      12.105   5.109   1.047  0.00  0.00    -0.297 N 
ATOM     16  C   UNL     1       9.111   7.475   3.019  0.00  0.00    +0.179 C 
ATOM     18  C   UNL     1       7.457   9.280   2.723  0.00  0.00    +0.219 C 
ATOM     19  C   UNL     1       9.334   9.008   1.056  0.00  0.00    +0.127 C 
ATOM     20  C   UNL     1       9.918   6.503   2.159  0.00  0.00    +0.141 C 
ATOM     21  C   UNL     1      10.793   8.576   1.069  0.00  0.00    +0.128 C 
ATOM     23  C   UNL     1      12.045   6.470   0.764  0.00  0.00    +0.303 C 
ATOM     37  H   UNL     1      11.403   4.667   1.626  0.00  0.00    +0.150 HD
ENDROOT
BRANCH  18  11
ATOM     11  C   UNL     1       6.945  10.399   1.863  0.00  0.00    +0.075 C 
ATOM     12  C   UNL     1       6.521  11.581   2.735  0.00  0.00    +0.013 C 
ATOM     13  C   UNL     1       5.826   9.913   0.938  0.00  0.00    +0.013 C 
ATOM     14  C   UNL     1       5.182  11.358   3.438  0.00  0.00    +0.001 C 
ATOM     15  C   UNL     1       4.488   9.723   1.652  0.00  0.00    +0.001 C 
ATOM     17  C   UNL     1       4.090  10.957   2.453  0.00  0.00    +0.000 C 
ENDBRANCH  18  11
BRANCH  16  22
ATOM      2  O   UNL     1      10.619   8.983   4.097  0.00  0.00    -0.274 OA
ATOM      8  N   UNL     1       9.816   7.151   5.288  0.00  0.00    -0.301 N 
ATOM     22  C   UNL     1       9.928   7.971   4.178  0.00  0.00    +0.236 C 
ATOM     36  H   UNL     1       9.232   6.319   5.234  0.00  0.00    +0.150 HD
BRANCH   8  24
ATOM     24  C   UNL     1      10.520   7.395   6.526  0.00  0.00    +0.186 C 
BRANCH  24  27
ATOM      5  O   UNL     1       8.573   7.486   7.956  0.00  0.00    -0.249 OA
ATOM     27  C   UNL     1       9.687   7.016   7.743  0.00  0.00    +0.328 C 
BRANCH  27   4
ATOM      4  O   UNL     1      10.331   6.126   8.550  0.00  0.00    -0.467 OA
ATOM     34  C   UNL     1       9.553   5.007   8.986  0.00  0.00    +0.280 C 
ENDBRANCH  27   4
ENDBRANCH  24  27
BRANCH  24  26
ATOM     26  C   UNL     1      11.900   6.720   6.540  0.00  0.00    +0.070 C 
BRANCH  26  28
ATOM     10  N   UNL     1      13.902   9.935   6.701  0.00  0.00    -0.263 NA
ATOM     28  C   UNL     1      13.071   7.674   6.496  0.00  0.00    -0.027 A 
ATOM     31  C   UNL     1      14.356   7.218   6.221  0.00  0.00    +0.006 A 
ATOM     32  C   UNL     1      12.899   9.029   6.727  0.00  0.00    +0.114 A 
ATOM     33  C   UNL     1      15.415   8.120   6.186  0.00  0.00    +0.020 A 
ATOM     35  C   UNL     1      15.137   9.455   6.431  0.00  0.00    +0.111 A 
ENDBRANCH  26  28
ENDBRANCH  24  26
ENDBRANCH   8  24
ENDBRANCH  16  22
BRANCH   9  25
ATOM     25  C   UNL     1      13.163   4.261   0.546  0.00  0.00    +0.068 C 
ATOM     29  C   UNL     1      12.703   3.524  -0.705  0.00  0.00    +0.027 C 
ATOM     30  C   UNL     1      13.621   3.286   1.623  0.00  0.00    +0.027 C 
ENDBRANCH   9  25
TORSDOF 8
ENDMDL
MODEL 10
REMARK VINA RESULT:      -5.7     28.410     30.353
REMARK  Name = 7052042
REMARK  11 active torsions:
REMARK  status: ('A' for Active; 'I' for Inactive)
REMARK    1  A    between atoms: O_4  and  C_27
REMARK    2  A    between atoms: O_4  and  C_34
REMARK    3  A    between atoms: N_8  and  C_24
REMARK    4  A    between atoms: N_9  and  C_25
REMARK    5  A    between atoms: C_11  and  C_18
REMARK    6  A    between atoms: C_16  and  C_22
REMARK    7  A    between atoms: C_24  and  C_26
REMARK    8  A    between atoms: C_24  and  C_27
REMARK    9  A    between atoms: C_25  and  C_29
REMARK   10  A    between atoms: C_25  and  C_30
REMARK   11  A    between atoms: C_26  and  C_28
REMARK                            x       y       z     vdW  Elec       q    Type
REMARK                         _______ _______ _______ _____ _____    ______ ____
ROOT
ATOM      1  O   UNL     1      -8.185 -11.625  15.155  0.00  0.00    -0.275 OA
ATOM      3  O   UNL     1      -4.499  -9.224   9.277  0.00  0.00    -0.253 OA
ATOM      6  N   UNL     1      -7.194 -10.480  13.389  0.00  0.00    -0.287 N 
ATOM      7  N   UNL     1      -5.779 -10.383  10.831  0.00  0.00    -0.282 N 
ATOM      9  N   UNL     1      -5.281 -11.317   8.722  0.00  0.00    -0.297 N 
ATOM     16  C   UNL     1      -6.745 -11.711  12.740  0.00  0.00    +0.179 C 
ATOM     18  C   UNL     1      -7.947 -10.568  14.564  0.00  0.00    +0.219 C 
ATOM     19  C   UNL     1      -6.919  -9.217  12.696  0.00  0.00    +0.127 C 
ATOM     20  C   UNL     1      -6.544 -11.573  11.232  0.00  0.00    +0.141 C 
ATOM     21  C   UNL     1      -5.690  -9.293  11.801  0.00  0.00    +0.128 C 
ATOM     23  C   UNL     1      -5.136 -10.236   9.587  0.00  0.00    +0.303 C 
ATOM     37  H   UNL     1      -5.802 -12.138   8.998  0.00  0.00    +0.150 HD
ENDROOT
BRANCH  18  11
ATOM     11  C   UNL     1      -8.477  -9.276  15.116  0.00  0.00    +0.075 C 
ATOM     12  C   UNL     1      -8.197  -9.192  16.618  0.00  0.00    +0.013 C 
ATOM     13  C   UNL     1      -9.959  -9.100  14.779  0.00  0.00    +0.013 C 
ATOM     14  C   UNL     1      -9.135 -10.064  17.452  0.00  0.00    +0.001 C 
ATOM     15  C   UNL     1     -10.885  -9.958  15.642  0.00  0.00    +0.001 C 
ATOM     17  C   UNL     1     -10.598  -9.784  17.129  0.00  0.00    +0.000 C 
ENDBRANCH  18  11
BRANCH  16  22
ATOM      2  O   UNL     1      -4.887 -13.174  13.089  0.00  0.00    -0.274 OA
ATOM      8  N   UNL     1      -5.086 -11.272  14.416  0.00  0.00    -0.301 N 
ATOM     22  C   UNL     1      -5.472 -12.145  13.413  0.00  0.00    +0.236 C 
ATOM     36  H   UNL     1      -5.663 -10.459  14.617  0.00  0.00    +0.150 HD
BRANCH   8  24
ATOM     24  C   UNL     1      -3.909 -11.474  15.229  0.00  0.00    +0.186 C 
BRANCH  24  27
ATOM      5  O   UNL     1      -2.530 -10.217  13.692  0.00  0.00    -0.249 OA
ATOM     27  C   UNL     1      -2.626 -11.163  14.468  0.00  0.00    +0.328 C 
BRANCH  27   4
ATOM      4  O   UNL     1      -1.635 -12.057  14.744  0.00  0.00    -0.467 OA
ATOM     34  C   UNL     1      -1.415 -13.065  13.752  0.00  0.00    +0.280 C 
ENDBRANCH  27   4
ENDBRANCH  24  27
BRANCH  24  26
ATOM     26  C   UNL     1      -3.992 -10.703  16.555  0.00  0.00    +0.070 C 
BRANCH  26  28
ATOM     10  N   UNL     1      -6.506 -13.026  18.185  0.00  0.00    -0.263 NA
ATOM     28  C   UNL     1      -5.000 -11.249  17.541  0.00  0.00    -0.027 A 
ATOM     31  C   UNL     1      -5.358 -10.525  18.673  0.00  0.00    +0.006 A 
ATOM     32  C   UNL     1      -5.598 -12.483  17.344  0.00  0.00    +0.114 A 
ATOM     33  C   UNL     1      -6.289 -11.051  19.562  0.00  0.00    +0.020 A 
ATOM     35  C   UNL     1      -6.829 -12.294  19.275  0.00  0.00    +0.111 A 
ENDBRANCH  26  28
ENDBRANCH  24  26
ENDBRANCH   8  24
ENDBRANCH  16  22
BRANCH   9  25
ATOM     25  C   UNL     1      -4.695 -11.332   7.400  0.00  0.00    +0.068 C 
ATOM     29  C   UNL     1      -5.697 -10.826   6.371  0.00  0.00    +0.027 C 
ATOM     30  C   UNL     1      -4.203 -12.731   7.050  0.00  0.00    +0.027 C 
ENDBRANCH   9  25
TORSDOF 8
ENDMDL
