MODEL 1
REMARK VINA RESULT:      -7.5      0.000      0.000
REMARK  Name = 11884472
REMARK  3 active torsions:
REMARK  status: ('A' for Active; 'I' for Inactive)
REMARK    1  A    between atoms: N_6  and  C_17
REMARK    2  A    between atoms: C_16  and  C_19
REMARK    3  A    between atoms: C_22  and  C_26
REMARK                            x       y       z     vdW  Elec       q    Type
REMARK                         _______ _______ _______ _____ _____    ______ ____
ROOT
ATOM      1  O   UNL     1      15.770   6.198  18.993  0.00  0.00    -0.266 OA
ATOM      2  O   UNL     1      14.960  10.797  16.760  0.00  0.00    -0.270 OA
ATOM      4  N   UNL     1      13.225  10.427  18.286  0.00  0.00    -0.297 N 
ATOM      5  N   UNL     1      14.070   7.671  19.612  0.00  0.00    -0.310 N 
ATOM      7  C   UNL     1      12.095   8.220  18.075  0.00  0.00    +0.027 C 
ATOM      8  C   UNL     1      12.267   9.297  20.280  0.00  0.00    +0.054 C 
ATOM      9  C   UNL     1      11.342   8.488  19.373  0.00  0.00    +0.018 C 
ATOM     10  C   UNL     1      12.477   9.545  17.391  0.00  0.00    +0.113 C 
ATOM     11  C   UNL     1      13.323   7.355  18.386  0.00  0.00    +0.130 C 
ATOM     12  C   UNL     1      12.607  10.642  19.605  0.00  0.00    +0.117 C 
ATOM     13  C   UNL     1      13.546   8.537  20.574  0.00  0.00    +0.027 A 
ATOM     14  C   UNL     1      14.191   8.721  21.736  0.00  0.00    +0.024 A 
ATOM     15  C   UNL     1      15.283   6.983  19.810  0.00  0.00    +0.273 A 
ATOM     16  C   UNL     1      14.439  10.972  17.860  0.00  0.00    +0.247 C 
ATOM     17  C   UNL     1      16.001   7.229  21.110  0.00  0.00    +0.099 A 
ATOM     18  C   UNL     1      15.435   8.055  22.000  0.00  0.00    +0.030 A 
ENDROOT
BRANCH  16  19
ATOM     19  C   UNL     1      15.180  11.817  18.802  0.00  0.00    +0.037 A 
ATOM     20  C   UNL     1      16.051  11.233  19.718  0.00  0.00    +0.013 A 
ATOM     21  C   UNL     1      15.010  13.198  18.774  0.00  0.00    +0.013 A 
ATOM     23  C   UNL     1      16.756  12.036  20.614  0.00  0.00    +0.001 A 
ATOM     24  C   UNL     1      15.716  14.002  19.669  0.00  0.00    +0.001 A 
ATOM     25  C   UNL     1      16.590  13.421  20.590  0.00  0.00    +0.000 A 
ENDBRANCH  16  19
BRANCH  17   6
ATOM      3  O   UNL     1      18.564   8.388  20.921  0.00  0.00    -0.270 OA
ATOM      6  N   UNL     1      17.185   6.575  21.288  0.00  0.00    -0.277 N 
ATOM     22  C   UNL     1      18.435   7.191  21.184  0.00  0.00    +0.248 C 
ATOM     32  H   UNL     1      17.112   5.601  21.561  0.00  0.00    +0.155 HD
BRANCH  22  26
ATOM     26  C   UNL     1      19.594   6.322  21.442  0.00  0.00    +0.037 A 
ATOM     27  C   UNL     1      20.305   6.470  22.624  0.00  0.00    +0.013 A 
ATOM     28  C   UNL     1      19.953   5.371  20.501  0.00  0.00    +0.013 A 
ATOM     29  C   UNL     1      21.404   5.645  22.868  0.00  0.00    +0.001 A 
ATOM     30  C   UNL     1      21.052   4.546  20.746  0.00  0.00    +0.001 A 
ATOM     31  C   UNL     1      21.777   4.683  21.930  0.00  0.00    +0.000 A 
ENDBRANCH  22  26
ENDBRANCH  17   6
TORSDOF 3
ENDMDL
MODEL 2
REMARK VINA RESULT:      -7.1      3.169      7.730
REMARK  Name = 11884472
REMARK  3 active torsions:
REMARK  status: ('A' for Active; 'I' for Inactive)
REMARK    1  A    between atoms: N_6  and  C_17
REMARK    2  A    between atoms: C_16  and  C_19
REMARK    3  A    between atoms: C_22  and  C_26
REMARK                            x       y       z     vdW  Elec       q    Type
REMARK                         _______ _______ _______ _____ _____    ______ ____
ROOT
ATOM      1  O   UNL     1      13.538   8.617  16.420  0.00  0.00    -0.266 OA
ATOM      2  O   UNL     1      11.257   7.553  20.942  0.00  0.00    -0.270 OA
ATOM      4  N   UNL     1      13.531   7.916  21.356  0.00  0.00    -0.297 N 
ATOM      5  N   UNL     1      14.620   8.714  18.485  0.00  0.00    -0.310 N 
ATOM      7  C   UNL     1      15.081   6.626  19.897  0.00  0.00    +0.027 C 
ATOM      8  C   UNL     1      15.749   8.843  20.732  0.00  0.00    +0.054 C 
ATOM      9  C   UNL     1      16.255   7.430  20.445  0.00  0.00    +0.018 C 
ATOM     10  C   UNL     1      13.936   6.578  20.925  0.00  0.00    +0.113 C 
ATOM     11  C   UNL     1      14.637   7.246  18.566  0.00  0.00    +0.130 C 
ATOM     12  C   UNL     1      14.634   8.786  21.795  0.00  0.00    +0.117 C 
ATOM     13  C   UNL     1      15.220   9.499  19.472  0.00  0.00    +0.027 A 
ATOM     14  C   UNL     1      15.293  10.831  19.319  0.00  0.00    +0.024 A 
ATOM     15  C   UNL     1      14.061   9.278  17.321  0.00  0.00    +0.273 A 
ATOM     16  C   UNL     1      12.182   8.276  21.307  0.00  0.00    +0.247 C 
ATOM     17  C   UNL     1      14.131  10.775  17.189  0.00  0.00    +0.099 A 
ATOM     18  C   UNL     1      14.739  11.470  18.160  0.00  0.00    +0.030 A 
ENDROOT
BRANCH  16  19
ATOM     19  C   UNL     1      11.821   9.640  21.708  0.00  0.00    +0.037 A 
ATOM     20  C   UNL     1      11.261   9.868  22.963  0.00  0.00    +0.013 A 
ATOM     21  C   UNL     1      12.041  10.700  20.833  0.00  0.00    +0.013 A 
ATOM     23  C   UNL     1      10.918  11.164  23.344  0.00  0.00    +0.001 A 
ATOM     24  C   UNL     1      11.698  11.997  21.214  0.00  0.00    +0.001 A 
ATOM     25  C   UNL     1      11.136  12.230  22.470  0.00  0.00    +0.000 A 
ENDBRANCH  16  19
BRANCH  17   6
ATOM      3  O   UNL     1      15.517  11.492  14.842  0.00  0.00    -0.270 OA
ATOM      6  N   UNL     1      13.572  11.317  16.069  0.00  0.00    -0.277 N 
ATOM     22  C   UNL     1      14.299  11.658  14.925  0.00  0.00    +0.248 C 
ATOM     32  H   UNL     1      12.562  11.416  16.085  0.00  0.00    +0.155 HD
BRANCH  22  26
ATOM     26  C   UNL     1      13.509  12.202  13.810  0.00  0.00    +0.037 A 
ATOM     27  C   UNL     1      12.182  11.828  13.671  0.00  0.00    +0.013 A 
ATOM     28  C   UNL     1      14.107  13.079  12.918  0.00  0.00    +0.013 A 
ATOM     29  C   UNL     1      11.432  12.344  12.613  0.00  0.00    +0.001 A 
ATOM     30  C   UNL     1      13.357  13.595  11.860  0.00  0.00    +0.001 A 
ATOM     31  C   UNL     1      12.020  13.228  11.707  0.00  0.00    +0.000 A 
ENDBRANCH  22  26
ENDBRANCH  17   6
TORSDOF 3
ENDMDL
MODEL 3
REMARK VINA RESULT:      -6.9     31.917     33.835
REMARK  Name = 11884472
REMARK  3 active torsions:
REMARK  status: ('A' for Active; 'I' for Inactive)
REMARK    1  A    between atoms: N_6  and  C_17
REMARK    2  A    between atoms: C_16  and  C_19
REMARK    3  A    between atoms: C_22  and  C_26
REMARK                            x       y       z     vdW  Elec       q    Type
REMARK                         _______ _______ _______ _____ _____    ______ ____
ROOT
ATOM      1  O   UNL     1     -12.242  -7.484   9.255  0.00  0.00    -0.266 OA
ATOM      2  O   UNL     1     -16.580  -5.018  10.628  0.00  0.00    -0.270 OA
ATOM      4  N   UNL     1     -14.846  -4.222  11.983  0.00  0.00    -0.297 N 
ATOM      5  N   UNL     1     -12.322  -5.748  10.812  0.00  0.00    -0.310 N 
ATOM      7  C   UNL     1     -13.481  -5.988  13.084  0.00  0.00    +0.027 C 
ATOM      8  C   UNL     1     -12.437  -3.848  12.461  0.00  0.00    +0.054 C 
ATOM      9  C   UNL     1     -12.489  -4.926  13.543  0.00  0.00    +0.018 C 
ATOM     10  C   UNL     1     -14.878  -5.370  12.888  0.00  0.00    +0.113 C 
ATOM     11  C   UNL     1     -12.951  -6.637  11.800  0.00  0.00    +0.130 C 
ATOM     12  C   UNL     1     -13.831  -3.206  12.305  0.00  0.00    +0.117 C 
ATOM     13  C   UNL     1     -11.992  -4.430  11.133  0.00  0.00    +0.027 A 
ATOM     14  C   UNL     1     -11.315  -3.673  10.255  0.00  0.00    +0.024 A 
ATOM     15  C   UNL     1     -11.983  -6.320   9.570  0.00  0.00    +0.273 A 
ATOM     16  C   UNL     1     -15.730  -4.172  10.902  0.00  0.00    +0.247 C 
ATOM     17  C   UNL     1     -11.250  -5.440   8.593  0.00  0.00    +0.099 A 
ATOM     18  C   UNL     1     -10.944  -4.192   8.970  0.00  0.00    +0.030 A 
ENDROOT
BRANCH  16  19
ATOM     19  C   UNL     1     -15.639  -3.026   9.993  0.00  0.00    +0.037 A 
ATOM     20  C   UNL     1     -14.782  -3.079   8.895  0.00  0.00    +0.013 A 
ATOM     21  C   UNL     1     -16.409  -1.891  10.229  0.00  0.00    +0.013 A 
ATOM     23  C   UNL     1     -14.695  -1.989   8.030  0.00  0.00    +0.001 A 
ATOM     24  C   UNL     1     -16.322  -0.800   9.364  0.00  0.00    +0.001 A 
ATOM     25  C   UNL     1     -15.465  -0.849   8.264  0.00  0.00    +0.000 A 
ENDBRANCH  16  19
BRANCH  17   6
ATOM      3  O   UNL     1      -8.781  -6.612   7.907  0.00  0.00    -0.270 OA
ATOM      6  N   UNL     1     -10.941  -5.993   7.385  0.00  0.00    -0.277 N 
ATOM     22  C   UNL     1      -9.700  -6.564   7.088  0.00  0.00    +0.248 C 
ATOM     32  H   UNL     1     -11.695  -6.019   6.707  0.00  0.00    +0.155 HD
BRANCH  22  26
ATOM     26  C   UNL     1      -9.572  -7.136   5.739  0.00  0.00    +0.037 A 
ATOM     27  C   UNL     1      -8.394  -7.773   5.379  0.00  0.00    +0.013 A 
ATOM     28  C   UNL     1     -10.630  -7.028   4.851  0.00  0.00    +0.013 A 
ATOM     29  C   UNL     1      -8.272  -8.315   4.099  0.00  0.00    +0.001 A 
ATOM     30  C   UNL     1     -10.509  -7.571   3.571  0.00  0.00    +0.001 A 
ATOM     31  C   UNL     1      -9.329  -8.214   3.195  0.00  0.00    +0.000 A 
ENDBRANCH  22  26
ENDBRANCH  17   6
TORSDOF 3
ENDMDL
MODEL 4
REMARK VINA RESULT:      -6.9     27.751     30.925
REMARK  Name = 11884472
REMARK  3 active torsions:
REMARK  status: ('A' for Active; 'I' for Inactive)
REMARK    1  A    between atoms: N_6  and  C_17
REMARK    2  A    between atoms: C_16  and  C_19
REMARK    3  A    between atoms: C_22  and  C_26
REMARK                            x       y       z     vdW  Elec       q    Type
REMARK                         _______ _______ _______ _____ _____    ______ ____
ROOT
ATOM      1  O   UNL     1      -6.604  -9.924  14.430  0.00  0.00    -0.266 OA
ATOM      2  O   UNL     1      -4.812 -14.417  12.589  0.00  0.00    -0.270 OA
ATOM      4  N   UNL     1      -2.971 -13.109  13.200  0.00  0.00    -0.297 N 
ATOM      5  N   UNL     1      -4.353 -10.538  14.442  0.00  0.00    -0.310 N 
ATOM      7  C   UNL     1      -2.983 -10.792  12.292  0.00  0.00    +0.027 C 
ATOM      8  C   UNL     1      -1.936 -11.244  14.473  0.00  0.00    +0.054 C 
ATOM      9  C   UNL     1      -1.792 -10.446  13.178  0.00  0.00    +0.018 C 
ATOM     10  C   UNL     1      -3.002 -12.300  11.982  0.00  0.00    +0.113 C 
ATOM     11  C   UNL     1      -4.268 -10.329  12.989  0.00  0.00    +0.130 C 
ATOM     12  C   UNL     1      -1.908 -12.753  14.155  0.00  0.00    +0.117 C 
ATOM     13  C   UNL     1      -3.228 -10.897  15.187  0.00  0.00    +0.027 A 
ATOM     14  C   UNL     1      -3.302 -10.969  16.525  0.00  0.00    +0.024 A 
ATOM     15  C   UNL     1      -5.593 -10.260  15.051  0.00  0.00    +0.273 A 
ATOM     16  C   UNL     1      -3.923 -14.115  13.383  0.00  0.00    +0.247 C 
ATOM     17  C   UNL     1      -5.656 -10.376  16.550  0.00  0.00    +0.099 A 
ATOM     18  C   UNL     1      -4.536 -10.704  17.208  0.00  0.00    +0.030 A 
ENDROOT
BRANCH  16  19
ATOM     19  C   UNL     1      -3.885 -14.876  14.636  0.00  0.00    +0.037 A 
ATOM     20  C   UNL     1      -4.657 -14.465  15.720  0.00  0.00    +0.013 A 
ATOM     21  C   UNL     1      -3.080 -16.007  14.735  0.00  0.00    +0.013 A 
ATOM     23  C   UNL     1      -4.622 -15.188  16.911  0.00  0.00    +0.001 A 
ATOM     24  C   UNL     1      -3.044 -16.731  15.927  0.00  0.00    +0.001 A 
ATOM     25  C   UNL     1      -3.816 -16.322  17.016  0.00  0.00    +0.000 A 
ENDBRANCH  16  19
BRANCH  17   6
ATOM      3  O   UNL     1      -7.460 -12.323  17.498  0.00  0.00    -0.270 OA
ATOM      6  N   UNL     1      -6.864 -10.125  17.132  0.00  0.00    -0.277 N 
ATOM     22  C   UNL     1      -7.728 -11.123  17.589  0.00  0.00    +0.248 C 
ATOM     32  H   UNL     1      -7.089  -9.145  17.271  0.00  0.00    +0.155 HD
BRANCH  22  26
ATOM     26  C   UNL     1      -8.971 -10.649  18.216  0.00  0.00    +0.037 A 
ATOM     27  C   UNL     1      -9.749  -9.708  17.557  0.00  0.00    +0.013 A 
ATOM     28  C   UNL     1      -9.343 -11.149  19.453  0.00  0.00    +0.013 A 
ATOM     29  C   UNL     1     -10.928  -9.258  18.153  0.00  0.00    +0.001 A 
ATOM     30  C   UNL     1     -10.522 -10.700  20.048  0.00  0.00    +0.001 A 
ATOM     31  C   UNL     1     -11.315  -9.754  19.398  0.00  0.00    +0.000 A 
ENDBRANCH  22  26
ENDBRANCH  17   6
TORSDOF 3
ENDMDL
MODEL 5
REMARK VINA RESULT:      -6.8     12.705     14.725
REMARK  Name = 11884472
REMARK  3 active torsions:
REMARK  status: ('A' for Active; 'I' for Inactive)
REMARK    1  A    between atoms: N_6  and  C_17
REMARK    2  A    between atoms: C_16  and  C_19
REMARK    3  A    between atoms: C_22  and  C_26
REMARK                            x       y       z     vdW  Elec       q    Type
REMARK                         _______ _______ _______ _____ _____    ______ ____
ROOT
ATOM      1  O   UNL     1      12.732   7.547   3.639  0.00  0.00    -0.266 OA
ATOM      2  O   UNL     1       9.305  11.074   5.254  0.00  0.00    -0.270 OA
ATOM      4  N   UNL     1       8.654   8.997   6.114  0.00  0.00    -0.297 N 
ATOM      5  N   UNL     1      10.997   7.097   5.133  0.00  0.00    -0.310 N 
ATOM      7  C   UNL     1       8.531   7.160   4.440  0.00  0.00    +0.027 C 
ATOM      8  C   UNL     1       9.136   6.651   6.770  0.00  0.00    +0.054 C 
ATOM      9  C   UNL     1       8.335   6.154   5.568  0.00  0.00    +0.018 C 
ATOM     10  C   UNL     1       8.032   8.552   4.868  0.00  0.00    +0.113 C 
ATOM     11  C   UNL     1      10.013   7.175   4.043  0.00  0.00    +0.130 C 
ATOM     12  C   UNL     1       8.597   8.025   7.218  0.00  0.00    +0.117 C 
ATOM     13  C   UNL     1      10.610   6.766   6.434  0.00  0.00    +0.027 A 
ATOM     14  C   UNL     1      11.539   6.587   7.386  0.00  0.00    +0.024 A 
ATOM     15  C   UNL     1      12.349   7.272   4.779  0.00  0.00    +0.273 A 
ATOM     16  C   UNL     1       9.255  10.257   6.172  0.00  0.00    +0.247 C 
ATOM     17  C   UNL     1      13.368   7.095   5.873  0.00  0.00    +0.099 A 
ATOM     18  C   UNL     1      12.933   6.756   7.095  0.00  0.00    +0.030 A 
ENDROOT
BRANCH  16  19
ATOM     19  C   UNL     1       9.905  10.650   7.426  0.00  0.00    +0.037 A 
ATOM     20  C   UNL     1      11.286  10.522   7.560  0.00  0.00    +0.013 A 
ATOM     21  C   UNL     1       9.140  11.151   8.476  0.00  0.00    +0.013 A 
ATOM     23  C   UNL     1      11.904  10.896   8.752  0.00  0.00    +0.001 A 
ATOM     24  C   UNL     1       9.759  11.526   9.668  0.00  0.00    +0.001 A 
ATOM     25  C   UNL     1      11.142  11.398   9.807  0.00  0.00    +0.000 A 
ENDBRANCH  16  19
BRANCH  17   6
ATOM      3  O   UNL     1      14.894   9.400   6.421  0.00  0.00    -0.270 OA
ATOM      6  N   UNL     1      14.674   7.284   5.529  0.00  0.00    -0.277 N 
ATOM     22  C   UNL     1      15.393   8.446   5.821  0.00  0.00    +0.248 C 
ATOM     32  H   UNL     1      15.130   6.494   5.083  0.00  0.00    +0.155 HD
BRANCH  22  26
ATOM     26  C   UNL     1      16.801   8.445   5.394  0.00  0.00    +0.037 A 
ATOM     27  C   UNL     1      17.114   8.102   4.088  0.00  0.00    +0.013 A 
ATOM     28  C   UNL     1      17.788   8.788   6.304  0.00  0.00    +0.013 A 
ATOM     29  C   UNL     1      18.450   8.102   3.682  0.00  0.00    +0.001 A 
ATOM     30  C   UNL     1      19.123   8.788   5.899  0.00  0.00    +0.001 A 
ATOM     31  C   UNL     1      19.454   8.445   4.588  0.00  0.00    +0.000 A 
ENDBRANCH  22  26
ENDBRANCH  17   6
TORSDOF 3
ENDMDL
MODEL 6
REMARK VINA RESULT:      -6.8     13.649     15.750
REMARK  Name = 11884472
REMARK  3 active torsions:
REMARK  status: ('A' for Active; 'I' for Inactive)
REMARK    1  A    between atoms: N_6  and  C_17
REMARK    2  A    between atoms: C_16  and  C_19
REMARK    3  A    between atoms: C_22  and  C_26
REMARK                            x       y       z     vdW  Elec       q    Type
REMARK                         _______ _______ _______ _____ _____    ______ ____
ROOT
ATOM      1  O   UNL     1      13.907   6.406   7.322  0.00  0.00    -0.266 OA
ATOM      2  O   UNL     1      10.388   4.858   3.857  0.00  0.00    -0.270 OA
ATOM      4  N   UNL     1       9.400   6.507   5.193  0.00  0.00    -0.297 N 
ATOM      5  N   UNL     1      11.804   7.383   7.069  0.00  0.00    -0.310 N 
ATOM      7  C   UNL     1       9.633   6.149   7.644  0.00  0.00    +0.027 C 
ATOM      8  C   UNL     1       9.540   8.439   6.747  0.00  0.00    +0.054 C 
ATOM      9  C   UNL     1       9.073   7.544   7.895  0.00  0.00    +0.018 C 
ATOM     10  C   UNL     1       9.120   5.596   6.302  0.00  0.00    +0.113 C 
ATOM     11  C   UNL     1      11.165   6.216   7.694  0.00  0.00    +0.130 C 
ATOM     12  C   UNL     1       8.983   7.901   5.414  0.00  0.00    +0.117 C 
ATOM     13  C   UNL     1      11.054   8.496   6.682  0.00  0.00    +0.027 A 
ATOM     14  C   UNL     1      11.671   9.595   6.220  0.00  0.00    +0.024 A 
ATOM     15  C   UNL     1      13.209   7.362   6.975  0.00  0.00    +0.273 A 
ATOM     16  C   UNL     1      10.037   6.022   4.048  0.00  0.00    +0.247 C 
ATOM     17  C   UNL     1      13.874   8.596   6.427  0.00  0.00    +0.099 A 
ATOM     18  C   UNL     1      13.100   9.638   6.094  0.00  0.00    +0.030 A 
ENDROOT
BRANCH  16  19
ATOM     19  C   UNL     1      10.339   6.974   2.975  0.00  0.00    +0.037 A 
ATOM     20  C   UNL     1      11.552   7.660   2.978  0.00  0.00    +0.013 A 
ATOM     21  C   UNL     1       9.414   7.187   1.957  0.00  0.00    +0.013 A 
ATOM     23  C   UNL     1      11.839   8.566   1.958  0.00  0.00    +0.001 A 
ATOM     24  C   UNL     1       9.701   8.093   0.935  0.00  0.00    +0.001 A 
ATOM     25  C   UNL     1      10.914   8.783   0.935  0.00  0.00    +0.000 A 
ENDBRANCH  16  19
BRANCH  17   6
ATOM      3  O   UNL     1      15.327   8.207   4.044  0.00  0.00    -0.270 OA
ATOM      6  N   UNL     1      15.233   8.563   6.321  0.00  0.00    -0.277 N 
ATOM     22  C   UNL     1      15.913   8.366   5.116  0.00  0.00    +0.248 C 
ATOM     32  H   UNL     1      15.746   8.747   7.177  0.00  0.00    +0.155 HD
BRANCH  22  26
ATOM     26  C   UNL     1      17.381   8.394   5.204  0.00  0.00    +0.037 A 
ATOM     27  C   UNL     1      17.984   8.755   6.399  0.00  0.00    +0.013 A 
ATOM     28  C   UNL     1      18.135   8.058   4.091  0.00  0.00    +0.013 A 
ATOM     29  C   UNL     1      19.377   8.782   6.482  0.00  0.00    +0.001 A 
ATOM     30  C   UNL     1      19.528   8.083   4.174  0.00  0.00    +0.001 A 
ATOM     31  C   UNL     1      20.149   8.446   5.370  0.00  0.00    +0.000 A 
ENDBRANCH  22  26
ENDBRANCH  17   6
TORSDOF 3
ENDMDL
MODEL 7
REMARK VINA RESULT:      -6.7     34.214     36.385
REMARK  Name = 11884472
REMARK  3 active torsions:
REMARK  status: ('A' for Active; 'I' for Inactive)
REMARK    1  A    between atoms: N_6  and  C_17
REMARK    2  A    between atoms: C_16  and  C_19
REMARK    3  A    between atoms: C_22  and  C_26
REMARK                            x       y       z     vdW  Elec       q    Type
REMARK                         _______ _______ _______ _____ _____    ______ ____
ROOT
ATOM      1  O   UNL     1      -6.712  -7.525  38.893  0.00  0.00    -0.266 OA
ATOM      2  O   UNL     1      -7.491 -11.386  35.535  0.00  0.00    -0.270 OA
ATOM      4  N   UNL     1      -7.506 -12.298  37.690  0.00  0.00    -0.297 N 
ATOM      5  N   UNL     1      -7.196  -9.722  39.515  0.00  0.00    -0.310 N 
ATOM      7  C   UNL     1      -5.567 -11.658  39.113  0.00  0.00    +0.027 C 
ATOM      8  C   UNL     1      -7.755 -12.093  40.152  0.00  0.00    +0.054 C 
ATOM      9  C   UNL     1      -6.250 -12.295  40.318  0.00  0.00    +0.018 C 
ATOM     10  C   UNL     1      -6.049 -12.321  37.809  0.00  0.00    +0.113 C 
ATOM     11  C   UNL     1      -5.843 -10.149  39.130  0.00  0.00    +0.130 C 
ATOM     12  C   UNL     1      -8.233 -12.799  38.867  0.00  0.00    +0.117 C 
ATOM     13  C   UNL     1      -8.103 -10.619  40.084  0.00  0.00    +0.027 A 
ATOM     14  C   UNL     1      -9.290 -10.181  40.533  0.00  0.00    +0.024 A 
ATOM     15  C   UNL     1      -7.492  -8.352  39.374  0.00  0.00    +0.273 A 
ATOM     16  C   UNL     1      -8.093 -11.805  36.522  0.00  0.00    +0.247 C 
ATOM     17  C   UNL     1      -8.841  -7.892  39.859  0.00  0.00    +0.099 A 
ATOM     18  C   UNL     1      -9.656  -8.799  40.415  0.00  0.00    +0.030 A 
ENDROOT
BRANCH  16  19
ATOM     19  C   UNL     1      -9.557 -11.759  36.457  0.00  0.00    +0.037 A 
ATOM     20  C   UNL     1     -10.260 -12.827  35.902  0.00  0.00    +0.013 A 
ATOM     21  C   UNL     1     -10.238 -10.650  36.950  0.00  0.00    +0.013 A 
ATOM     23  C   UNL     1     -11.652 -12.784  35.840  0.00  0.00    +0.001 A 
ATOM     24  C   UNL     1     -11.631 -10.607  36.888  0.00  0.00    +0.001 A 
ATOM     25  C   UNL     1     -12.339 -11.674  36.333  0.00  0.00    +0.000 A 
ENDBRANCH  16  19
BRANCH  17   6
ATOM      3  O   UNL     1      -8.526  -5.901  41.828  0.00  0.00    -0.270 OA
ATOM      6  N   UNL     1      -9.128  -6.568  39.704  0.00  0.00    -0.277 N 
ATOM     22  C   UNL     1      -8.957  -5.613  40.710  0.00  0.00    +0.248 C 
ATOM     32  H   UNL     1      -9.433  -6.290  38.777  0.00  0.00    +0.155 HD
BRANCH  22  26
ATOM     26  C   UNL     1      -9.296  -4.231  40.337  0.00  0.00    +0.037 A 
ATOM     27  C   UNL     1      -8.717  -3.179  41.030  0.00  0.00    +0.013 A 
ATOM     28  C   UNL     1     -10.187  -4.006  39.300  0.00  0.00    +0.013 A 
ATOM     29  C   UNL     1      -9.038  -1.868  40.677  0.00  0.00    +0.001 A 
ATOM     30  C   UNL     1     -10.507  -2.694  38.946  0.00  0.00    +0.001 A 
ATOM     31  C   UNL     1      -9.933  -1.626  39.634  0.00  0.00    +0.000 A 
ENDBRANCH  22  26
ENDBRANCH  17   6
TORSDOF 3
ENDMDL
MODEL 8
REMARK VINA RESULT:      -6.7     22.563     24.702
REMARK  Name = 11884472
REMARK  3 active torsions:
REMARK  status: ('A' for Active; 'I' for Inactive)
REMARK    1  A    between atoms: N_6  and  C_17
REMARK    2  A    between atoms: C_16  and  C_19
REMARK    3  A    between atoms: C_22  and  C_26
REMARK                            x       y       z     vdW  Elec       q    Type
REMARK                         _______ _______ _______ _____ _____    ______ ____
ROOT
ATOM      1  O   UNL     1       9.545  -9.463  32.028  0.00  0.00    -0.266 OA
ATOM      2  O   UNL     1       8.449  -9.151  37.077  0.00  0.00    -0.270 OA
ATOM      4  N   UNL     1       8.081  -7.041  36.133  0.00  0.00    -0.297 N 
ATOM      5  N   UNL     1       8.644  -7.572  33.056  0.00  0.00    -0.310 N 
ATOM      7  C   UNL     1       9.957  -6.169  34.751  0.00  0.00    +0.027 C 
ATOM      8  C   UNL     1       7.640  -5.560  34.189  0.00  0.00    +0.054 C 
ATOM      9  C   UNL     1       9.069  -5.024  34.278  0.00  0.00    +0.018 C 
ATOM     10  C   UNL     1       9.496  -6.674  36.130  0.00  0.00    +0.113 C 
ATOM     11  C   UNL     1       9.937  -7.280  33.693  0.00  0.00    +0.130 C 
ATOM     12  C   UNL     1       7.173  -6.020  35.585  0.00  0.00    +0.117 C 
ATOM     13  C   UNL     1       7.551  -6.717  33.214  0.00  0.00    +0.027 A 
ATOM     14  C   UNL     1       6.418  -6.943  32.531  0.00  0.00    +0.024 A 
ATOM     15  C   UNL     1       8.596  -8.695  32.207  0.00  0.00    +0.273 A 
ATOM     16  C   UNL     1       7.696  -8.294  36.617  0.00  0.00    +0.247 C 
ATOM     17  C   UNL     1       7.304  -8.941  31.476  0.00  0.00    +0.099 A 
ATOM     18  C   UNL     1       6.300  -8.071  31.653  0.00  0.00    +0.030 A 
ENDROOT
BRANCH  16  19
ATOM     19  C   UNL     1       6.273  -8.642  36.564  0.00  0.00    +0.037 A 
ATOM     20  C   UNL     1       5.742  -9.215  35.410  0.00  0.00    +0.013 A 
ATOM     21  C   UNL     1       5.459  -8.402  37.668  0.00  0.00    +0.013 A 
ATOM     23  C   UNL     1       4.389  -9.547  35.360  0.00  0.00    +0.001 A 
ATOM     24  C   UNL     1       4.105  -8.734  37.617  0.00  0.00    +0.001 A 
ATOM     25  C   UNL     1       3.569  -9.307  36.463  0.00  0.00    +0.000 A 
ENDBRANCH  16  19
BRANCH  17   6
ATOM      3  O   UNL     1       6.396 -11.499  32.235  0.00  0.00    -0.270 OA
ATOM      6  N   UNL     1       7.257 -10.040  30.669  0.00  0.00    -0.277 N 
ATOM     22  C   UNL     1       6.799 -11.292  31.088  0.00  0.00    +0.248 C 
ATOM     32  H   UNL     1       7.530  -9.888  29.703  0.00  0.00    +0.155 HD
BRANCH  22  26
ATOM     26  C   UNL     1       6.797 -12.344  30.060  0.00  0.00    +0.037 A 
ATOM     27  C   UNL     1       5.789 -13.296  30.064  0.00  0.00    +0.013 A 
ATOM     28  C   UNL     1       7.803 -12.364  29.107  0.00  0.00    +0.013 A 
ATOM     29  C   UNL     1       5.788 -14.294  29.088  0.00  0.00    +0.001 A 
ATOM     30  C   UNL     1       7.801 -13.362  28.131  0.00  0.00    +0.001 A 
ATOM     31  C   UNL     1       6.793 -14.327  28.122  0.00  0.00    +0.000 A 
ENDBRANCH  22  26
ENDBRANCH  17   6
TORSDOF 3
ENDMDL
MODEL 9
REMARK VINA RESULT:      -6.5     13.057     16.732
REMARK  Name = 11884472
REMARK  3 active torsions:
REMARK  status: ('A' for Active; 'I' for Inactive)
REMARK    1  A    between atoms: N_6  and  C_17
REMARK    2  A    between atoms: C_16  and  C_19
REMARK    3  A    between atoms: C_22  and  C_26
REMARK                            x       y       z     vdW  Elec       q    Type
REMARK                         _______ _______ _______ _____ _____    ______ ____
ROOT
ATOM      1  O   UNL     1      18.222  -5.918  28.678  0.00  0.00    -0.266 OA
ATOM      2  O   UNL     1      19.647  -1.856  25.804  0.00  0.00    -0.270 OA
ATOM      4  N   UNL     1      20.169  -3.798  24.607  0.00  0.00    -0.297 N 
ATOM      5  N   UNL     1      19.036  -6.080  26.497  0.00  0.00    -0.310 N 
ATOM      7  C   UNL     1      21.456  -5.503  25.884  0.00  0.00    +0.027 C 
ATOM      8  C   UNL     1      19.885  -6.219  24.131  0.00  0.00    +0.054 C 
ATOM      9  C   UNL     1      21.255  -6.497  24.746  0.00  0.00    +0.018 C 
ATOM     10  C   UNL     1      21.400  -4.059  25.353  0.00  0.00    +0.113 C 
ATOM     11  C   UNL     1      20.395  -5.764  26.961  0.00  0.00    +0.130 C 
ATOM     12  C   UNL     1      19.856  -4.786  23.562  0.00  0.00    +0.117 C 
ATOM     13  C   UNL     1      18.782  -6.382  25.158  0.00  0.00    +0.027 A 
ATOM     14  C   UNL     1      17.557  -6.780  24.780  0.00  0.00    +0.024 A 
ATOM     15  C   UNL     1      18.033  -6.160  27.483  0.00  0.00    +0.273 A 
ATOM     16  C   UNL     1      19.390  -2.685  24.932  0.00  0.00    +0.247 C 
ATOM     17  C   UNL     1      16.662  -6.581  27.027  0.00  0.00    +0.099 A 
ATOM     18  C   UNL     1      16.489  -6.878  25.732  0.00  0.00    +0.030 A 
ENDROOT
BRANCH  16  19
ATOM     19  C   UNL     1      18.142  -2.481  24.191  0.00  0.00    +0.037 A 
ATOM     20  C   UNL     1      18.118  -1.614  23.100  0.00  0.00    +0.013 A 
ATOM     21  C   UNL     1      16.987  -3.154  24.579  0.00  0.00    +0.013 A 
ATOM     23  C   UNL     1      16.932  -1.420  22.395  0.00  0.00    +0.001 A 
ATOM     24  C   UNL     1      15.800  -2.959  23.873  0.00  0.00    +0.001 A 
ATOM     25  C   UNL     1      15.771  -2.092  22.780  0.00  0.00    +0.000 A 
ENDBRANCH  16  19
BRANCH  17   6
ATOM      3  O   UNL     1      15.953  -8.868  28.513  0.00  0.00    -0.270 OA
ATOM      6  N   UNL     1      15.690  -6.639  27.983  0.00  0.00    -0.277 N 
ATOM     22  C   UNL     1      15.371  -7.797  28.696  0.00  0.00    +0.248 C 
ATOM     32  H   UNL     1      15.230  -5.759  28.196  0.00  0.00    +0.155 HD
BRANCH  22  26
ATOM     26  C   UNL     1      14.313  -7.648  29.707  0.00  0.00    +0.037 A 
ATOM     27  C   UNL     1      13.800  -6.388  29.974  0.00  0.00    +0.013 A 
ATOM     28  C   UNL     1      13.848  -8.770  30.375  0.00  0.00    +0.013 A 
ATOM     29  C   UNL     1      12.796  -6.247  30.933  0.00  0.00    +0.001 A 
ATOM     30  C   UNL     1      12.844  -8.630  31.333  0.00  0.00    +0.001 A 
ATOM     31  C   UNL     1      12.318  -7.368  31.613  0.00  0.00    +0.000 A 
ENDBRANCH  22  26
ENDBRANCH  17   6
TORSDOF 3
ENDMDL
MODEL 10
REMARK VINA RESULT:      -6.4     17.565     20.814
REMARK  Name = 11884472
REMARK  3 active torsions:
REMARK  status: ('A' for Active; 'I' for Inactive)
REMARK    1  A    between atoms: N_6  and  C_17
REMARK    2  A    between atoms: C_16  and  C_19
REMARK    3  A    between atoms: C_22  and  C_26
REMARK                            x       y       z     vdW  Elec       q    Type
REMARK                         _______ _______ _______ _____ _____    ______ ____
ROOT
ATOM      1  O   UNL     1      13.713   6.777   2.713  0.00  0.00    -0.266 OA
ATOM      2  O   UNL     1      12.952   8.122  -2.227  0.00  0.00    -0.270 OA
ATOM      4  N   UNL     1      14.023   6.041  -2.208  0.00  0.00    -0.297 N 
ATOM      5  N   UNL     1      14.190   5.397   0.893  0.00  0.00    -0.310 N 
ATOM      7  C   UNL     1      16.058   5.921  -0.781  0.00  0.00    +0.027 C 
ATOM      8  C   UNL     1      14.662   3.918  -1.089  0.00  0.00    +0.054 C 
ATOM      9  C   UNL     1      16.104   4.412  -0.986  0.00  0.00    +0.018 C 
ATOM     10  C   UNL     1      15.351   6.603  -1.967  0.00  0.00    +0.113 C 
ATOM     11  C   UNL     1      15.362   6.217   0.554  0.00  0.00    +0.130 C 
ATOM     12  C   UNL     1      13.978   4.573  -2.307  0.00  0.00    +0.117 C 
ATOM     13  C   UNL     1      13.882   4.243   0.170  0.00  0.00    +0.027 A 
ATOM     14  C   UNL     1      12.877   3.448   0.568  0.00  0.00    +0.024 A 
ATOM     15  C   UNL     1      13.461   5.776   2.038  0.00  0.00    +0.273 A 
ATOM     16  C   UNL     1      12.921   6.895  -2.307  0.00  0.00    +0.247 C 
ATOM     17  C   UNL     1      12.321   4.882   2.446  0.00  0.00    +0.099 A 
ATOM     18  C   UNL     1      12.091   3.778   1.722  0.00  0.00    +0.030 A 
ENDROOT
BRANCH  16  19
ATOM     19  C   UNL     1      11.601   6.291  -2.508  0.00  0.00    +0.037 A 
ATOM     20  C   UNL     1      11.120   6.090  -3.800  0.00  0.00    +0.013 A 
ATOM     21  C   UNL     1      10.834   5.920  -1.407  0.00  0.00    +0.013 A 
ATOM     23  C   UNL     1       9.864   5.516  -3.991  0.00  0.00    +0.001 A 
ATOM     24  C   UNL     1       9.577   5.345  -1.598  0.00  0.00    +0.001 A 
ATOM     25  C   UNL     1       9.091   5.143  -2.890  0.00  0.00    +0.000 A 
ENDBRANCH  16  19
BRANCH  17   6
ATOM      3  O   UNL     1       9.859   6.252   2.409  0.00  0.00    -0.270 OA
ATOM      6  N   UNL     1      11.607   5.264   3.544  0.00  0.00    -0.277 N 
ATOM     22  C   UNL     1      10.388   5.943   3.479  0.00  0.00    +0.248 C 
ATOM     32  H   UNL     1      11.989   4.976   4.439  0.00  0.00    +0.155 HD
BRANCH  22  26
ATOM     26  C   UNL     1       9.757   6.240   4.774  0.00  0.00    +0.037 A 
ATOM     27  C   UNL     1      10.104   5.490   5.887  0.00  0.00    +0.013 A 
ATOM     28  C   UNL     1       8.827   7.264   4.858  0.00  0.00    +0.013 A 
ATOM     29  C   UNL     1       9.506   5.772   7.116  0.00  0.00    +0.001 A 
ATOM     30  C   UNL     1       8.230   7.547   6.087  0.00  0.00    +0.001 A 
ATOM     31  C   UNL     1       8.569   6.800   7.216  0.00  0.00    +0.000 A 
ENDBRANCH  22  26
ENDBRANCH  17   6
TORSDOF 3
ENDMDL
