MODEL 1
REMARK VINA RESULT:      -7.4      0.000      0.000
REMARK  Name = 75536081
REMARK  6 active torsions:
REMARK  status: ('A' for Active; 'I' for Inactive)
REMARK    1  A    between atoms: O_1  and  C_9
REMARK    2  A    between atoms: O_2  and  C_11
REMARK    3  A    between atoms: N_4  and  C_8
REMARK    4  A    between atoms: C_7  and  C_12
REMARK    5  A    between atoms: C_15  and  C_17
REMARK    6  A    between atoms: C_21  and  C_24
REMARK                            x       y       z     vdW  Elec       q    Type
REMARK                         _______ _______ _______ _____ _____    ______ ____
ROOT
ATOM      7  C   UNL     1      12.611   8.739  22.086  0.00  0.00    +0.046 C 
ATOM      8  C   UNL     1      13.009   7.887  20.860  0.00  0.00    +0.112 C 
ATOM      9  C   UNL     1      12.069   6.685  20.943  0.00  0.00    +0.164 C 
ATOM     10  C   UNL     1      11.157   8.327  22.434  0.00  0.00    +0.044 C 
ATOM     11  C   UNL     1      10.747   7.308  21.373  0.00  0.00    +0.145 C 
ENDROOT
BRANCH   7  12
ATOM      5  N   UNL     1      14.219  12.175  22.048  0.00  0.00    -0.263 NA
ATOM     12  C   UNL     1      12.803  10.224  21.864  0.00  0.00    -0.024 A 
ATOM     13  C   UNL     1      11.798  10.999  21.295  0.00  0.00    +0.007 A 
ATOM     14  C   UNL     1      13.984  10.854  22.219  0.00  0.00    +0.114 A 
ATOM     16  C   UNL     1      12.001  12.361  21.103  0.00  0.00    +0.020 A 
ATOM     18  C   UNL     1      13.219  12.896  21.493  0.00  0.00    +0.111 A 
ENDBRANCH   7  12
BRANCH   8   4
ATOM      3  O   UNL     1      14.677   7.241  18.614  0.00  0.00    -0.270 OA
ATOM      4  N   UNL     1      14.393   7.490  20.902  0.00  0.00    -0.305 N 
ATOM     15  C   UNL     1      15.122   7.197  19.757  0.00  0.00    +0.244 C 
ATOM     25  H   UNL     1      14.820   7.410  21.819  0.00  0.00    +0.149 HD
BRANCH  15  17
ATOM     17  C   UNL     1      16.531   6.778  19.972  0.00  0.00    +0.038 A 
ATOM     19  C   UNL     1      17.274   7.335  21.013  0.00  0.00    +0.032 A 
ATOM     20  C   UNL     1      17.111   5.825  19.133  0.00  0.00    +0.013 A 
ATOM     21  C   UNL     1      18.597   6.941  21.214  0.00  0.00    +0.052 A 
ATOM     22  C   UNL     1      18.435   5.431  19.335  0.00  0.00    +0.002 A 
ATOM     23  C   UNL     1      19.176   5.989  20.376  0.00  0.00    +0.019 A 
BRANCH  21  24
ATOM      6  N   UNL     1      19.976   7.974  23.148  0.00  0.00    -0.191 NA
ATOM     24  C   UNL     1      19.358   7.511  22.282  0.00  0.00    +0.099 C 
ENDBRANCH  21  24
ENDBRANCH  15  17
ENDBRANCH   8   4
BRANCH   9   1
ATOM      1  O   UNL     1      11.940   6.018  19.701  0.00  0.00    -0.387 OA
ATOM     26  H   UNL     1      12.814   6.023  19.275  0.00  0.00    +0.210 HD
ENDBRANCH   9   1
BRANCH  11   2
ATOM      2  O   UNL     1      10.133   7.999  20.289  0.00  0.00    -0.389 OA
ATOM     27  H   UNL     1       9.394   7.450  19.976  0.00  0.00    +0.210 HD
ENDBRANCH  11   2
TORSDOF 6
ENDMDL
MODEL 2
REMARK VINA RESULT:      -7.3      2.325      2.870
REMARK  Name = 75536081
REMARK  6 active torsions:
REMARK  status: ('A' for Active; 'I' for Inactive)
REMARK    1  A    between atoms: O_1  and  C_9
REMARK    2  A    between atoms: O_2  and  C_11
REMARK    3  A    between atoms: N_4  and  C_8
REMARK    4  A    between atoms: C_7  and  C_12
REMARK    5  A    between atoms: C_15  and  C_17
REMARK    6  A    between atoms: C_21  and  C_24
REMARK                            x       y       z     vdW  Elec       q    Type
REMARK                         _______ _______ _______ _____ _____    ______ ____
ROOT
ATOM      7  C   UNL     1      12.965   9.240  19.943  0.00  0.00    +0.046 C 
ATOM      8  C   UNL     1      13.179   7.762  20.340  0.00  0.00    +0.112 C 
ATOM      9  C   UNL     1      12.371   7.621  21.630  0.00  0.00    +0.164 C 
ATOM     10  C   UNL     1      11.645   9.676  20.630  0.00  0.00    +0.044 C 
ATOM     11  C   UNL     1      11.115   8.433  21.342  0.00  0.00    +0.145 C 
ENDROOT
BRANCH   7  12
ATOM      5  N   UNL     1      12.101   8.928  16.262  0.00  0.00    -0.263 NA
ATOM     12  C   UNL     1      12.992   9.461  18.446  0.00  0.00    -0.024 A 
ATOM     13  C   UNL     1      13.887  10.356  17.869  0.00  0.00    +0.007 A 
ATOM     14  C   UNL     1      12.128   8.778  17.606  0.00  0.00    +0.114 A 
ATOM     16  C   UNL     1      13.891  10.538  16.491  0.00  0.00    +0.020 A 
ATOM     18  C   UNL     1      12.985   9.806  15.738  0.00  0.00    +0.111 A 
ENDBRANCH   7  12
BRANCH   8   4
ATOM      3  O   UNL     1      15.044   6.874  18.346  0.00  0.00    -0.270 OA
ATOM      4  N   UNL     1      14.572   7.452  20.542  0.00  0.00    -0.305 N 
ATOM     15  C   UNL     1      15.400   7.027  19.511  0.00  0.00    +0.244 C 
ATOM     25  H   UNL     1      14.928   7.535  21.488  0.00  0.00    +0.149 HD
BRANCH  15  17
ATOM     17  C   UNL     1      16.804   6.723  19.887  0.00  0.00    +0.038 A 
ATOM     19  C   UNL     1      17.435   7.464  20.887  0.00  0.00    +0.032 A 
ATOM     20  C   UNL     1      17.491   5.695  19.242  0.00  0.00    +0.013 A 
ATOM     21  C   UNL     1      18.753   7.177  21.240  0.00  0.00    +0.052 A 
ATOM     22  C   UNL     1      18.811   5.408  19.596  0.00  0.00    +0.002 A 
ATOM     23  C   UNL     1      19.441   6.149  20.595  0.00  0.00    +0.019 A 
BRANCH  21  24
ATOM      6  N   UNL     1      19.924   8.551  23.098  0.00  0.00    -0.191 NA
ATOM     24  C   UNL     1      19.400   7.935  22.266  0.00  0.00    +0.099 C 
ENDBRANCH  21  24
ENDBRANCH  15  17
ENDBRANCH   8   4
BRANCH   9   1
ATOM      1  O   UNL     1      12.053   6.272  21.918  0.00  0.00    -0.387 OA
ATOM     26  H   UNL     1      11.228   6.270  22.433  0.00  0.00    +0.210 HD
ENDBRANCH   9   1
BRANCH  11   2
ATOM      2  O   UNL     1      10.247   7.734  20.455  0.00  0.00    -0.389 OA
ATOM     27  H   UNL     1      10.348   6.784  20.638  0.00  0.00    +0.210 HD
ENDBRANCH  11   2
TORSDOF 6
ENDMDL
MODEL 3
REMARK VINA RESULT:      -6.4      2.508      3.812
REMARK  Name = 75536081
REMARK  6 active torsions:
REMARK  status: ('A' for Active; 'I' for Inactive)
REMARK    1  A    between atoms: O_1  and  C_9
REMARK    2  A    between atoms: O_2  and  C_11
REMARK    3  A    between atoms: N_4  and  C_8
REMARK    4  A    between atoms: C_7  and  C_12
REMARK    5  A    between atoms: C_15  and  C_17
REMARK    6  A    between atoms: C_21  and  C_24
REMARK                            x       y       z     vdW  Elec       q    Type
REMARK                         _______ _______ _______ _____ _____    ______ ____
ROOT
ATOM      7  C   UNL     1      13.358   8.856  18.736  0.00  0.00    +0.046 C 
ATOM      8  C   UNL     1      14.606   9.510  19.370  0.00  0.00    +0.112 C 
ATOM      9  C   UNL     1      14.914  10.673  18.428  0.00  0.00    +0.164 C 
ATOM     10  C   UNL     1      12.692   9.960  17.875  0.00  0.00    +0.044 C 
ATOM     11  C   UNL     1      13.533  11.218  18.087  0.00  0.00    +0.145 C 
ENDROOT
BRANCH   7  12
ATOM      5  N   UNL     1      11.668   6.228  20.888  0.00  0.00    -0.263 NA
ATOM     12  C   UNL     1      12.438   8.221  19.757  0.00  0.00    -0.024 A 
ATOM     13  C   UNL     1      11.542   8.991  20.491  0.00  0.00    +0.007 A 
ATOM     14  C   UNL     1      12.462   6.856  19.992  0.00  0.00    +0.114 A 
ATOM     16  C   UNL     1      10.709   8.382  21.422  0.00  0.00    +0.020 A 
ATOM     18  C   UNL     1      10.810   7.009  21.582  0.00  0.00    +0.111 A 
ENDBRANCH   7  12
BRANCH   8   4
ATOM      3  O   UNL     1      15.570   8.232  21.754  0.00  0.00    -0.270 OA
ATOM      4  N   UNL     1      15.710   8.589  19.466  0.00  0.00    -0.305 N 
ATOM     15  C   UNL     1      16.105   8.018  20.669  0.00  0.00    +0.244 C 
ATOM     25  H   UNL     1      16.213   8.385  18.609  0.00  0.00    +0.149 HD
BRANCH  15  17
ATOM     17  C   UNL     1      17.278   7.109  20.604  0.00  0.00    +0.038 A 
ATOM     19  C   UNL     1      18.236   7.133  21.617  0.00  0.00    +0.032 A 
ATOM     20  C   UNL     1      17.420   6.230  19.530  0.00  0.00    +0.013 A 
ATOM     21  C   UNL     1      19.337   6.279  21.556  0.00  0.00    +0.052 A 
ATOM     22  C   UNL     1      18.522   5.376  19.469  0.00  0.00    +0.002 A 
ATOM     23  C   UNL     1      19.479   5.400  20.482  0.00  0.00    +0.019 A 
BRANCH  21  24
ATOM      6  N   UNL     1      21.116   6.322  23.438  0.00  0.00    -0.191 NA
ATOM     24  C   UNL     1      20.320   6.303  22.594  0.00  0.00    +0.099 C 
ENDBRANCH  21  24
ENDBRANCH  15  17
ENDBRANCH   8   4
BRANCH   9   1
ATOM      1  O   UNL     1      15.717  11.663  19.043  0.00  0.00    -0.387 OA
ATOM     26  H   UNL     1      15.464  11.703  19.981  0.00  0.00    +0.210 HD
ENDBRANCH   9   1
BRANCH  11   2
ATOM      2  O   UNL     1      12.990  11.952  19.180  0.00  0.00    -0.389 OA
ATOM     27  H   UNL     1      12.339  11.380  19.621  0.00  0.00    +0.210 HD
ENDBRANCH  11   2
TORSDOF 6
ENDMDL
MODEL 4
REMARK VINA RESULT:      -6.1     26.538     28.671
REMARK  Name = 75536081
REMARK  6 active torsions:
REMARK  status: ('A' for Active; 'I' for Inactive)
REMARK    1  A    between atoms: O_1  and  C_9
REMARK    2  A    between atoms: O_2  and  C_11
REMARK    3  A    between atoms: N_4  and  C_8
REMARK    4  A    between atoms: C_7  and  C_12
REMARK    5  A    between atoms: C_15  and  C_17
REMARK    6  A    between atoms: C_21  and  C_24
REMARK                            x       y       z     vdW  Elec       q    Type
REMARK                         _______ _______ _______ _____ _____    ______ ____
ROOT
ATOM      7  C   UNL     1      -3.666 -12.890  12.396  0.00  0.00    +0.046 C 
ATOM      8  C   UNL     1      -3.113 -13.175  13.812  0.00  0.00    +0.112 C 
ATOM      9  C   UNL     1      -3.059 -14.701  13.870  0.00  0.00    +0.164 C 
ATOM     10  C   UNL     1      -3.339 -14.150  11.553  0.00  0.00    +0.044 C 
ATOM     11  C   UNL     1      -2.565 -15.084  12.481  0.00  0.00    +0.145 C 
ENDROOT
BRANCH   7  12
ATOM      5  N   UNL     1      -1.434  -9.891  11.750  0.00  0.00    -0.263 NA
ATOM     12  C   UNL     1      -3.149 -11.595  11.808  0.00  0.00    -0.024 A 
ATOM     13  C   UNL     1      -3.862 -10.919  10.825  0.00  0.00    +0.007 A 
ATOM     14  C   UNL     1      -1.951 -11.044  12.233  0.00  0.00    +0.114 A 
ATOM     16  C   UNL     1      -3.364  -9.731  10.303  0.00  0.00    +0.020 A 
ATOM     18  C   UNL     1      -2.156  -9.263  10.795  0.00  0.00    +0.111 A 
ENDBRANCH   7  12
BRANCH   8   4
ATOM      3  O   UNL     1      -2.380 -11.193  15.755  0.00  0.00    -0.270 OA
ATOM      4  N   UNL     1      -3.958 -12.627  14.842  0.00  0.00    -0.305 N 
ATOM     15  C   UNL     1      -3.512 -11.666  15.741  0.00  0.00    +0.244 C 
ATOM     25  H   UNL     1      -4.902 -12.991  14.904  0.00  0.00    +0.149 HD
BRANCH  15  17
ATOM     17  C   UNL     1      -4.497 -11.223  16.761  0.00  0.00    +0.038 A 
ATOM     19  C   UNL     1      -5.625 -10.499  16.373  0.00  0.00    +0.032 A 
ATOM     20  C   UNL     1      -4.294 -11.531  18.106  0.00  0.00    +0.013 A 
ATOM     21  C   UNL     1      -6.550 -10.084  17.331  0.00  0.00    +0.052 A 
ATOM     22  C   UNL     1      -5.220 -11.114  19.064  0.00  0.00    +0.002 A 
ATOM     23  C   UNL     1      -6.347 -10.391  18.676  0.00  0.00    +0.019 A 
BRANCH  21  24
ATOM      6  N   UNL     1      -8.645  -8.743  16.611  0.00  0.00    -0.191 NA
ATOM     24  C   UNL     1      -7.707  -9.343  16.934  0.00  0.00    +0.099 C 
ENDBRANCH  21  24
ENDBRANCH  15  17
ENDBRANCH   8   4
BRANCH   9   1
ATOM      1  O   UNL     1      -2.176 -15.167  14.874  0.00  0.00    -0.387 OA
ATOM     26  H   UNL     1      -2.715 -15.422  15.642  0.00  0.00    +0.210 HD
ENDBRANCH   9   1
BRANCH  11   2
ATOM      2  O   UNL     1      -1.173 -14.815  12.343  0.00  0.00    -0.389 OA
ATOM     27  H   UNL     1      -0.817 -14.656  13.234  0.00  0.00    +0.210 HD
ENDBRANCH  11   2
TORSDOF 6
ENDMDL
MODEL 5
REMARK VINA RESULT:      -6.1      2.165      3.334
REMARK  Name = 75536081
REMARK  6 active torsions:
REMARK  status: ('A' for Active; 'I' for Inactive)
REMARK    1  A    between atoms: O_1  and  C_9
REMARK    2  A    between atoms: O_2  and  C_11
REMARK    3  A    between atoms: N_4  and  C_8
REMARK    4  A    between atoms: C_7  and  C_12
REMARK    5  A    between atoms: C_15  and  C_17
REMARK    6  A    between atoms: C_21  and  C_24
REMARK                            x       y       z     vdW  Elec       q    Type
REMARK                         _______ _______ _______ _____ _____    ______ ____
ROOT
ATOM      7  C   UNL     1      13.065   7.795  19.118  0.00  0.00    +0.046 C 
ATOM      8  C   UNL     1      14.104   8.888  18.778  0.00  0.00    +0.112 C 
ATOM      9  C   UNL     1      14.209   8.816  17.256  0.00  0.00    +0.164 C 
ATOM     10  C   UNL     1      12.228   7.591  17.829  0.00  0.00    +0.044 C 
ATOM     11  C   UNL     1      12.765   8.603  16.819  0.00  0.00    +0.145 C 
ENDROOT
BRANCH   7  12
ATOM      5  N   UNL     1      10.762   7.363  22.101  0.00  0.00    -0.263 NA
ATOM     12  C   UNL     1      12.247   8.119  20.349  0.00  0.00    -0.024 A 
ATOM     13  C   UNL     1      12.206   9.410  20.864  0.00  0.00    +0.007 A 
ATOM     14  C   UNL     1      11.513   7.140  20.999  0.00  0.00    +0.114 A 
ATOM     16  C   UNL     1      11.445   9.680  21.995  0.00  0.00    +0.020 A 
ATOM     18  C   UNL     1      10.747   8.630  22.572  0.00  0.00    +0.111 A 
ENDBRANCH   7  12
BRANCH   8   4
ATOM      3  O   UNL     1      15.436   6.357  19.037  0.00  0.00    -0.270 OA
ATOM      4  N   UNL     1      15.373   8.645  19.416  0.00  0.00    -0.305 N 
ATOM     15  C   UNL     1      15.941   7.379  19.492  0.00  0.00    +0.244 C 
ATOM     25  H   UNL     1      15.837   9.443  19.836  0.00  0.00    +0.149 HD
BRANCH  15  17
ATOM     17  C   UNL     1      17.241   7.291  20.206  0.00  0.00    +0.038 A 
ATOM     19  C   UNL     1      17.672   8.351  21.004  0.00  0.00    +0.032 A 
ATOM     20  C   UNL     1      18.030   6.148  20.079  0.00  0.00    +0.013 A 
ATOM     21  C   UNL     1      18.892   8.268  21.674  0.00  0.00    +0.052 A 
ATOM     22  C   UNL     1      19.252   6.065  20.749  0.00  0.00    +0.002 A 
ATOM     23  C   UNL     1      19.682   7.125  21.547  0.00  0.00    +0.019 A 
BRANCH  21  24
ATOM      6  N   UNL     1      19.692  10.234  23.159  0.00  0.00    -0.191 NA
ATOM     24  C   UNL     1      19.334   9.353  22.493  0.00  0.00    +0.099 C 
ENDBRANCH  21  24
ENDBRANCH  15  17
ENDBRANCH   8   4
BRANCH   9   1
ATOM      1  O   UNL     1      14.742  10.003  16.698  0.00  0.00    -0.387 OA
ATOM     26  H   UNL     1      15.060  10.554  17.434  0.00  0.00    +0.210 HD
ENDBRANCH   9   1
BRANCH  11   2
ATOM      2  O   UNL     1      12.014   9.808  16.936  0.00  0.00    -0.389 OA
ATOM     27  H   UNL     1      11.609   9.814  17.820  0.00  0.00    +0.210 HD
ENDBRANCH  11   2
TORSDOF 6
ENDMDL
MODEL 6
REMARK VINA RESULT:      -6.0     16.048     17.270
REMARK  Name = 75536081
REMARK  6 active torsions:
REMARK  status: ('A' for Active; 'I' for Inactive)
REMARK    1  A    between atoms: O_1  and  C_9
REMARK    2  A    between atoms: O_2  and  C_11
REMARK    3  A    between atoms: N_4  and  C_8
REMARK    4  A    between atoms: C_7  and  C_12
REMARK    5  A    between atoms: C_15  and  C_17
REMARK    6  A    between atoms: C_21  and  C_24
REMARK                            x       y       z     vdW  Elec       q    Type
REMARK                         _______ _______ _______ _____ _____    ______ ____
ROOT
ATOM      7  C   UNL     1      11.130   6.712   6.828  0.00  0.00    +0.046 C 
ATOM      8  C   UNL     1      10.150   6.709   5.633  0.00  0.00    +0.112 C 
ATOM      9  C   UNL     1       8.907   6.023   6.196  0.00  0.00    +0.164 C 
ATOM     10  C   UNL     1      10.248   6.597   8.098  0.00  0.00    +0.044 C 
ATOM     11  C   UNL     1       8.803   6.594   7.604  0.00  0.00    +0.145 C 
ENDROOT
BRANCH   7  12
ATOM      5  N   UNL     1      14.301   8.771   6.510  0.00  0.00    -0.263 NA
ATOM     12  C   UNL     1      12.067   7.901   6.824  0.00  0.00    -0.024 A 
ATOM     13  C   UNL     1      11.603   9.179   7.115  0.00  0.00    +0.007 A 
ATOM     14  C   UNL     1      13.412   7.752   6.530  0.00  0.00    +0.114 A 
ATOM     16  C   UNL     1      12.486  10.254   7.104  0.00  0.00    +0.020 A 
ATOM     18  C   UNL     1      13.813   9.999   6.798  0.00  0.00    +0.111 A 
ENDBRANCH   7  12
BRANCH   8   4
ATOM      3  O   UNL     1       9.325   6.989   2.897  0.00  0.00    -0.270 OA
ATOM      4  N   UNL     1      10.686   6.004   4.496  0.00  0.00    -0.305 N 
ATOM     15  C   UNL     1      10.220   6.207   3.203  0.00  0.00    +0.244 C 
ATOM     25  H   UNL     1      11.415   5.323   4.680  0.00  0.00    +0.149 HD
BRANCH  15  17
ATOM     17  C   UNL     1      10.858   5.383   2.145  0.00  0.00    +0.038 A 
ATOM     19  C   UNL     1      12.147   4.884   2.331  0.00  0.00    +0.032 A 
ATOM     20  C   UNL     1      10.166   5.107   0.965  0.00  0.00    +0.013 A 
ATOM     21  C   UNL     1      12.745   4.109   1.337  0.00  0.00    +0.052 A 
ATOM     22  C   UNL     1      10.765   4.332  -0.030  0.00  0.00    +0.002 A 
ATOM     23  C   UNL     1      12.054   3.833   0.157  0.00  0.00    +0.019 A 
BRANCH  21  24
ATOM      6  N   UNL     1      15.138   3.181   1.683  0.00  0.00    -0.191 NA
ATOM     24  C   UNL     1      14.066   3.597   1.528  0.00  0.00    +0.099 C 
ENDBRANCH  21  24
ENDBRANCH  15  17
ENDBRANCH   8   4
BRANCH   9   1
ATOM      1  O   UNL     1       7.746   6.314   5.439  0.00  0.00    -0.387 OA
ATOM     26  H   UNL     1       7.497   7.235   5.628  0.00  0.00    +0.210 HD
ENDBRANCH   9   1
BRANCH  11   2
ATOM      2  O   UNL     1       8.326   7.936   7.577  0.00  0.00    -0.389 OA
ATOM     27  H   UNL     1       7.483   7.955   8.061  0.00  0.00    +0.210 HD
ENDBRANCH  11   2
TORSDOF 6
ENDMDL
MODEL 7
REMARK VINA RESULT:      -5.9     27.456     28.608
REMARK  Name = 75536081
REMARK  6 active torsions:
REMARK  status: ('A' for Active; 'I' for Inactive)
REMARK    1  A    between atoms: O_1  and  C_9
REMARK    2  A    between atoms: O_2  and  C_11
REMARK    3  A    between atoms: N_4  and  C_8
REMARK    4  A    between atoms: C_7  and  C_12
REMARK    5  A    between atoms: C_15  and  C_17
REMARK    6  A    between atoms: C_21  and  C_24
REMARK                            x       y       z     vdW  Elec       q    Type
REMARK                         _______ _______ _______ _____ _____    ______ ____
ROOT
ATOM      7  C   UNL     1      -4.418 -11.775  12.454  0.00  0.00    +0.046 C 
ATOM      8  C   UNL     1      -3.733 -11.523  13.816  0.00  0.00    +0.112 C 
ATOM      9  C   UNL     1      -2.991 -12.831  14.086  0.00  0.00    +0.164 C 
ATOM     10  C   UNL     1      -3.596 -12.896  11.767  0.00  0.00    +0.044 C 
ATOM     11  C   UNL     1      -2.441 -13.207  12.716  0.00  0.00    +0.145 C 
ENDROOT
BRANCH   7  12
ATOM      5  N   UNL     1      -5.868  -8.553  11.073  0.00  0.00    -0.263 NA
ATOM     12  C   UNL     1      -4.571 -10.517  11.627  0.00  0.00    -0.024 A 
ATOM     13  C   UNL     1      -3.612 -10.155  10.688  0.00  0.00    +0.007 A 
ATOM     14  C   UNL     1      -5.671  -9.689  11.780  0.00  0.00    +0.114 A 
ATOM     16  C   UNL     1      -3.778  -8.994   9.941  0.00  0.00    +0.020 A 
ATOM     18  C   UNL     1      -4.915  -8.234  10.170  0.00  0.00    +0.111 A 
ENDBRANCH   7  12
BRANCH   8   4
ATOM      3  O   UNL     1      -3.172 -10.319  16.362  0.00  0.00    -0.270 OA
ATOM      4  N   UNL     1      -4.686 -11.221  14.854  0.00  0.00    -0.305 N 
ATOM     15  C   UNL     1      -4.318 -10.635  16.058  0.00  0.00    +0.244 C 
ATOM     25  H   UNL     1      -5.651 -11.478  14.679  0.00  0.00    +0.149 HD
BRANCH  15  17
ATOM     17  C   UNL     1      -5.415 -10.413  17.035  0.00  0.00    +0.038 A 
ATOM     19  C   UNL     1      -6.557  -9.709  16.653  0.00  0.00    +0.032 A 
ATOM     20  C   UNL     1      -5.303 -10.909  18.334  0.00  0.00    +0.013 A 
ATOM     21  C   UNL     1      -7.587  -9.501  17.571  0.00  0.00    +0.052 A 
ATOM     22  C   UNL     1      -6.334 -10.701  19.252  0.00  0.00    +0.002 A 
ATOM     23  C   UNL     1      -7.475  -9.997  18.869  0.00  0.00    +0.019 A 
BRANCH  21  24
ATOM      6  N   UNL     1      -9.710  -8.197  16.862  0.00  0.00    -0.191 NA
ATOM     24  C   UNL     1      -8.759  -8.781  17.179  0.00  0.00    +0.099 C 
ENDBRANCH  21  24
ENDBRANCH  15  17
ENDBRANCH   8   4
BRANCH   9   1
ATOM      1  O   UNL     1      -1.948 -12.671  15.030  0.00  0.00    -0.387 OA
ATOM     26  H   UNL     1      -2.285 -12.969  15.892  0.00  0.00    +0.210 HD
ENDBRANCH   9   1
BRANCH  11   2
ATOM      2  O   UNL     1      -1.330 -12.387  12.370  0.00  0.00    -0.389 OA
ATOM     27  H   UNL     1      -1.156 -12.517  11.422  0.00  0.00    +0.210 HD
ENDBRANCH  11   2
TORSDOF 6
ENDMDL
MODEL 8
REMARK VINA RESULT:      -5.9      2.003      2.792
REMARK  Name = 75536081
REMARK  6 active torsions:
REMARK  status: ('A' for Active; 'I' for Inactive)
REMARK    1  A    between atoms: O_1  and  C_9
REMARK    2  A    between atoms: O_2  and  C_11
REMARK    3  A    between atoms: N_4  and  C_8
REMARK    4  A    between atoms: C_7  and  C_12
REMARK    5  A    between atoms: C_15  and  C_17
REMARK    6  A    between atoms: C_21  and  C_24
REMARK                            x       y       z     vdW  Elec       q    Type
REMARK                         _______ _______ _______ _____ _____    ______ ____
ROOT
ATOM      7  C   UNL     1      12.817   8.235  20.128  0.00  0.00    +0.046 C 
ATOM      8  C   UNL     1      13.910   8.723  19.148  0.00  0.00    +0.112 C 
ATOM      9  C   UNL     1      13.737   7.806  17.939  0.00  0.00    +0.164 C 
ATOM     10  C   UNL     1      11.750   7.529  19.252  0.00  0.00    +0.044 C 
ATOM     11  C   UNL     1      12.224   7.685  17.809  0.00  0.00    +0.145 C 
ENDROOT
BRANCH   7  12
ATOM      5  N   UNL     1      11.134   9.994  23.036  0.00  0.00    -0.263 NA
ATOM     12  C   UNL     1      12.273   9.340  21.006  0.00  0.00    -0.024 A 
ATOM     13  C   UNL     1      12.389  10.675  20.634  0.00  0.00    +0.007 A 
ATOM     14  C   UNL     1      11.643   9.055  22.207  0.00  0.00    +0.114 A 
ATOM     16  C   UNL     1      11.879  11.670  21.460  0.00  0.00    +0.020 A 
ATOM     18  C   UNL     1      11.266  11.280  22.641  0.00  0.00    +0.111 A 
ENDBRANCH   7  12
BRANCH   8   4
ATOM      3  O   UNL     1      15.391   6.309  19.620  0.00  0.00    -0.270 OA
ATOM      4  N   UNL     1      15.230   8.621  19.716  0.00  0.00    -0.305 N 
ATOM     15  C   UNL     1      15.869   7.403  19.907  0.00  0.00    +0.244 C 
ATOM     25  H   UNL     1      15.676   9.487  19.998  0.00  0.00    +0.149 HD
BRANCH  15  17
ATOM     17  C   UNL     1      17.217   7.466  20.528  0.00  0.00    +0.038 A 
ATOM     19  C   UNL     1      18.138   6.442  20.303  0.00  0.00    +0.032 A 
ATOM     20  C   UNL     1      17.562   8.550  21.336  0.00  0.00    +0.013 A 
ATOM     21  C   UNL     1      19.403   6.502  20.887  0.00  0.00    +0.052 A 
ATOM     22  C   UNL     1      18.829   8.610  21.919  0.00  0.00    +0.002 A 
ATOM     23  C   UNL     1      19.749   7.586  21.694  0.00  0.00    +0.019 A 
BRANCH  21  24
ATOM      6  N   UNL     1      21.114   4.603  20.468  0.00  0.00    -0.191 NA
ATOM     24  C   UNL     1      20.348   5.454  20.656  0.00  0.00    +0.099 C 
ENDBRANCH  21  24
ENDBRANCH  15  17
ENDBRANCH   8   4
BRANCH   9   1
ATOM      1  O   UNL     1      14.309   8.353  16.765  0.00  0.00    -0.387 OA
ATOM     26  H   UNL     1      14.865   7.664  16.362  0.00  0.00    +0.210 HD
ENDBRANCH   9   1
BRANCH  11   2
ATOM      2  O   UNL     1      11.661   8.876  17.269  0.00  0.00    -0.389 OA
ATOM     27  H   UNL     1      12.356   9.557  17.280  0.00  0.00    +0.210 HD
ENDBRANCH  11   2
TORSDOF 6
ENDMDL
MODEL 9
REMARK VINA RESULT:      -5.8     26.782     28.479
REMARK  Name = 75536081
REMARK  6 active torsions:
REMARK  status: ('A' for Active; 'I' for Inactive)
REMARK    1  A    between atoms: O_1  and  C_9
REMARK    2  A    between atoms: O_2  and  C_11
REMARK    3  A    between atoms: N_4  and  C_8
REMARK    4  A    between atoms: C_7  and  C_12
REMARK    5  A    between atoms: C_15  and  C_17
REMARK    6  A    between atoms: C_21  and  C_24
REMARK                            x       y       z     vdW  Elec       q    Type
REMARK                         _______ _______ _______ _____ _____    ______ ____
ROOT
ATOM      7  C   UNL     1      -6.031 -10.128  17.200  0.00  0.00    +0.046 C 
ATOM      8  C   UNL     1      -5.387 -11.267  16.377  0.00  0.00    +0.112 C 
ATOM      9  C   UNL     1      -4.479 -11.966  17.388  0.00  0.00    +0.164 C 
ATOM     10  C   UNL     1      -5.944 -10.576  18.682  0.00  0.00    +0.044 C 
ATOM     11  C   UNL     1      -5.317 -11.968  18.661  0.00  0.00    +0.145 C 
ENDROOT
BRANCH   7  12
ATOM      5  N   UNL     1      -9.206 -10.081  15.125  0.00  0.00    -0.263 NA
ATOM     12  C   UNL     1      -7.428  -9.778  16.734  0.00  0.00    -0.024 A 
ATOM     13  C   UNL     1      -8.211  -8.870  17.438  0.00  0.00    +0.007 A 
ATOM     14  C   UNL     1      -7.967 -10.351  15.594  0.00  0.00    +0.114 A 
ATOM     16  C   UNL     1      -9.491  -8.566  16.987  0.00  0.00    +0.020 A 
ATOM     18  C   UNL     1      -9.938  -9.194  15.835  0.00  0.00    +0.111 A 
ENDBRANCH   7  12
BRANCH   8   4
ATOM      3  O   UNL     1      -4.764 -12.695  13.965  0.00  0.00    -0.270 OA
ATOM      4  N   UNL     1      -4.646 -10.766  15.247  0.00  0.00    -0.305 N 
ATOM     15  C   UNL     1      -4.394 -11.535  14.118  0.00  0.00    +0.244 C 
ATOM     25  H   UNL     1      -4.290  -9.819  15.315  0.00  0.00    +0.149 HD
BRANCH  15  17
ATOM     17  C   UNL     1      -3.594 -10.881  13.051  0.00  0.00    +0.038 A 
ATOM     19  C   UNL     1      -4.215 -10.447  11.880  0.00  0.00    +0.032 A 
ATOM     20  C   UNL     1      -2.221 -10.700  13.221  0.00  0.00    +0.013 A 
ATOM     21  C   UNL     1      -3.463  -9.833  10.878  0.00  0.00    +0.052 A 
ATOM     22  C   UNL     1      -1.469 -10.085  12.219  0.00  0.00    +0.002 A 
ATOM     23  C   UNL     1      -2.090  -9.652  11.048  0.00  0.00    +0.019 A 
BRANCH  21  24
ATOM      6  N   UNL     1      -4.616  -9.026   8.704  0.00  0.00    -0.191 NA
ATOM     24  C   UNL     1      -4.099  -9.387   9.678  0.00  0.00    +0.099 C 
ENDBRANCH  21  24
ENDBRANCH  15  17
ENDBRANCH   8   4
BRANCH   9   1
ATOM      1  O   UNL     1      -4.149 -13.284  16.991  0.00  0.00    -0.387 OA
ATOM     26  H   UNL     1      -3.934 -13.786  17.795  0.00  0.00    +0.210 HD
ENDBRANCH   9   1
BRANCH  11   2
ATOM      2  O   UNL     1      -6.357 -12.938  18.585  0.00  0.00    -0.389 OA
ATOM     27  H   UNL     1      -6.662 -13.110  19.493  0.00  0.00    +0.210 HD
ENDBRANCH  11   2
TORSDOF 6
ENDMDL
MODEL 10
REMARK VINA RESULT:      -5.7     15.006     16.480
REMARK  Name = 75536081
REMARK  6 active torsions:
REMARK  status: ('A' for Active; 'I' for Inactive)
REMARK    1  A    between atoms: O_1  and  C_9
REMARK    2  A    between atoms: O_2  and  C_11
REMARK    3  A    between atoms: N_4  and  C_8
REMARK    4  A    between atoms: C_7  and  C_12
REMARK    5  A    between atoms: C_15  and  C_17
REMARK    6  A    between atoms: C_21  and  C_24
REMARK                            x       y       z     vdW  Elec       q    Type
REMARK                         _______ _______ _______ _____ _____    ______ ____
ROOT
ATOM      7  C   UNL     1      10.351   6.198   4.897  0.00  0.00    +0.046 C 
ATOM      8  C   UNL     1      11.440   6.183   5.994  0.00  0.00    +0.112 C 
ATOM      9  C   UNL     1      10.645   5.970   7.281  0.00  0.00    +0.164 C 
ATOM     10  C   UNL     1       9.141   5.431   5.492  0.00  0.00    +0.044 C 
ATOM     11  C   UNL     1       9.589   4.951   6.871  0.00  0.00    +0.145 C 
ENDROOT
BRANCH   7  12
ATOM      5  N   UNL     1      11.661   6.100   1.339  0.00  0.00    -0.263 NA
ATOM     12  C   UNL     1      10.839   5.661   3.569  0.00  0.00    -0.024 A 
ATOM     13  C   UNL     1      10.922   4.292   3.337  0.00  0.00    +0.007 A 
ATOM     14  C   UNL     1      11.217   6.515   2.547  0.00  0.00    +0.114 A 
ATOM     16  C   UNL     1      11.374   3.826   2.108  0.00  0.00    +0.020 A 
ATOM     18  C   UNL     1      11.728   4.763   1.150  0.00  0.00    +0.111 A 
ENDBRANCH   7  12
BRANCH   8   4
ATOM      3  O   UNL     1      14.070   6.554   7.085  0.00  0.00    -0.270 OA
ATOM      4  N   UNL     1      12.194   7.411   6.024  0.00  0.00    -0.305 N 
ATOM     15  C   UNL     1      13.466   7.493   6.576  0.00  0.00    +0.244 C 
ATOM     25  H   UNL     1      11.744   8.235   5.641  0.00  0.00    +0.149 HD
BRANCH  15  17
ATOM     17  C   UNL     1      14.099   8.837   6.554  0.00  0.00    +0.038 A 
ATOM     19  C   UNL     1      15.453   8.965   6.244  0.00  0.00    +0.032 A 
ATOM     20  C   UNL     1      13.338   9.970   6.842  0.00  0.00    +0.013 A 
ATOM     21  C   UNL     1      16.046  10.228   6.223  0.00  0.00    +0.052 A 
ATOM     22  C   UNL     1      13.933  11.233   6.821  0.00  0.00    +0.002 A 
ATOM     23  C   UNL     1      15.286  11.361   6.511  0.00  0.00    +0.019 A 
BRANCH  21  24
ATOM      6  N   UNL     1      18.559  10.467   5.644  0.00  0.00    -0.191 NA
ATOM     24  C   UNL     1      17.434  10.360   5.903  0.00  0.00    +0.099 C 
ENDBRANCH  21  24
ENDBRANCH  15  17
ENDBRANCH   8   4
BRANCH   9   1
ATOM      1  O   UNL     1      11.452   5.475   8.334  0.00  0.00    -0.387 OA
ATOM     26  H   UNL     1      11.056   4.640   8.637  0.00  0.00    +0.210 HD
ENDBRANCH   9   1
BRANCH  11   2
ATOM      2  O   UNL     1      10.158   3.652   6.741  0.00  0.00    -0.389 OA
ATOM     27  H   UNL     1       9.451   3.006   6.914  0.00  0.00    +0.210 HD
ENDBRANCH  11   2
TORSDOF 6
ENDMDL
