REMARK  Name = 75536254
REMARK  8 active torsions:
REMARK  status: ('A' for Active; 'I' for Inactive)
REMARK    1  A    between atoms: O_3  and  C_12
REMARK    2  A    between atoms: N_5  and  C_11
REMARK    3  A    between atoms: N_5  and  C_18
REMARK    4  A    between atoms: C_7  and  C_11
REMARK    5  A    between atoms: C_10  and  C_18
REMARK    6  A    between atoms: C_16  and  C_20
REMARK    7  A    between atoms: C_20  and  C_21
REMARK    8  A    between atoms: C_23  and  C_24
REMARK                            x       y       z     vdW  Elec       q    Type
REMARK                         _______ _______ _______ _____ _____    ______ ____
ROOT
ATOM      2  O   UNL     1       3.378  -0.584   0.708  0.00  0.00    -0.369 OA
ATOM     10  C   UNL     1       4.163   0.551   0.321  0.00  0.00    +0.161 C 
ATOM     12  C   UNL     1       5.463   0.122  -0.370  0.00  0.00    +0.145 C 
ATOM     16  C   UNL     1       3.062  -1.494  -0.348  0.00  0.00    +0.125 C 
ATOM     17  C   UNL     1       5.223  -0.898  -1.480  0.00  0.00    +0.036 C 
ATOM     19  C   UNL     1       4.337  -2.039  -0.990  0.00  0.00    +0.034 C 
ENDROOT
BRANCH  12   3
ATOM      3  O   UNL     1       6.322  -0.484   0.600  0.00  0.00    -0.389 OA
ATOM     31  H   UNL     1       7.158  -0.706   0.155  0.00  0.00    +0.210 HD
ENDBRANCH  12   3
BRANCH  10  18
ATOM     18  C   UNL     1       3.339   1.530  -0.513  0.00  0.00    +0.115 C 
BRANCH  18   5
ATOM      5  N   UNL     1       2.131   1.925   0.193  0.00  0.00    -0.313 NA
ATOM     30  H   UNL     1       2.374   2.357   1.084  0.00  0.00    +0.122 HD
BRANCH   5  11
ATOM     11  C   UNL     1       1.338   2.852  -0.605  0.00  0.00    +0.084 C 
BRANCH  11   7
ATOM      7  C   UNL     1       0.061   3.258   0.128  0.00  0.00    +0.003 C 
ATOM      8  C   UNL     1      -0.777   4.214  -0.733  0.00  0.00    +0.005 C 
ATOM      9  C   UNL     1      -0.755   2.020   0.522  0.00  0.00    +0.005 C 
ATOM     13  C   UNL     1      -2.085   4.593  -0.044  0.00  0.00    +0.000 C 
ATOM     14  C   UNL     1      -2.064   2.403   1.209  0.00  0.00    +0.000 C 
ATOM     15  C   UNL     1      -2.890   3.360   0.355  0.00  0.00    +0.000 C 
ENDBRANCH  11   7
ENDBRANCH   5  11
ENDBRANCH  18   5
ENDBRANCH  10  18
BRANCH  16  20
ATOM     20  C   UNL     1       2.231  -2.622   0.251  0.00  0.00    +0.090 C 
BRANCH  20  21
ATOM      4  O   UNL     1      -0.922  -1.396   1.497  0.00  0.00    -0.354 OA
ATOM      6  N   UNL     1       0.437  -1.654   1.631  0.00  0.00    -0.083 NA
ATOM     21  C   UNL     1       0.801  -2.205   0.470  0.00  0.00    +0.087 A 
ATOM     22  C   UNL     1      -0.276  -2.320  -0.427  0.00  0.00    +0.076 A 
ATOM     23  C   UNL     1      -1.334  -1.797   0.267  0.00  0.00    +0.167 A 
BRANCH  23  24
ATOM      1  F   UNL     1      -6.726  -0.995  -0.847  0.00  0.00    -0.205 F 
ATOM     24  C   UNL     1      -2.724  -1.591  -0.020  0.00  0.00    +0.020 A 
ATOM     25  C   UNL     1      -3.138  -1.356  -1.331  0.00  0.00    +0.014 A 
ATOM     26  C   UNL     1      -3.662  -1.626   1.012  0.00  0.00    +0.014 A 
ATOM     27  C   UNL     1      -4.490  -1.155  -1.611  0.00  0.00    +0.039 A 
ATOM     28  C   UNL     1      -5.014  -1.424   0.733  0.00  0.00    +0.039 A 
ATOM     29  C   UNL     1      -5.428  -1.189  -0.579  0.00  0.00    +0.123 A 
ENDBRANCH  23  24
ENDBRANCH  20  21
ENDBRANCH  16  20
TORSDOF 8
