MODEL 1
REMARK VINA RESULT:      -8.2      0.000      0.000
REMARK  Name = 11887353
REMARK  3 active torsions:
REMARK  status: ('A' for Active; 'I' for Inactive)
REMARK    1  A    between atoms: N_7  and  C_18
REMARK    2  A    between atoms: C_17  and  C_20
REMARK    3  A    between atoms: C_23  and  C_27
REMARK                            x       y       z     vdW  Elec       q    Type
REMARK                         _______ _______ _______ _____ _____    ______ ____
ROOT
ATOM      2  O   UNL     1      15.489   6.218  21.269  0.00  0.00    -0.266 OA
ATOM      3  O   UNL     1      11.747   7.161  17.823  0.00  0.00    -0.270 OA
ATOM      5  N   UNL     1      11.685   8.866  19.423  0.00  0.00    -0.297 N 
ATOM      6  N   UNL     1      14.158   8.138  21.271  0.00  0.00    -0.310 N 
ATOM      8  C   UNL     1      11.650   8.083  21.785  0.00  0.00    +0.027 C 
ATOM      9  C   UNL     1      12.737  10.218  21.221  0.00  0.00    +0.054 C 
ATOM     10  C   UNL     1      11.858   9.517  22.256  0.00  0.00    +0.018 C 
ATOM     11  C   UNL     1      10.959   8.065  20.409  0.00  0.00    +0.113 C 
ATOM     12  C   UNL     1      13.006   7.368  21.760  0.00  0.00    +0.130 C 
ATOM     13  C   UNL     1      12.017  10.233  19.857  0.00  0.00    +0.117 C 
ATOM     14  C   UNL     1      14.078   9.522  21.083  0.00  0.00    +0.027 A 
ATOM     15  C   UNL     1      15.172  10.224  20.746  0.00  0.00    +0.024 A 
ATOM     16  C   UNL     1      15.366   7.432  21.099  0.00  0.00    +0.273 A 
ATOM     17  C   UNL     1      12.022   8.301  18.191  0.00  0.00    +0.247 C 
ATOM     18  C   UNL     1      16.556   8.247  20.697  0.00  0.00    +0.099 A 
ATOM     19  C   UNL     1      16.436   9.570  20.549  0.00  0.00    +0.030 A 
ENDROOT
BRANCH  17  20
ATOM      1  F   UNL     1      14.940  11.427  14.590  0.00  0.00    -0.205 F 
ATOM     20  C   UNL     1      12.788   9.120  17.246  0.00  0.00    +0.037 A 
ATOM     21  C   UNL     1      12.203   9.526  16.048  0.00  0.00    +0.016 A 
ATOM     22  C   UNL     1      14.095   9.489  17.550  0.00  0.00    +0.016 A 
ATOM     24  C   UNL     1      12.931  10.307  15.150  0.00  0.00    +0.039 A 
ATOM     25  C   UNL     1      14.823  10.270  16.652  0.00  0.00    +0.039 A 
ATOM     26  C   UNL     1      14.240  10.679  15.452  0.00  0.00    +0.123 A 
ENDBRANCH  17  20
BRANCH  18   7
ATOM      4  O   UNL     1      18.886   8.467  22.330  0.00  0.00    -0.270 OA
ATOM      7  N   UNL     1      17.740   7.597  20.502  0.00  0.00    -0.277 N 
ATOM     23  C   UNL     1      18.840   7.747  21.335  0.00  0.00    +0.248 C 
ATOM     33  H   UNL     1      17.821   7.105  19.619  0.00  0.00    +0.155 HD
BRANCH  23  27
ATOM     27  C   UNL     1      20.035   6.941  20.976  0.00  0.00    +0.037 A 
ATOM     28  C   UNL     1      21.246   7.581  20.811  0.00  0.00    +0.013 A 
ATOM     29  C   UNL     1      19.895   5.577  20.820  0.00  0.00    +0.013 A 
ATOM     30  C   UNL     1      22.368   6.823  20.474  0.00  0.00    +0.001 A 
ATOM     31  C   UNL     1      21.017   4.820  20.482  0.00  0.00    +0.001 A 
ATOM     32  C   UNL     1      22.253   5.443  20.310  0.00  0.00    +0.000 A 
ENDBRANCH  23  27
ENDBRANCH  18   7
TORSDOF 3
ENDMDL
MODEL 2
REMARK VINA RESULT:      -7.9      3.020      7.121
REMARK  Name = 11887353
REMARK  3 active torsions:
REMARK  status: ('A' for Active; 'I' for Inactive)
REMARK    1  A    between atoms: N_7  and  C_18
REMARK    2  A    between atoms: C_17  and  C_20
REMARK    3  A    between atoms: C_23  and  C_27
REMARK                            x       y       z     vdW  Elec       q    Type
REMARK                         _______ _______ _______ _____ _____    ______ ____
ROOT
ATOM      2  O   UNL     1      13.660  11.784  18.093  0.00  0.00    -0.266 OA
ATOM      3  O   UNL     1      15.582   9.324  22.218  0.00  0.00    -0.270 OA
ATOM      5  N   UNL     1      13.720   8.118  21.476  0.00  0.00    -0.297 N 
ATOM      6  N   UNL     1      12.873   9.730  18.878  0.00  0.00    -0.310 N 
ATOM      8  C   UNL     1      11.666   9.477  21.123  0.00  0.00    +0.027 C 
ATOM      9  C   UNL     1      12.075   7.494  19.723  0.00  0.00    +0.054 C 
ATOM     10  C   UNL     1      10.993   8.278  20.466  0.00  0.00    +0.018 C 
ATOM     11  C   UNL     1      12.751   9.010  22.111  0.00  0.00    +0.113 C 
ATOM     12  C   UNL     1      12.235  10.387  20.027  0.00  0.00    +0.130 C 
ATOM     13  C   UNL     1      13.132   6.994  20.728  0.00  0.00    +0.117 C 
ATOM     14  C   UNL     1      12.741   8.354  18.665  0.00  0.00    +0.027 A 
ATOM     15  C   UNL     1      13.233   7.792  17.549  0.00  0.00    +0.024 A 
ATOM     16  C   UNL     1      13.534  10.567  17.957  0.00  0.00    +0.273 A 
ATOM     17  C   UNL     1      15.086   8.388  21.595  0.00  0.00    +0.247 C 
ATOM     18  C   UNL     1      14.093   9.897  16.739  0.00  0.00    +0.099 A 
ATOM     19  C   UNL     1      13.924   8.582  16.569  0.00  0.00    +0.030 A 
ENDROOT
BRANCH  17  20
ATOM      1  F   UNL     1      18.666   4.986  18.976  0.00  0.00    -0.205 F 
ATOM     20  C   UNL     1      16.025   7.497  20.908  0.00  0.00    +0.037 A 
ATOM     21  C   UNL     1      17.228   7.152  21.520  0.00  0.00    +0.016 A 
ATOM     22  C   UNL     1      15.711   6.998  19.646  0.00  0.00    +0.016 A 
ATOM     24  C   UNL     1      18.121   6.302  20.867  0.00  0.00    +0.039 A 
ATOM     25  C   UNL     1      16.604   6.148  18.993  0.00  0.00    +0.039 A 
ATOM     26  C   UNL     1      17.809   5.801  19.604  0.00  0.00    +0.123 A 
ENDBRANCH  17  20
BRANCH  18   7
ATOM      4  O   UNL     1      12.997  10.997  14.344  0.00  0.00    -0.270 OA
ATOM      7  N   UNL     1      14.755  10.669  15.831  0.00  0.00    -0.277 N 
ATOM     23  C   UNL     1      14.165  11.176  14.682  0.00  0.00    +0.248 C 
ATOM     33  H   UNL     1      15.758  10.731  15.970  0.00  0.00    +0.155 HD
BRANCH  23  27
ATOM     27  C   UNL     1      15.040  12.016  13.824  0.00  0.00    +0.037 A 
ATOM     28  C   UNL     1      14.457  12.909  12.949  0.00  0.00    +0.013 A 
ATOM     29  C   UNL     1      16.408  11.876  13.930  0.00  0.00    +0.013 A 
ATOM     30  C   UNL     1      15.279  13.698  12.144  0.00  0.00    +0.001 A 
ATOM     31  C   UNL     1      17.230  12.664  13.124  0.00  0.00    +0.001 A 
ATOM     32  C   UNL     1      16.666  13.575  12.232  0.00  0.00    +0.000 A 
ENDBRANCH  23  27
ENDBRANCH  18   7
TORSDOF 3
ENDMDL
MODEL 3
REMARK VINA RESULT:      -7.9      2.421      3.403
REMARK  Name = 11887353
REMARK  3 active torsions:
REMARK  status: ('A' for Active; 'I' for Inactive)
REMARK    1  A    between atoms: N_7  and  C_18
REMARK    2  A    between atoms: C_17  and  C_20
REMARK    3  A    between atoms: C_23  and  C_27
REMARK                            x       y       z     vdW  Elec       q    Type
REMARK                         _______ _______ _______ _____ _____    ______ ____
ROOT
ATOM      2  O   UNL     1      15.794   6.182  19.014  0.00  0.00    -0.266 OA
ATOM      3  O   UNL     1      14.974  10.749  16.726  0.00  0.00    -0.270 OA
ATOM      5  N   UNL     1      13.247  10.406  18.266  0.00  0.00    -0.297 N 
ATOM      6  N   UNL     1      14.095   7.666  19.620  0.00  0.00    -0.310 N 
ATOM      8  C   UNL     1      12.111   8.199  18.090  0.00  0.00    +0.027 C 
ATOM      9  C   UNL     1      12.299   9.305  20.280  0.00  0.00    +0.054 C 
ATOM     10  C   UNL     1      11.367   8.485  19.389  0.00  0.00    +0.018 C 
ATOM     11  C   UNL     1      12.491   9.514  17.386  0.00  0.00    +0.113 C 
ATOM     12  C   UNL     1      13.340   7.336  18.403  0.00  0.00    +0.130 C 
ATOM     13  C   UNL     1      12.636  10.640  19.585  0.00  0.00    +0.117 C 
ATOM     14  C   UNL     1      13.578   8.545  20.577  0.00  0.00    +0.027 A 
ATOM     15  C   UNL     1      14.229   8.745  21.735  0.00  0.00    +0.024 A 
ATOM     16  C   UNL     1      15.309   6.978  19.819  0.00  0.00    +0.273 A 
ATOM     17  C   UNL     1      14.460  10.941  17.826  0.00  0.00    +0.247 C 
ATOM     18  C   UNL     1      16.018   7.249  21.110  0.00  0.00    +0.099 A 
ATOM     19  C   UNL     1      15.475   8.082  22.003  0.00  0.00    +0.030 A 
ENDROOT
BRANCH  17  20
ATOM      1  F   UNL     1      17.325  14.194  21.356  0.00  0.00    -0.205 F 
ATOM     20  C   UNL     1      15.210  11.794  18.752  0.00  0.00    +0.037 A 
ATOM     21  C   UNL     1      16.091  11.218  19.666  0.00  0.00    +0.016 A 
ATOM     22  C   UNL     1      15.040  13.175  18.715  0.00  0.00    +0.016 A 
ATOM     24  C   UNL     1      16.807  12.030  20.546  0.00  0.00    +0.039 A 
ATOM     25  C   UNL     1      15.756  13.987  19.595  0.00  0.00    +0.039 A 
ATOM     26  C   UNL     1      16.639  13.414  20.511  0.00  0.00    +0.123 A 
ENDBRANCH  17  20
BRANCH  18   7
ATOM      4  O   UNL     1      18.610   8.434  20.965  0.00  0.00    -0.270 OA
ATOM      7  N   UNL     1      17.206   6.616  21.333  0.00  0.00    -0.277 N 
ATOM     23  C   UNL     1      18.437   7.250  21.246  0.00  0.00    +0.248 C 
ATOM     33  H   UNL     1      17.146   5.608  21.422  0.00  0.00    +0.155 HD
BRANCH  23  27
ATOM     27  C   UNL     1      19.620   6.402  21.545  0.00  0.00    +0.037 A 
ATOM     28  C   UNL     1      20.285   6.582  22.740  0.00  0.00    +0.013 A 
ATOM     29  C   UNL     1      20.017   5.462  20.617  0.00  0.00    +0.013 A 
ATOM     30  C   UNL     1      21.395   5.786  23.020  0.00  0.00    +0.001 A 
ATOM     31  C   UNL     1      21.128   4.666  20.897  0.00  0.00    +0.001 A 
ATOM     32  C   UNL     1      21.817   4.828  22.098  0.00  0.00    +0.000 A 
ENDBRANCH  23  27
ENDBRANCH  18   7
TORSDOF 3
ENDMDL
MODEL 4
REMARK VINA RESULT:      -7.6     28.231     30.435
REMARK  Name = 11887353
REMARK  3 active torsions:
REMARK  status: ('A' for Active; 'I' for Inactive)
REMARK    1  A    between atoms: N_7  and  C_18
REMARK    2  A    between atoms: C_17  and  C_20
REMARK    3  A    between atoms: C_23  and  C_27
REMARK                            x       y       z     vdW  Elec       q    Type
REMARK                         _______ _______ _______ _____ _____    ______ ____
ROOT
ATOM      2  O   UNL     1      -6.355 -12.729  14.867  0.00  0.00    -0.266 OA
ATOM      3  O   UNL     1     -11.304 -11.962  16.165  0.00  0.00    -0.270 OA
ATOM      5  N   UNL     1     -10.014 -11.706  18.100  0.00  0.00    -0.297 N 
ATOM      6  N   UNL     1      -7.064 -12.047  16.985  0.00  0.00    -0.310 N 
ATOM      8  C   UNL     1      -8.418 -13.561  18.547  0.00  0.00    +0.027 C 
ATOM      9  C   UNL     1      -7.856 -11.270  19.248  0.00  0.00    +0.054 C 
ATOM     10  C   UNL     1      -7.784 -12.739  19.663  0.00  0.00    +0.018 C 
ATOM     11  C   UNL     1      -9.884 -13.144  18.337  0.00  0.00    +0.113 C 
ATOM     12  C   UNL     1      -7.581 -13.393  17.272  0.00  0.00    +0.130 C 
ATOM     13  C   UNL     1      -9.331 -10.850  19.084  0.00  0.00    +0.117 C 
ATOM     14  C   UNL     1      -7.110 -11.033  17.948  0.00  0.00    +0.027 A 
ATOM     15  C   UNL     1      -6.529  -9.846  17.709  0.00  0.00    +0.024 A 
ATOM     16  C   UNL     1      -6.435 -11.862  15.738  0.00  0.00    +0.273 A 
ATOM     17  C   UNL     1     -10.731 -11.253  16.990  0.00  0.00    +0.247 C 
ATOM     18  C   UNL     1      -5.824 -10.516  15.499  0.00  0.00    +0.099 A 
ATOM     19  C   UNL     1      -5.875  -9.585  16.457  0.00  0.00    +0.030 A 
ENDROOT
BRANCH  17  20
ATOM      1  F   UNL     1     -11.001  -5.738  16.113  0.00  0.00    -0.205 F 
ATOM     20  C   UNL     1     -10.802  -9.807  16.761  0.00  0.00    +0.037 A 
ATOM     21  C   UNL     1      -9.750  -9.154  16.122  0.00  0.00    +0.016 A 
ATOM     22  C   UNL     1     -11.920  -9.092  17.182  0.00  0.00    +0.016 A 
ATOM     24  C   UNL     1      -9.817  -7.778  15.903  0.00  0.00    +0.039 A 
ATOM     25  C   UNL     1     -11.988  -7.716  16.962  0.00  0.00    +0.039 A 
ATOM     26  C   UNL     1     -10.936  -7.059  16.323  0.00  0.00    +0.123 A 
ENDBRANCH  17  20
BRANCH  18   7
ATOM      4  O   UNL     1      -7.090  -9.527  13.139  0.00  0.00    -0.270 OA
ATOM      7  N   UNL     1      -5.221 -10.291  14.296  0.00  0.00    -0.277 N 
ATOM     23  C   UNL     1      -5.894  -9.808  13.183  0.00  0.00    +0.248 C 
ATOM     33  H   UNL     1      -4.273 -10.641  14.219  0.00  0.00    +0.155 HD
BRANCH  23  27
ATOM     27  C   UNL     1      -5.064  -9.605  11.967  0.00  0.00    +0.037 A 
ATOM     28  C   UNL     1      -5.532  -8.771  10.972  0.00  0.00    +0.013 A 
ATOM     29  C   UNL     1      -3.852 -10.258  11.871  0.00  0.00    +0.013 A 
ATOM     30  C   UNL     1      -4.752  -8.581   9.831  0.00  0.00    +0.001 A 
ATOM     31  C   UNL     1      -3.073 -10.068  10.730  0.00  0.00    +0.001 A 
ATOM     32  C   UNL     1      -3.523  -9.230   9.710  0.00  0.00    +0.000 A 
ENDBRANCH  23  27
ENDBRANCH  18   7
TORSDOF 3
ENDMDL
MODEL 5
REMARK VINA RESULT:      -7.5     12.350     14.432
REMARK  Name = 11887353
REMARK  3 active torsions:
REMARK  status: ('A' for Active; 'I' for Inactive)
REMARK    1  A    between atoms: N_7  and  C_18
REMARK    2  A    between atoms: C_17  and  C_20
REMARK    3  A    between atoms: C_23  and  C_27
REMARK                            x       y       z     vdW  Elec       q    Type
REMARK                         _______ _______ _______ _____ _____    ______ ____
ROOT
ATOM      2  O   UNL     1      12.696   7.539   3.606  0.00  0.00    -0.266 OA
ATOM      3  O   UNL     1       9.274  11.045   5.268  0.00  0.00    -0.270 OA
ATOM      5  N   UNL     1       8.640   8.967   6.136  0.00  0.00    -0.297 N 
ATOM      6  N   UNL     1      10.977   7.078   5.119  0.00  0.00    -0.310 N 
ATOM      8  C   UNL     1       8.502   7.132   4.461  0.00  0.00    +0.027 C 
ATOM      9  C   UNL     1       9.140   6.622   6.783  0.00  0.00    +0.054 C 
ATOM     10  C   UNL     1       8.325   6.124   5.590  0.00  0.00    +0.018 C 
ATOM     11  C   UNL     1       8.002   8.521   4.898  0.00  0.00    +0.113 C 
ATOM     12  C   UNL     1       9.978   7.155   4.044  0.00  0.00    +0.130 C 
ATOM     13  C   UNL     1       8.602   7.993   7.240  0.00  0.00    +0.117 C 
ATOM     14  C   UNL     1      10.611   6.743   6.426  0.00  0.00    +0.027 A 
ATOM     15  C   UNL     1      11.551   6.565   7.369  0.00  0.00    +0.024 A 
ATOM     16  C   UNL     1      12.324   7.260   4.746  0.00  0.00    +0.273 A 
ATOM     17  C   UNL     1       9.240  10.228   6.186  0.00  0.00    +0.247 C 
ATOM     18  C   UNL     1      13.340   7.080   5.832  0.00  0.00    +0.099 A 
ATOM     19  C   UNL     1      12.943   6.740   7.062  0.00  0.00    +0.030 A 
ENDROOT
BRANCH  17  20
ATOM      1  F   UNL     1      11.791  11.733  10.928  0.00  0.00    -0.205 F 
ATOM     20  C   UNL     1       9.908  10.622   7.430  0.00  0.00    +0.037 A 
ATOM     21  C   UNL     1      11.289  10.482   7.548  0.00  0.00    +0.016 A 
ATOM     22  C   UNL     1       9.160  11.134   8.487  0.00  0.00    +0.016 A 
ATOM     24  C   UNL     1      11.926  10.859   8.731  0.00  0.00    +0.039 A 
ATOM     25  C   UNL     1       9.797  11.510   9.670  0.00  0.00    +0.039 A 
ATOM     26  C   UNL     1      11.180  11.373   9.792  0.00  0.00    +0.123 A 
ENDBRANCH  17  20
BRANCH  18   7
ATOM      4  O   UNL     1      14.875   9.436   6.323  0.00  0.00    -0.270 OA
ATOM      7  N   UNL     1      14.654   7.266   5.516  0.00  0.00    -0.277 N 
ATOM     23  C   UNL     1      15.346   8.438   5.782  0.00  0.00    +0.248 C 
ATOM     33  H   UNL     1      15.062   6.542   4.934  0.00  0.00    +0.155 HD
BRANCH  23  27
ATOM     27  C   UNL     1      16.778   8.446   5.384  0.00  0.00    +0.037 A 
ATOM     28  C   UNL     1      17.113   8.104   4.090  0.00  0.00    +0.013 A 
ATOM     29  C   UNL     1      17.727   8.795   6.322  0.00  0.00    +0.013 A 
ATOM     30  C   UNL     1      18.457   8.112   3.717  0.00  0.00    +0.001 A 
ATOM     31  C   UNL     1      19.072   8.802   5.949  0.00  0.00    +0.001 A 
ATOM     32  C   UNL     1      19.436   8.461   4.647  0.00  0.00    +0.000 A 
ENDBRANCH  23  27
ENDBRANCH  18   7
TORSDOF 3
ENDMDL
MODEL 6
REMARK VINA RESULT:      -7.5     31.350     33.073
REMARK  Name = 11887353
REMARK  3 active torsions:
REMARK  status: ('A' for Active; 'I' for Inactive)
REMARK    1  A    between atoms: N_7  and  C_18
REMARK    2  A    between atoms: C_17  and  C_20
REMARK    3  A    between atoms: C_23  and  C_27
REMARK                            x       y       z     vdW  Elec       q    Type
REMARK                         _______ _______ _______ _____ _____    ______ ____
ROOT
ATOM      2  O   UNL     1     -12.258  -7.524   9.262  0.00  0.00    -0.266 OA
ATOM      3  O   UNL     1     -16.560  -5.026  10.682  0.00  0.00    -0.270 OA
ATOM      5  N   UNL     1     -14.805  -4.227  12.007  0.00  0.00    -0.297 N 
ATOM      6  N   UNL     1     -12.309  -5.778  10.812  0.00  0.00    -0.310 N 
ATOM      8  C   UNL     1     -13.435  -5.991  13.103  0.00  0.00    +0.027 C 
ATOM      9  C   UNL     1     -12.389  -3.862  12.448  0.00  0.00    +0.054 C 
ATOM     10  C   UNL     1     -12.430  -4.931  13.539  0.00  0.00    +0.018 C 
ATOM     11  C   UNL     1     -14.831  -5.368  12.923  0.00  0.00    +0.113 C 
ATOM     12  C   UNL     1     -12.928  -6.654  11.816  0.00  0.00    +0.130 C 
ATOM     13  C   UNL     1     -13.780  -3.213  12.306  0.00  0.00    +0.117 C 
ATOM     14  C   UNL     1     -11.964  -4.457  11.117  0.00  0.00    +0.027 A 
ATOM     15  C   UNL     1     -11.296  -3.708  10.226  0.00  0.00    +0.024 A 
ATOM     16  C   UNL     1     -11.991  -6.362   9.570  0.00  0.00    +0.273 A 
ATOM     17  C   UNL     1     -15.703  -4.183  10.937  0.00  0.00    +0.247 C 
ATOM     18  C   UNL     1     -11.270  -5.485   8.593  0.00  0.00    +0.099 A 
ATOM     19  C   UNL     1     -10.944  -4.236   8.937  0.00  0.00    +0.030 A 
ENDROOT
BRANCH  17  20
ATOM      1  F   UNL     1     -15.378   0.149   7.419  0.00  0.00    -0.205 F 
ATOM     20  C   UNL     1     -15.617  -3.046  10.015  0.00  0.00    +0.037 A 
ATOM     21  C   UNL     1     -14.775  -3.115   8.907  0.00  0.00    +0.016 A 
ATOM     22  C   UNL     1     -16.378  -1.904  10.250  0.00  0.00    +0.016 A 
ATOM     24  C   UNL     1     -14.695  -2.034   8.029  0.00  0.00    +0.039 A 
ATOM     25  C   UNL     1     -16.298  -0.823   9.371  0.00  0.00    +0.039 A 
ATOM     26  C   UNL     1     -15.456  -0.889   8.261  0.00  0.00    +0.123 A 
ENDBRANCH  17  20
BRANCH  18   7
ATOM      4  O   UNL     1      -8.795  -6.704   7.860  0.00  0.00    -0.270 OA
ATOM      7  N   UNL     1     -10.960  -6.008   7.371  0.00  0.00    -0.277 N 
ATOM     23  C   UNL     1      -9.735  -6.589   7.077  0.00  0.00    +0.248 C 
ATOM     33  H   UNL     1     -11.632  -5.814   6.637  0.00  0.00    +0.155 HD
BRANCH  23  27
ATOM     27  C   UNL     1      -9.590  -7.124   5.698  0.00  0.00    +0.037 A 
ATOM     28  C   UNL     1      -8.403  -7.728   5.339  0.00  0.00    +0.013 A 
ATOM     29  C   UNL     1     -10.648  -7.001   4.822  0.00  0.00    +0.013 A 
ATOM     30  C   UNL     1      -8.268  -8.230   4.044  0.00  0.00    +0.001 A 
ATOM     31  C   UNL     1     -10.512  -7.503   3.527  0.00  0.00    +0.001 A 
ATOM     32  C   UNL     1      -9.323  -8.118   3.139  0.00  0.00    +0.000 A 
ENDBRANCH  23  27
ENDBRANCH  18   7
TORSDOF 3
ENDMDL
MODEL 7
REMARK VINA RESULT:      -7.3     21.995     24.721
REMARK  Name = 11887353
REMARK  3 active torsions:
REMARK  status: ('A' for Active; 'I' for Inactive)
REMARK    1  A    between atoms: N_7  and  C_18
REMARK    2  A    between atoms: C_17  and  C_20
REMARK    3  A    between atoms: C_23  and  C_27
REMARK                            x       y       z     vdW  Elec       q    Type
REMARK                         _______ _______ _______ _____ _____    ______ ____
ROOT
ATOM      2  O   UNL     1       9.534  -9.573  32.009  0.00  0.00    -0.266 OA
ATOM      3  O   UNL     1       8.414  -9.189  37.045  0.00  0.00    -0.270 OA
ATOM      5  N   UNL     1       8.063  -7.088  36.076  0.00  0.00    -0.297 N 
ATOM      6  N   UNL     1       8.643  -7.661  33.011  0.00  0.00    -0.310 N 
ATOM      8  C   UNL     1       9.952  -6.243  34.696  0.00  0.00    +0.027 C 
ATOM      9  C   UNL     1       7.641  -5.628  34.113  0.00  0.00    +0.054 C 
ATOM     10  C   UNL     1       9.072  -5.100  34.204  0.00  0.00    +0.018 C 
ATOM     11  C   UNL     1       9.480  -6.727  36.079  0.00  0.00    +0.113 C 
ATOM     12  C   UNL     1       9.932  -7.367  33.652  0.00  0.00    +0.130 C 
ATOM     13  C   UNL     1       7.163  -6.069  35.511  0.00  0.00    +0.117 C 
ATOM     14  C   UNL     1       7.551  -6.798  33.150  0.00  0.00    +0.027 A 
ATOM     15  C   UNL     1       6.419  -7.022  32.464  0.00  0.00    +0.024 A 
ATOM     16  C   UNL     1       8.595  -8.794  32.175  0.00  0.00    +0.273 A 
ATOM     17  C   UNL     1       7.669  -8.334  36.571  0.00  0.00    +0.247 C 
ATOM     18  C   UNL     1       7.305  -9.026  31.449  0.00  0.00    +0.099 A 
ATOM     19  C   UNL     1       6.296  -8.162  31.597  0.00  0.00    +0.030 A 
ENDROOT
BRANCH  17  20
ATOM      1  F   UNL     1       2.238  -9.642  36.343  0.00  0.00    -0.205 F 
ATOM     20  C   UNL     1       6.244  -8.678  36.512  0.00  0.00    +0.037 A 
ATOM     21  C   UNL     1       5.432  -8.459  37.621  0.00  0.00    +0.016 A 
ATOM     22  C   UNL     1       5.711  -9.221  35.346  0.00  0.00    +0.016 A 
ATOM     24  C   UNL     1       4.076  -8.784  37.564  0.00  0.00    +0.039 A 
ATOM     25  C   UNL     1       4.355  -9.547  35.289  0.00  0.00    +0.039 A 
ATOM     26  C   UNL     1       3.538  -9.328  36.398  0.00  0.00    +0.123 A 
ENDBRANCH  17  20
BRANCH  18   7
ATOM      4  O   UNL     1       6.418 -11.622  32.236  0.00  0.00    -0.270 OA
ATOM      7  N   UNL     1       7.212 -10.123  30.644  0.00  0.00    -0.277 N 
ATOM     23  C   UNL     1       6.772 -11.362  31.088  0.00  0.00    +0.248 C 
ATOM     33  H   UNL     1       7.628 -10.018  29.725  0.00  0.00    +0.155 HD
BRANCH  23  27
ATOM     27  C   UNL     1       6.717 -12.432  30.060  0.00  0.00    +0.037 A 
ATOM     28  C   UNL     1       7.738 -12.523  29.136  0.00  0.00    +0.013 A 
ATOM     29  C   UNL     1       5.646 -13.303  30.061  0.00  0.00    +0.013 A 
ATOM     30  C   UNL     1       7.686 -13.530  28.171  0.00  0.00    +0.001 A 
ATOM     31  C   UNL     1       5.594 -14.308  29.096  0.00  0.00    +0.001 A 
ATOM     32  C   UNL     1       6.614 -14.421  28.151  0.00  0.00    +0.000 A 
ENDBRANCH  23  27
ENDBRANCH  18   7
TORSDOF 3
ENDMDL
MODEL 8
REMARK VINA RESULT:      -7.2     13.406     16.731
REMARK  Name = 11887353
REMARK  3 active torsions:
REMARK  status: ('A' for Active; 'I' for Inactive)
REMARK    1  A    between atoms: N_7  and  C_18
REMARK    2  A    between atoms: C_17  and  C_20
REMARK    3  A    between atoms: C_23  and  C_27
REMARK                            x       y       z     vdW  Elec       q    Type
REMARK                         _______ _______ _______ _____ _____    ______ ____
ROOT
ATOM      2  O   UNL     1      18.209  -5.900  28.685  0.00  0.00    -0.266 OA
ATOM      3  O   UNL     1      19.553  -1.829  25.790  0.00  0.00    -0.270 OA
ATOM      5  N   UNL     1      20.145  -3.763  24.614  0.00  0.00    -0.297 N 
ATOM      6  N   UNL     1      19.059  -6.058  26.515  0.00  0.00    -0.310 N 
ATOM      8  C   UNL     1      21.467  -5.418  25.920  0.00  0.00    +0.027 C 
ATOM      9  C   UNL     1      19.936  -6.194  24.157  0.00  0.00    +0.054 C 
ATOM     10  C   UNL     1      21.307  -6.427  24.790  0.00  0.00    +0.018 C 
ATOM     11  C   UNL     1      21.376  -3.981  25.375  0.00  0.00    +0.113 C 
ATOM     12  C   UNL     1      20.402  -5.698  26.989  0.00  0.00    +0.130 C 
ATOM     13  C   UNL     1      19.871  -4.768  23.574  0.00  0.00    +0.117 C 
ATOM     14  C   UNL     1      18.826  -6.381  25.174  0.00  0.00    +0.027 A 
ATOM     15  C   UNL     1      17.617  -6.819  24.784  0.00  0.00    +0.024 A 
ATOM     16  C   UNL     1      18.048  -6.157  27.492  0.00  0.00    +0.273 A 
ATOM     17  C   UNL     1      19.330  -2.671  24.923  0.00  0.00    +0.247 C 
ATOM     18  C   UNL     1      16.708  -6.622  27.011  0.00  0.00    +0.099 A 
ATOM     19  C   UNL     1      16.538  -6.939  25.723  0.00  0.00    +0.030 A 
ENDROOT
BRANCH  17  20
ATOM      1  F   UNL     1      14.573  -2.056  22.051  0.00  0.00    -0.205 F 
ATOM     20  C   UNL     1      18.083  -2.510  24.169  0.00  0.00    +0.037 A 
ATOM     21  C   UNL     1      16.946  -3.220  24.551  0.00  0.00    +0.016 A 
ATOM     22  C   UNL     1      18.039  -1.649  23.076  0.00  0.00    +0.016 A 
ATOM     24  C   UNL     1      15.759  -3.066  23.835  0.00  0.00    +0.039 A 
ATOM     25  C   UNL     1      16.852  -1.494  22.360  0.00  0.00    +0.039 A 
ATOM     26  C   UNL     1      15.712  -2.203  22.740  0.00  0.00    +0.123 A 
ENDBRANCH  17  20
BRANCH  18   7
ATOM      4  O   UNL     1      16.077  -8.907  28.601  0.00  0.00    -0.270 OA
ATOM      7  N   UNL     1      15.697  -6.714  27.922  0.00  0.00    -0.277 N 
ATOM     23  C   UNL     1      15.441  -7.857  28.667  0.00  0.00    +0.248 C 
ATOM     33  H   UNL     1      15.043  -5.939  27.919  0.00  0.00    +0.155 HD
BRANCH  23  27
ATOM     27  C   UNL     1      14.311  -7.761  29.627  0.00  0.00    +0.037 A 
ATOM     28  C   UNL     1      13.857  -8.911  30.239  0.00  0.00    +0.013 A 
ATOM     29  C   UNL     1      13.752  -6.524  29.875  0.00  0.00    +0.013 A 
ATOM     30  C   UNL     1      12.796  -8.820  31.141  0.00  0.00    +0.001 A 
ATOM     31  C   UNL     1      12.691  -6.434  30.777  0.00  0.00    +0.001 A 
ATOM     32  C   UNL     1      12.213  -7.581  31.409  0.00  0.00    +0.000 A 
ENDBRANCH  23  27
ENDBRANCH  18   7
TORSDOF 3
ENDMDL
MODEL 9
REMARK VINA RESULT:      -7.2     13.332     15.087
REMARK  Name = 11887353
REMARK  3 active torsions:
REMARK  status: ('A' for Active; 'I' for Inactive)
REMARK    1  A    between atoms: N_7  and  C_18
REMARK    2  A    between atoms: C_17  and  C_20
REMARK    3  A    between atoms: C_23  and  C_27
REMARK                            x       y       z     vdW  Elec       q    Type
REMARK                         _______ _______ _______ _____ _____    ______ ____
ROOT
ATOM      2  O   UNL     1      13.904   6.374   7.330  0.00  0.00    -0.266 OA
ATOM      3  O   UNL     1      10.371   4.876   3.861  0.00  0.00    -0.270 OA
ATOM      5  N   UNL     1       9.399   6.534   5.195  0.00  0.00    -0.297 N 
ATOM      6  N   UNL     1      11.809   7.375   7.078  0.00  0.00    -0.310 N 
ATOM      8  C   UNL     1       9.621   6.169   7.646  0.00  0.00    +0.027 C 
ATOM      9  C   UNL     1       9.559   8.462   6.752  0.00  0.00    +0.054 C 
ATOM     10  C   UNL     1       9.079   7.571   7.897  0.00  0.00    +0.018 C 
ATOM     11  C   UNL     1       9.103   5.625   6.302  0.00  0.00    +0.113 C 
ATOM     12  C   UNL     1      11.154   6.215   7.699  0.00  0.00    +0.130 C 
ATOM     13  C   UNL     1       8.998   7.934   5.416  0.00  0.00    +0.117 C 
ATOM     14  C   UNL     1      11.075   8.500   6.690  0.00  0.00    +0.027 A 
ATOM     15  C   UNL     1      11.705   9.595   6.232  0.00  0.00    +0.024 A 
ATOM     16  C   UNL     1      13.215   7.335   6.987  0.00  0.00    +0.273 A 
ATOM     17  C   UNL     1      10.035   6.043   4.052  0.00  0.00    +0.247 C 
ATOM     18  C   UNL     1      13.877   8.564   6.445  0.00  0.00    +0.099 A 
ATOM     19  C   UNL     1      13.136   9.623   6.107  0.00  0.00    +0.030 A 
ENDROOT
BRANCH  17  20
ATOM      1  F   UNL     1      11.256   9.663  -0.030  0.00  0.00    -0.205 F 
ATOM     20  C   UNL     1      10.354   6.993   2.982  0.00  0.00    +0.037 A 
ATOM     21  C   UNL     1      11.569   7.675   3.001  0.00  0.00    +0.016 A 
ATOM     22  C   UNL     1       9.443   7.209   1.951  0.00  0.00    +0.016 A 
ATOM     24  C   UNL     1      11.874   8.578   1.982  0.00  0.00    +0.039 A 
ATOM     25  C   UNL     1       9.748   8.111   0.932  0.00  0.00    +0.039 A 
ATOM     26  C   UNL     1      10.964   8.796   0.948  0.00  0.00    +0.123 A 
ENDBRANCH  17  20
BRANCH  18   7
ATOM      4  O   UNL     1      15.353   8.106   4.045  0.00  0.00    -0.270 OA
ATOM      7  N   UNL     1      15.236   8.558   6.324  0.00  0.00    -0.277 N 
ATOM     23  C   UNL     1      15.896   8.328   5.125  0.00  0.00    +0.248 C 
ATOM     33  H   UNL     1      15.746   8.585   7.200  0.00  0.00    +0.155 HD
BRANCH  23  27
ATOM     27  C   UNL     1      17.379   8.383   5.185  0.00  0.00    +0.037 A 
ATOM     28  C   UNL     1      18.105   8.063   4.056  0.00  0.00    +0.013 A 
ATOM     29  C   UNL     1      17.985   8.754   6.368  0.00  0.00    +0.013 A 
ATOM     30  C   UNL     1      19.497   8.115   4.113  0.00  0.00    +0.001 A 
ATOM     31  C   UNL     1      19.377   8.805   6.425  0.00  0.00    +0.001 A 
ATOM     32  C   UNL     1      20.133   8.486   5.297  0.00  0.00    +0.000 A 
ENDBRANCH  23  27
ENDBRANCH  18   7
TORSDOF 3
ENDMDL
MODEL 10
REMARK VINA RESULT:      -7.1     13.631     15.597
REMARK  Name = 11887353
REMARK  3 active torsions:
REMARK  status: ('A' for Active; 'I' for Inactive)
REMARK    1  A    between atoms: N_7  and  C_18
REMARK    2  A    between atoms: C_17  and  C_20
REMARK    3  A    between atoms: C_23  and  C_27
REMARK                            x       y       z     vdW  Elec       q    Type
REMARK                         _______ _______ _______ _____ _____    ______ ____
ROOT
ATOM      2  O   UNL     1      13.803   6.573   7.228  0.00  0.00    -0.266 OA
ATOM      3  O   UNL     1      10.818   4.072   3.822  0.00  0.00    -0.270 OA
ATOM      5  N   UNL     1       9.609   5.913   4.610  0.00  0.00    -0.297 N 
ATOM      6  N   UNL     1      11.715   7.333   6.509  0.00  0.00    -0.310 N 
ATOM      8  C   UNL     1       9.529   6.131   7.087  0.00  0.00    +0.027 C 
ATOM      9  C   UNL     1       9.480   8.150   5.681  0.00  0.00    +0.054 C 
ATOM     10  C   UNL     1       8.896   7.509   6.939  0.00  0.00    +0.018 C 
ATOM     11  C   UNL     1       9.214   5.260   5.858  0.00  0.00    +0.113 C 
ATOM     12  C   UNL     1      11.038   6.300   7.304  0.00  0.00    +0.130 C 
ATOM     13  C   UNL     1       9.120   7.293   4.450  0.00  0.00    +0.117 C 
ATOM     14  C   UNL     1      10.987   8.285   5.787  0.00  0.00    +0.027 A 
ATOM     15  C   UNL     1      11.621   9.290   5.161  0.00  0.00    +0.024 A 
ATOM     16  C   UNL     1      13.121   7.377   6.592  0.00  0.00    +0.273 A 
ATOM     17  C   UNL     1      10.408   5.224   3.695  0.00  0.00    +0.247 C 
ATOM     18  C   UNL     1      13.792   8.497   5.858  0.00  0.00    +0.099 A 
ATOM     19  C   UNL     1      13.053   9.395   5.198  0.00  0.00    +0.030 A 
ENDROOT
BRANCH  17  20
ATOM      1  F   UNL     1      11.981   7.904  -0.952  0.00  0.00    -0.205 F 
ATOM     20  C   UNL     1      10.820   5.927   2.476  0.00  0.00    +0.037 A 
ATOM     21  C   UNL     1      11.968   6.716   2.486  0.00  0.00    +0.016 A 
ATOM     22  C   UNL     1      10.062   5.804   1.315  0.00  0.00    +0.016 A 
ATOM     24  C   UNL     1      12.362   7.384   1.326  0.00  0.00    +0.039 A 
ATOM     25  C   UNL     1      10.455   6.472   0.155  0.00  0.00    +0.039 A 
ATOM     26  C   UNL     1      11.605   7.262   0.161  0.00  0.00    +0.123 A 
ENDBRANCH  17  20
BRANCH  18   7
ATOM      4  O   UNL     1      15.583   7.642   3.806  0.00  0.00    -0.270 OA
ATOM      7  N   UNL     1      15.154   8.564   5.899  0.00  0.00    -0.277 N 
ATOM     23  C   UNL     1      15.972   8.130   4.865  0.00  0.00    +0.248 C 
ATOM     33  H   UNL     1      15.545   8.816   6.800  0.00  0.00    +0.155 HD
BRANCH  23  27
ATOM     27  C   UNL     1      17.432   8.304   5.082  0.00  0.00    +0.037 A 
ATOM     28  C   UNL     1      17.876   8.730   6.317  0.00  0.00    +0.013 A 
ATOM     29  C   UNL     1      18.296   8.033   4.042  0.00  0.00    +0.013 A 
ATOM     30  C   UNL     1      19.247   8.893   6.520  0.00  0.00    +0.001 A 
ATOM     31  C   UNL     1      19.667   8.197   4.246  0.00  0.00    +0.001 A 
ATOM     32  C   UNL     1      20.141   8.626   5.484  0.00  0.00    +0.000 A 
ENDBRANCH  23  27
ENDBRANCH  18   7
TORSDOF 3
ENDMDL
