MODEL 1
REMARK VINA RESULT:      -6.0      0.000      0.000
REMARK  Name = 75536675
REMARK  9 active torsions:
REMARK  status: ('A' for Active; 'I' for Inactive)
REMARK    1  A    between atoms: S_1  and  N_7
REMARK    2  A    between atoms: S_1  and  C_16
REMARK    3  A    between atoms: O_3  and  C_9
REMARK    4  A    between atoms: N_6  and  C_8
REMARK    5  A    between atoms: N_6  and  C_13
REMARK    6  A    between atoms: N_7  and  C_12
REMARK    7  A    between atoms: C_10  and  C_12
REMARK    8  A    between atoms: C_13  and  C_14
REMARK    9  A    between atoms: C_13  and  C_15
REMARK                            x       y       z     vdW  Elec       q    Type
REMARK                         _______ _______ _______ _____ _____    ______ ____
ROOT
ATOM      2  O   UNL     1      15.836   6.285  19.025  0.00  0.00    -0.371 OA
ATOM      8  C   UNL     1      16.810   6.433  21.186  0.00  0.00    +0.111 C 
ATOM      9  C   UNL     1      15.532   7.249  21.162  0.00  0.00    +0.164 C 
ATOM     10  C   UNL     1      14.812   6.633  19.971  0.00  0.00    +0.164 C 
ATOM     11  C   UNL     1      17.106   6.294  19.702  0.00  0.00    +0.181 C 
ENDROOT
BRANCH   9   3
ATOM      3  O   UNL     1      14.781   7.122  22.355  0.00  0.00    -0.388 OA
ATOM     23  H   UNL     1      14.134   7.846  22.388  0.00  0.00    +0.210 HD
ENDBRANCH   9   3
BRANCH   8   6
ATOM      6  N   UNL     1      17.893   7.067  21.922  0.00  0.00    -0.307 NA
ATOM     22  H   UNL     1      18.459   6.360  22.389  0.00  0.00    +0.123 HD
BRANCH   6  13
ATOM     13  C   UNL     1      18.729   7.869  21.037  0.00  0.00    +0.048 C 
ATOM     14  C   UNL     1      18.558   9.346  21.379  0.00  0.00    +0.023 C 
ATOM     15  C   UNL     1      20.190   7.445  21.161  0.00  0.00    +0.023 C 
ENDBRANCH   6  13
ENDBRANCH   8   6
BRANCH  10  12
ATOM     12  C   UNL     1      13.811   7.572  19.321  0.00  0.00    +0.140 C 
BRANCH  12   7
ATOM      7  N   UNL     1      13.294   8.519  20.328  0.00  0.00    -0.187 NA
ATOM     24  H   UNL     1      13.999   8.949  20.940  0.00  0.00    +0.148 HD
BRANCH   7   1
ATOM      1  S   UNL     1      11.705   8.355  20.914  0.00  0.00    +0.058 S 
ATOM      4  O   UNL     1      11.664   7.295  21.902  0.00  0.00    -0.153 OA
ATOM      5  O   UNL     1      10.788   8.342  19.791  0.00  0.00    -0.153 OA
BRANCH   1  16
ATOM     16  C   UNL     1      11.470   9.892  21.755  0.00  0.00    +0.105 A 
ATOM     17  C   UNL     1      10.978   9.905  23.060  0.00  0.00    +0.028 A 
ATOM     18  C   UNL     1      11.773  11.093  21.113  0.00  0.00    +0.028 A 
ATOM     19  C   UNL     1      10.789  11.117  23.723  0.00  0.00    +0.002 A 
ATOM     20  C   UNL     1      11.584  12.305  21.775  0.00  0.00    +0.002 A 
ATOM     21  C   UNL     1      11.092  12.318  23.080  0.00  0.00    +0.000 A 
ENDBRANCH   1  16
ENDBRANCH   7   1
ENDBRANCH  12   7
ENDBRANCH  10  12
TORSDOF 7
ENDMDL
MODEL 2
REMARK VINA RESULT:      -5.9      2.985      4.282
REMARK  Name = 75536675
REMARK  9 active torsions:
REMARK  status: ('A' for Active; 'I' for Inactive)
REMARK    1  A    between atoms: S_1  and  N_7
REMARK    2  A    between atoms: S_1  and  C_16
REMARK    3  A    between atoms: O_3  and  C_9
REMARK    4  A    between atoms: N_6  and  C_8
REMARK    5  A    between atoms: N_6  and  C_13
REMARK    6  A    between atoms: N_7  and  C_12
REMARK    7  A    between atoms: C_10  and  C_12
REMARK    8  A    between atoms: C_13  and  C_14
REMARK    9  A    between atoms: C_13  and  C_15
REMARK                            x       y       z     vdW  Elec       q    Type
REMARK                         _______ _______ _______ _____ _____    ______ ____
ROOT
ATOM      2  O   UNL     1      18.534   7.174  21.625  0.00  0.00    -0.371 OA
ATOM      8  C   UNL     1      19.873   5.849  20.178  0.00  0.00    +0.111 C 
ATOM      9  C   UNL     1      18.410   5.546  19.915  0.00  0.00    +0.164 C 
ATOM     10  C   UNL     1      17.745   6.790  20.487  0.00  0.00    +0.164 C 
ATOM     11  C   UNL     1      19.802   6.500  21.550  0.00  0.00    +0.181 C 
ENDROOT
BRANCH   9   3
ATOM      3  O   UNL     1      18.126   5.383  18.539  0.00  0.00    -0.388 OA
ATOM     23  H   UNL     1      18.927   5.054  18.097  0.00  0.00    +0.210 HD
ENDBRANCH   9   3
BRANCH   8   6
ATOM      6  N   UNL     1      20.726   4.672  20.153  0.00  0.00    -0.307 NA
ATOM     22  H   UNL     1      21.145   4.563  19.230  0.00  0.00    +0.123 HD
BRANCH   6  13
ATOM     13  C   UNL     1      21.771   4.761  21.167  0.00  0.00    +0.048 C 
ATOM     14  C   UNL     1      21.884   3.426  21.897  0.00  0.00    +0.023 C 
ATOM     15  C   UNL     1      23.101   5.146  20.523  0.00  0.00    +0.023 C 
ENDBRANCH   6  13
ENDBRANCH   8   6
BRANCH  10  12
ATOM     12  C   UNL     1      16.306   6.559  20.916  0.00  0.00    +0.140 C 
BRANCH  12   7
ATOM      7  N   UNL     1      15.460   6.363  19.723  0.00  0.00    -0.187 NA
ATOM     24  H   UNL     1      15.706   5.562  19.128  0.00  0.00    +0.148 HD
BRANCH   7   1
ATOM      1  S   UNL     1      14.674   7.692  19.008  0.00  0.00    +0.058 S 
ATOM      4  O   UNL     1      14.429   7.409  17.607  0.00  0.00    -0.153 OA
ATOM      5  O   UNL     1      15.359   8.910  19.397  0.00  0.00    -0.153 OA
BRANCH   1  16
ATOM     16  C   UNL     1      13.117   7.685  19.845  0.00  0.00    +0.105 A 
ATOM     17  C   UNL     1      12.169   8.668  19.562  0.00  0.00    +0.028 A 
ATOM     18  C   UNL     1      12.838   6.700  20.792  0.00  0.00    +0.028 A 
ATOM     19  C   UNL     1      10.941   8.665  20.224  0.00  0.00    +0.002 A 
ATOM     20  C   UNL     1      11.611   6.697  21.455  0.00  0.00    +0.002 A 
ATOM     21  C   UNL     1      10.663   7.679  21.171  0.00  0.00    +0.000 A 
ENDBRANCH   1  16
ENDBRANCH   7   1
ENDBRANCH  12   7
ENDBRANCH  10  12
TORSDOF 7
ENDMDL
MODEL 3
REMARK VINA RESULT:      -5.6      2.333      6.877
REMARK  Name = 75536675
REMARK  9 active torsions:
REMARK  status: ('A' for Active; 'I' for Inactive)
REMARK    1  A    between atoms: S_1  and  N_7
REMARK    2  A    between atoms: S_1  and  C_16
REMARK    3  A    between atoms: O_3  and  C_9
REMARK    4  A    between atoms: N_6  and  C_8
REMARK    5  A    between atoms: N_6  and  C_13
REMARK    6  A    between atoms: N_7  and  C_12
REMARK    7  A    between atoms: C_10  and  C_12
REMARK    8  A    between atoms: C_13  and  C_14
REMARK    9  A    between atoms: C_13  and  C_15
REMARK                            x       y       z     vdW  Elec       q    Type
REMARK                         _______ _______ _______ _____ _____    ______ ____
ROOT
ATOM      2  O   UNL     1      11.838  12.298  20.842  0.00  0.00    -0.371 OA
ATOM      8  C   UNL     1      11.351  11.916  23.135  0.00  0.00    +0.111 C 
ATOM      9  C   UNL     1      11.404  10.584  22.412  0.00  0.00    +0.164 C 
ATOM     10  C   UNL     1      12.215  10.953  21.177  0.00  0.00    +0.164 C 
ATOM     11  C   UNL     1      11.169  12.881  21.975  0.00  0.00    +0.181 C 
ENDROOT
BRANCH   9   3
ATOM      3  O   UNL     1      12.037   9.574  23.175  0.00  0.00    -0.388 OA
ATOM     23  H   UNL     1      11.467   8.787  23.175  0.00  0.00    +0.210 HD
ENDBRANCH   9   3
BRANCH   8   6
ATOM      6  N   UNL     1      10.282  12.004  24.117  0.00  0.00    -0.307 NA
ATOM     22  H   UNL     1       9.906  11.077  24.310  0.00  0.00    +0.123 HD
BRANCH   6  13
ATOM     13  C   UNL     1      10.754  12.618  25.353  0.00  0.00    +0.048 C 
ATOM     14  C   UNL     1      12.260  12.410  25.479  0.00  0.00    +0.023 C 
ATOM     15  C   UNL     1      10.402  14.103  25.374  0.00  0.00    +0.023 C 
ENDBRANCH   6  13
ENDBRANCH   8   6
BRANCH  10  12
ATOM     12  C   UNL     1      11.956  10.038  19.993  0.00  0.00    +0.140 C 
BRANCH  12   7
ATOM      7  N   UNL     1      12.207   8.638  20.385  0.00  0.00    -0.187 NA
ATOM     24  H   UNL     1      12.429   8.485  21.376  0.00  0.00    +0.148 HD
BRANCH   7   1
ATOM      1  S   UNL     1      12.801   7.526  19.241  0.00  0.00    +0.058 S 
ATOM      4  O   UNL     1      12.902   8.174  17.948  0.00  0.00    -0.153 OA
ATOM      5  O   UNL     1      12.075   6.278  19.377  0.00  0.00    -0.153 OA
BRANCH   1  16
ATOM     16  C   UNL     1      14.441   7.237  19.835  0.00  0.00    +0.105 A 
ATOM     17  C   UNL     1      14.787   7.607  21.134  0.00  0.00    +0.028 A 
ATOM     18  C   UNL     1      15.390   6.643  19.002  0.00  0.00    +0.028 A 
ATOM     19  C   UNL     1      16.081   7.383  21.602  0.00  0.00    +0.002 A 
ATOM     20  C   UNL     1      16.684   6.420  19.470  0.00  0.00    +0.002 A 
ATOM     21  C   UNL     1      17.030   6.789  20.769  0.00  0.00    +0.000 A 
ENDBRANCH   1  16
ENDBRANCH   7   1
ENDBRANCH  12   7
ENDBRANCH  10  12
TORSDOF 7
ENDMDL
MODEL 4
REMARK VINA RESULT:      -5.5     26.439     28.518
REMARK  Name = 75536675
REMARK  9 active torsions:
REMARK  status: ('A' for Active; 'I' for Inactive)
REMARK    1  A    between atoms: S_1  and  N_7
REMARK    2  A    between atoms: S_1  and  C_16
REMARK    3  A    between atoms: O_3  and  C_9
REMARK    4  A    between atoms: N_6  and  C_8
REMARK    5  A    between atoms: N_6  and  C_13
REMARK    6  A    between atoms: N_7  and  C_12
REMARK    7  A    between atoms: C_10  and  C_12
REMARK    8  A    between atoms: C_13  and  C_14
REMARK    9  A    between atoms: C_13  and  C_15
REMARK                            x       y       z     vdW  Elec       q    Type
REMARK                         _______ _______ _______ _____ _____    ______ ____
ROOT
ATOM      2  O   UNL     1      -6.049 -11.478  18.377  0.00  0.00    -0.371 OA
ATOM      8  C   UNL     1      -7.677  -9.992  17.492  0.00  0.00    +0.111 C 
ATOM      9  C   UNL     1      -6.338  -9.701  16.843  0.00  0.00    +0.164 C 
ATOM     10  C   UNL     1      -5.600 -11.009  17.095  0.00  0.00    +0.164 C 
ATOM     11  C   UNL     1      -7.251 -10.769  18.727  0.00  0.00    +0.181 C 
ENDROOT
BRANCH   9   3
ATOM      3  O   UNL     1      -6.450  -9.417  15.462  0.00  0.00    -0.388 OA
ATOM     23  H   UNL     1      -6.639 -10.248  14.993  0.00  0.00    +0.210 HD
ENDBRANCH   9   3
BRANCH   8   6
ATOM      6  N   UNL     1      -8.443  -8.797  17.812  0.00  0.00    -0.307 NA
ATOM     22  H   UNL     1      -8.059  -7.992  17.317  0.00  0.00    +0.123 HD
BRANCH   6  13
ATOM     13  C   UNL     1      -9.849  -8.967  17.468  0.00  0.00    +0.048 C 
ATOM     14  C   UNL     1     -10.444  -7.617  17.080  0.00  0.00    +0.023 C 
ATOM     15  C   UNL     1      -9.998  -9.977  16.333  0.00  0.00    +0.023 C 
ENDBRANCH   6  13
ENDBRANCH   8   6
BRANCH  10  12
ATOM     12  C   UNL     1      -4.089 -10.853  17.107  0.00  0.00    +0.140 C 
BRANCH  12   7
ATOM      7  N   UNL     1      -3.635 -10.320  15.808  0.00  0.00    -0.187 NA
ATOM     24  H   UNL     1      -4.287  -9.682  15.336  0.00  0.00    +0.148 HD
BRANCH   7   1
ATOM      1  S   UNL     1      -2.541 -11.211  14.856  0.00  0.00    +0.058 S 
ATOM      4  O   UNL     1      -2.911 -12.613  14.885  0.00  0.00    -0.153 OA
ATOM      5  O   UNL     1      -1.189 -10.807  15.190  0.00  0.00    -0.153 OA
BRANCH   1  16
ATOM     16  C   UNL     1      -2.883 -10.590  13.237  0.00  0.00    +0.105 A 
ATOM     17  C   UNL     1      -4.202 -10.398  12.827  0.00  0.00    +0.028 A 
ATOM     18  C   UNL     1      -1.832 -10.296  12.367  0.00  0.00    +0.028 A 
ATOM     19  C   UNL     1      -4.471  -9.912  11.548  0.00  0.00    +0.002 A 
ATOM     20  C   UNL     1      -2.102  -9.810  11.088  0.00  0.00    +0.002 A 
ATOM     21  C   UNL     1      -3.421  -9.617  10.679  0.00  0.00    +0.000 A 
ENDBRANCH   1  16
ENDBRANCH   7   1
ENDBRANCH  12   7
ENDBRANCH  10  12
TORSDOF 7
ENDMDL
MODEL 5
REMARK VINA RESULT:      -5.3     28.214     30.607
REMARK  Name = 75536675
REMARK  9 active torsions:
REMARK  status: ('A' for Active; 'I' for Inactive)
REMARK    1  A    between atoms: S_1  and  N_7
REMARK    2  A    between atoms: S_1  and  C_16
REMARK    3  A    between atoms: O_3  and  C_9
REMARK    4  A    between atoms: N_6  and  C_8
REMARK    5  A    between atoms: N_6  and  C_13
REMARK    6  A    between atoms: N_7  and  C_12
REMARK    7  A    between atoms: C_10  and  C_12
REMARK    8  A    between atoms: C_13  and  C_14
REMARK    9  A    between atoms: C_13  and  C_15
REMARK                            x       y       z     vdW  Elec       q    Type
REMARK                         _______ _______ _______ _____ _____    ______ ____
ROOT
ATOM      2  O   UNL     1     -17.300   1.720  25.315  0.00  0.00    -0.371 OA
ATOM      8  C   UNL     1     -16.348   3.228  26.884  0.00  0.00    +0.111 C 
ATOM      9  C   UNL     1     -16.023   3.703  25.481  0.00  0.00    +0.164 C 
ATOM     10  C   UNL     1     -17.098   2.989  24.673  0.00  0.00    +0.164 C 
ATOM     11  C   UNL     1     -16.721   1.776  26.631  0.00  0.00    +0.181 C 
ENDROOT
BRANCH   9   3
ATOM      3  O   UNL     1     -16.111   5.109  25.346  0.00  0.00    -0.388 OA
ATOM     23  H   UNL     1     -16.909   5.319  24.833  0.00  0.00    +0.210 HD
ENDBRANCH   9   3
BRANCH   8   6
ATOM      6  N   UNL     1     -15.245   3.374  27.819  0.00  0.00    -0.307 NA
ATOM     22  H   UNL     1     -14.869   4.321  27.773  0.00  0.00    +0.123 HD
BRANCH   6  13
ATOM     13  C   UNL     1     -15.669   3.073  29.182  0.00  0.00    +0.048 C 
ATOM     14  C   UNL     1     -14.498   2.474  29.956  0.00  0.00    +0.023 C 
ATOM     15  C   UNL     1     -16.189   4.335  29.865  0.00  0.00    +0.023 C 
ENDBRANCH   6  13
ENDBRANCH   8   6
BRANCH  10  12
ATOM     12  C   UNL     1     -16.713   2.772  23.219  0.00  0.00    +0.140 C 
BRANCH  12   7
ATOM      7  N   UNL     1     -15.738   3.800  22.807  0.00  0.00    -0.187 NA
ATOM     24  H   UNL     1     -14.924   3.916  23.423  0.00  0.00    +0.148 HD
BRANCH   7   1
ATOM      1  S   UNL     1     -16.246   5.133  21.878  0.00  0.00    +0.058 S 
ATOM      4  O   UNL     1     -16.957   6.068  22.728  0.00  0.00    -0.153 OA
ATOM      5  O   UNL     1     -16.857   4.649  20.655  0.00  0.00    -0.153 OA
BRANCH   1  16
ATOM     16  C   UNL     1     -14.703   5.869  21.428  0.00  0.00    +0.105 A 
ATOM     17  C   UNL     1     -13.511   5.360  21.944  0.00  0.00    +0.028 A 
ATOM     18  C   UNL     1     -14.677   6.963  20.562  0.00  0.00    +0.028 A 
ATOM     19  C   UNL     1     -12.294   5.943  21.592  0.00  0.00    +0.002 A 
ATOM     20  C   UNL     1     -13.460   7.546  20.212  0.00  0.00    +0.002 A 
ATOM     21  C   UNL     1     -12.269   7.036  20.726  0.00  0.00    +0.000 A 
ENDBRANCH   1  16
ENDBRANCH   7   1
ENDBRANCH  12   7
ENDBRANCH  10  12
TORSDOF 7
ENDMDL
MODEL 6
REMARK VINA RESULT:      -5.3      3.663      5.875
REMARK  Name = 75536675
REMARK  9 active torsions:
REMARK  status: ('A' for Active; 'I' for Inactive)
REMARK    1  A    between atoms: S_1  and  N_7
REMARK    2  A    between atoms: S_1  and  C_16
REMARK    3  A    between atoms: O_3  and  C_9
REMARK    4  A    between atoms: N_6  and  C_8
REMARK    5  A    between atoms: N_6  and  C_13
REMARK    6  A    between atoms: N_7  and  C_12
REMARK    7  A    between atoms: C_10  and  C_12
REMARK    8  A    between atoms: C_13  and  C_14
REMARK    9  A    between atoms: C_13  and  C_15
REMARK                            x       y       z     vdW  Elec       q    Type
REMARK                         _______ _______ _______ _____ _____    ______ ____
ROOT
ATOM      2  O   UNL     1      13.577  10.009  18.278  0.00  0.00    -0.371 OA
ATOM      8  C   UNL     1      14.041  10.244  15.960  0.00  0.00    +0.111 C 
ATOM      9  C   UNL     1      12.994   9.163  16.148  0.00  0.00    +0.164 C 
ATOM     10  C   UNL     1      12.456   9.512  17.529  0.00  0.00    +0.164 C 
ATOM     11  C   UNL     1      14.633  10.335  17.357  0.00  0.00    +0.181 C 
ENDROOT
BRANCH   9   3
ATOM      3  O   UNL     1      11.981   9.206  15.162  0.00  0.00    -0.388 OA
ATOM     23  H   UNL     1      11.622   8.310  15.051  0.00  0.00    +0.210 HD
ENDBRANCH   9   3
BRANCH   8   6
ATOM      6  N   UNL     1      15.032   9.926  14.945  0.00  0.00    -0.307 NA
ATOM     22  H   UNL     1      14.678   9.196  14.326  0.00  0.00    +0.123 HD
BRANCH   6  13
ATOM     13  C   UNL     1      15.386  11.108  14.169  0.00  0.00    +0.048 C 
ATOM     14  C   UNL     1      14.232  12.105  14.208  0.00  0.00    +0.023 C 
ATOM     15  C   UNL     1      16.668  11.733  14.712  0.00  0.00    +0.023 C 
ENDBRANCH   6  13
ENDBRANCH   8   6
BRANCH  10  12
ATOM     12  C   UNL     1      11.842   8.327  18.253  0.00  0.00    +0.140 C 
BRANCH  12   7
ATOM      7  N   UNL     1      11.649   8.662  19.677  0.00  0.00    -0.187 NA
ATOM     24  H   UNL     1      11.725   9.658  19.916  0.00  0.00    +0.148 HD
BRANCH   7   1
ATOM      1  S   UNL     1      12.008   7.512  20.879  0.00  0.00    +0.058 S 
ATOM      4  O   UNL     1      11.591   6.198  20.428  0.00  0.00    -0.153 OA
ATOM      5  O   UNL     1      11.562   8.017  22.163  0.00  0.00    -0.153 OA
BRANCH   1  16
ATOM     16  C   UNL     1      13.776   7.546  20.896  0.00  0.00    +0.105 A 
ATOM     17  C   UNL     1      14.497   6.629  20.131  0.00  0.00    +0.028 A 
ATOM     18  C   UNL     1      14.448   8.487  21.676  0.00  0.00    +0.028 A 
ATOM     19  C   UNL     1      15.892   6.654  20.147  0.00  0.00    +0.002 A 
ATOM     20  C   UNL     1      15.842   8.510  21.692  0.00  0.00    +0.002 A 
ATOM     21  C   UNL     1      16.564   7.595  20.927  0.00  0.00    +0.000 A 
ENDBRANCH   1  16
ENDBRANCH   7   1
ENDBRANCH  12   7
ENDBRANCH  10  12
TORSDOF 7
ENDMDL
MODEL 7
REMARK VINA RESULT:      -5.3     29.720     31.276
REMARK  Name = 75536675
REMARK  9 active torsions:
REMARK  status: ('A' for Active; 'I' for Inactive)
REMARK    1  A    between atoms: S_1  and  N_7
REMARK    2  A    between atoms: S_1  and  C_16
REMARK    3  A    between atoms: O_3  and  C_9
REMARK    4  A    between atoms: N_6  and  C_8
REMARK    5  A    between atoms: N_6  and  C_13
REMARK    6  A    between atoms: N_7  and  C_12
REMARK    7  A    between atoms: C_10  and  C_12
REMARK    8  A    between atoms: C_13  and  C_14
REMARK    9  A    between atoms: C_13  and  C_15
REMARK                            x       y       z     vdW  Elec       q    Type
REMARK                         _______ _______ _______ _____ _____    ______ ____
ROOT
ATOM      2  O   UNL     1     -16.636   0.559  28.190  0.00  0.00    -0.371 OA
ATOM      8  C   UNL     1     -15.674   2.583  28.978  0.00  0.00    +0.111 C 
ATOM      9  C   UNL     1     -15.805   2.652  27.469  0.00  0.00    +0.164 C 
ATOM     10  C   UNL     1     -16.868   1.590  27.218  0.00  0.00    +0.164 C 
ATOM     11  C   UNL     1     -15.782   1.086  29.221  0.00  0.00    +0.181 C 
ENDROOT
BRANCH   9   3
ATOM      3  O   UNL     1     -16.218   3.927  27.015  0.00  0.00    -0.388 OA
ATOM     23  H   UNL     1     -16.900   3.804  26.334  0.00  0.00    +0.210 HD
ENDBRANCH   9   3
BRANCH   8   6
ATOM      6  N   UNL     1     -14.434   3.150  29.482  0.00  0.00    -0.307 NA
ATOM     22  H   UNL     1     -14.230   4.028  29.005  0.00  0.00    +0.123 HD
BRANCH   6  13
ATOM     13  C   UNL     1     -14.505   3.371  30.922  0.00  0.00    +0.048 C 
ATOM     14  C   UNL     1     -13.095   3.370  31.505  0.00  0.00    +0.023 C 
ATOM     15  C   UNL     1     -15.221   4.685  31.221  0.00  0.00    +0.023 C 
ENDBRANCH   6  13
ENDBRANCH   8   6
BRANCH  10  12
ATOM     12  C   UNL     1     -16.809   1.000  25.819  0.00  0.00    +0.140 C 
BRANCH  12   7
ATOM      7  N   UNL     1     -16.213   1.981  24.892  0.00  0.00    -0.187 NA
ATOM     24  H   UNL     1     -15.441   2.543  25.273  0.00  0.00    +0.148 HD
BRANCH   7   1
ATOM      1  S   UNL     1     -17.146   2.637  23.630  0.00  0.00    +0.058 S 
ATOM      4  O   UNL     1     -18.385   3.162  24.171  0.00  0.00    -0.153 OA
ATOM      5  O   UNL     1     -17.173   1.697  22.526  0.00  0.00    -0.153 OA
BRANCH   1  16
ATOM     16  C   UNL     1     -16.152   4.007  23.119  0.00  0.00    +0.105 A 
ATOM     17  C   UNL     1     -14.939   4.263  23.757  0.00  0.00    +0.028 A 
ATOM     18  C   UNL     1     -16.583   4.833  22.081  0.00  0.00    +0.028 A 
ATOM     19  C   UNL     1     -14.155   5.345  23.356  0.00  0.00    +0.002 A 
ATOM     20  C   UNL     1     -15.800   5.915  21.681  0.00  0.00    +0.002 A 
ATOM     21  C   UNL     1     -14.586   6.171  22.318  0.00  0.00    +0.000 A 
ENDBRANCH   1  16
ENDBRANCH   7   1
ENDBRANCH  12   7
ENDBRANCH  10  12
TORSDOF 7
ENDMDL
MODEL 8
REMARK VINA RESULT:      -5.2      3.101      6.705
REMARK  Name = 75536675
REMARK  9 active torsions:
REMARK  status: ('A' for Active; 'I' for Inactive)
REMARK    1  A    between atoms: S_1  and  N_7
REMARK    2  A    between atoms: S_1  and  C_16
REMARK    3  A    between atoms: O_3  and  C_9
REMARK    4  A    between atoms: N_6  and  C_8
REMARK    5  A    between atoms: N_6  and  C_13
REMARK    6  A    between atoms: N_7  and  C_12
REMARK    7  A    between atoms: C_10  and  C_12
REMARK    8  A    between atoms: C_13  and  C_14
REMARK    9  A    between atoms: C_13  and  C_15
REMARK                            x       y       z     vdW  Elec       q    Type
REMARK                         _______ _______ _______ _____ _____    ______ ____
ROOT
ATOM      2  O   UNL     1      12.037  11.269  20.895  0.00  0.00    -0.371 OA
ATOM      8  C   UNL     1      11.268  12.337  22.872  0.00  0.00    +0.111 C 
ATOM      9  C   UNL     1      11.009  10.847  22.982  0.00  0.00    +0.164 C 
ATOM     10  C   UNL     1      11.994  10.302  21.957  0.00  0.00    +0.164 C 
ATOM     11  C   UNL     1      11.464  12.498  21.373  0.00  0.00    +0.181 C 
ENDROOT
BRANCH   9   3
ATOM      3  O   UNL     1      11.266  10.343  24.279  0.00  0.00    -0.388 OA
ATOM     23  H   UNL     1      10.415  10.168  24.714  0.00  0.00    +0.210 HD
ENDBRANCH   9   3
BRANCH   8   6
ATOM      6  N   UNL     1      10.185  13.158  23.392  0.00  0.00    -0.307 NA
ATOM     22  H   UNL     1       9.457  12.566  23.790  0.00  0.00    +0.123 HD
BRANCH   6  13
ATOM     13  C   UNL     1      10.673  14.091  24.401  0.00  0.00    +0.048 C 
ATOM     14  C   UNL     1      10.543  13.458  25.783  0.00  0.00    +0.023 C 
ATOM     15  C   UNL     1      12.121  14.476  24.109  0.00  0.00    +0.023 C 
ENDBRANCH   6  13
ENDBRANCH   8   6
BRANCH  10  12
ATOM     12  C   UNL     1      11.592   8.947  21.400  0.00  0.00    +0.140 C 
BRANCH  12   7
ATOM      7  N   UNL     1      12.754   8.038  21.422  0.00  0.00    -0.187 NA
ATOM     24  H   UNL     1      13.512   8.299  22.065  0.00  0.00    +0.148 HD
BRANCH   7   1
ATOM      1  S   UNL     1      13.142   7.116  20.045  0.00  0.00    +0.058 S 
ATOM      4  O   UNL     1      12.002   6.299  19.677  0.00  0.00    -0.153 OA
ATOM      5  O   UNL     1      14.445   6.508  20.237  0.00  0.00    -0.153 OA
BRANCH   1  16
ATOM     16  C   UNL     1      13.334   8.369  18.813  0.00  0.00    +0.105 A 
ATOM     17  C   UNL     1      14.410   9.255  18.881  0.00  0.00    +0.028 A 
ATOM     18  C   UNL     1      12.408   8.475  17.775  0.00  0.00    +0.028 A 
ATOM     19  C   UNL     1      14.559  10.246  17.911  0.00  0.00    +0.002 A 
ATOM     20  C   UNL     1      12.557   9.467  16.807  0.00  0.00    +0.002 A 
ATOM     21  C   UNL     1      13.633  10.351  16.873  0.00  0.00    +0.000 A 
ENDBRANCH   1  16
ENDBRANCH   7   1
ENDBRANCH  12   7
ENDBRANCH  10  12
TORSDOF 7
ENDMDL
MODEL 9
REMARK VINA RESULT:      -5.2     26.632     28.240
REMARK  Name = 75536675
REMARK  9 active torsions:
REMARK  status: ('A' for Active; 'I' for Inactive)
REMARK    1  A    between atoms: S_1  and  N_7
REMARK    2  A    between atoms: S_1  and  C_16
REMARK    3  A    between atoms: O_3  and  C_9
REMARK    4  A    between atoms: N_6  and  C_8
REMARK    5  A    between atoms: N_6  and  C_13
REMARK    6  A    between atoms: N_7  and  C_12
REMARK    7  A    between atoms: C_10  and  C_12
REMARK    8  A    between atoms: C_13  and  C_14
REMARK    9  A    between atoms: C_13  and  C_15
REMARK                            x       y       z     vdW  Elec       q    Type
REMARK                         _______ _______ _______ _____ _____    ______ ____
ROOT
ATOM      2  O   UNL     1      -4.671 -10.048  15.929  0.00  0.00    -0.371 OA
ATOM      8  C   UNL     1      -5.463 -11.292  17.791  0.00  0.00    +0.111 C 
ATOM      9  C   UNL     1      -4.054 -11.743  17.458  0.00  0.00    +0.164 C 
ATOM     10  C   UNL     1      -3.543 -10.548  16.665  0.00  0.00    +0.164 C 
ATOM     11  C   UNL     1      -5.870 -10.600  16.501  0.00  0.00    +0.181 C 
ENDROOT
BRANCH   9   3
ATOM      3  O   UNL     1      -3.271 -11.983  18.612  0.00  0.00    -0.388 OA
ATOM     23  H   UNL     1      -3.620 -11.440  19.338  0.00  0.00    +0.210 HD
ENDBRANCH   9   3
BRANCH   8   6
ATOM      6  N   UNL     1      -6.354 -12.382  18.154  0.00  0.00    -0.307 NA
ATOM     22  H   UNL     1      -5.836 -13.259  18.196  0.00  0.00    +0.123 HD
BRANCH   6  13
ATOM     13  C   UNL     1      -7.003 -12.125  19.435  0.00  0.00    +0.048 C 
ATOM     14  C   UNL     1      -6.243 -11.029  20.177  0.00  0.00    +0.023 C 
ATOM     15  C   UNL     1      -8.461 -11.731  19.219  0.00  0.00    +0.023 C 
ENDBRANCH   6  13
ENDBRANCH   8   6
BRANCH  10  12
ATOM     12  C   UNL     1      -2.419 -10.899  15.706  0.00  0.00    +0.140 C 
BRANCH  12   7
ATOM      7  N   UNL     1      -2.717 -10.345  14.371  0.00  0.00    -0.187 NA
ATOM     24  H   UNL     1      -3.162  -9.419  14.361  0.00  0.00    +0.148 HD
BRANCH   7   1
ATOM      1  S   UNL     1      -2.994 -11.390  13.057  0.00  0.00    +0.058 S 
ATOM      4  O   UNL     1      -4.018 -12.353  13.416  0.00  0.00    -0.153 OA
ATOM      5  O   UNL     1      -1.718 -11.842  12.537  0.00  0.00    -0.153 OA
BRANCH   1  16
ATOM     16  C   UNL     1      -3.681 -10.288  11.857  0.00  0.00    +0.105 A 
ATOM     17  C   UNL     1      -4.990  -9.831  11.999  0.00  0.00    +0.028 A 
ATOM     18  C   UNL     1      -2.913  -9.879  10.766  0.00  0.00    +0.028 A 
ATOM     19  C   UNL     1      -5.533  -8.964  11.051  0.00  0.00    +0.002 A 
ATOM     20  C   UNL     1      -3.457  -9.013   9.817  0.00  0.00    +0.002 A 
ATOM     21  C   UNL     1      -4.766  -8.555   9.960  0.00  0.00    +0.000 A 
ENDBRANCH   1  16
ENDBRANCH   7   1
ENDBRANCH  12   7
ENDBRANCH  10  12
TORSDOF 7
ENDMDL
MODEL 10
REMARK VINA RESULT:      -5.1     28.074     30.674
REMARK  Name = 75536675
REMARK  9 active torsions:
REMARK  status: ('A' for Active; 'I' for Inactive)
REMARK    1  A    between atoms: S_1  and  N_7
REMARK    2  A    between atoms: S_1  and  C_16
REMARK    3  A    between atoms: O_3  and  C_9
REMARK    4  A    between atoms: N_6  and  C_8
REMARK    5  A    between atoms: N_6  and  C_13
REMARK    6  A    between atoms: N_7  and  C_12
REMARK    7  A    between atoms: C_10  and  C_12
REMARK    8  A    between atoms: C_13  and  C_14
REMARK    9  A    between atoms: C_13  and  C_15
REMARK                            x       y       z     vdW  Elec       q    Type
REMARK                         _______ _______ _______ _____ _____    ______ ____
ROOT
ATOM      2  O   UNL     1     -17.025   4.303  22.994  0.00  0.00    -0.371 OA
ATOM      8  C   UNL     1     -15.147   5.719  22.663  0.00  0.00    +0.111 C 
ATOM      9  C   UNL     1     -14.873   4.801  23.839  0.00  0.00    +0.164 C 
ATOM     10  C   UNL     1     -15.868   3.679  23.573  0.00  0.00    +0.164 C 
ATOM     11  C   UNL     1     -16.659   5.622  22.551  0.00  0.00    +0.181 C 
ENDROOT
BRANCH   9   3
ATOM      3  O   UNL     1     -13.540   4.328  23.864  0.00  0.00    -0.388 OA
ATOM     23  H   UNL     1     -13.559   3.356  23.844  0.00  0.00    +0.210 HD
ENDBRANCH   9   3
BRANCH   8   6
ATOM      6  N   UNL     1     -14.679   7.081  22.864  0.00  0.00    -0.307 NA
ATOM     22  H   UNL     1     -14.040   7.118  23.657  0.00  0.00    +0.123 HD
BRANCH   6  13
ATOM     13  C   UNL     1     -14.020   7.592  21.669  0.00  0.00    +0.048 C 
ATOM     14  C   UNL     1     -13.442   8.974  21.959  0.00  0.00    +0.023 C 
ATOM     15  C   UNL     1     -12.928   6.627  21.214  0.00  0.00    +0.023 C 
ENDBRANCH   6  13
ENDBRANCH   8   6
BRANCH  10  12
ATOM     12  C   UNL     1     -16.268   2.921  24.827  0.00  0.00    +0.140 C 
BRANCH  12   7
ATOM      7  N   UNL     1     -15.830   3.671  26.020  0.00  0.00    -0.187 NA
ATOM     24  H   UNL     1     -14.814   3.769  26.138  0.00  0.00    +0.148 HD
BRANCH   7   1
ATOM      1  S   UNL     1     -16.814   3.714  27.408  0.00  0.00    +0.058 S 
ATOM      4  O   UNL     1     -18.058   3.019  27.137  0.00  0.00    -0.153 OA
ATOM      5  O   UNL     1     -16.832   5.066  27.931  0.00  0.00    -0.153 OA
BRANCH   1  16
ATOM     16  C   UNL     1     -15.879   2.733  28.544  0.00  0.00    +0.105 A 
ATOM     17  C   UNL     1     -16.067   1.352  28.591  0.00  0.00    +0.028 A 
ATOM     18  C   UNL     1     -14.957   3.342  29.397  0.00  0.00    +0.028 A 
ATOM     19  C   UNL     1     -15.332   0.579  29.489  0.00  0.00    +0.002 A 
ATOM     20  C   UNL     1     -14.224   2.568  30.295  0.00  0.00    +0.002 A 
ATOM     21  C   UNL     1     -14.410   1.187  30.342  0.00  0.00    +0.000 A 
ENDBRANCH   1  16
ENDBRANCH   7   1
ENDBRANCH  12   7
ENDBRANCH  10  12
TORSDOF 7
ENDMDL
