REMARK  Name = 45784388
REMARK  14 active torsions:
REMARK  status: ('A' for Active; 'I' for Inactive)
REMARK    1  A    between atoms: O_1  and  C_11
REMARK    2  A    between atoms: O_4  and  C_31
REMARK    3  A    between atoms: O_4  and  C_37
REMARK    4  A    between atoms: O_5  and  C_32
REMARK    5  A    between atoms: O_5  and  C_38
REMARK    6  A    between atoms: N_6  and  C_15
REMARK    7  A    between atoms: N_7  and  C_25
REMARK    8  A    between atoms: C_8  and  C_18
REMARK    9  A    between atoms: C_10  and  C_20
REMARK   10  A    between atoms: C_14  and  C_19
REMARK   11  A    between atoms: C_19  and  C_21
REMARK   12  A    between atoms: C_19  and  C_22
REMARK   13  A    between atoms: C_23  and  C_24
REMARK   14  A    between atoms: C_25  and  C_28
REMARK                            x       y       z     vdW  Elec       q    Type
REMARK                         _______ _______ _______ _____ _____    ______ ____
ROOT
ATOM      8  C   UNL     1      -0.277  -0.126   1.361  0.00  0.00    -0.027 C 
ATOM      9  C   UNL     1       0.068   0.513  -0.026  0.00  0.00    +0.028 C 
ATOM     10  C   UNL     1       1.611   0.781  -0.149  0.00  0.00    +0.012 C 
ATOM     11  C   UNL     1      -0.849   1.733  -0.328  0.00  0.00    +0.122 C 
ATOM     12  C   UNL     1      -1.782  -0.481   1.405  0.00  0.00    +0.007 C 
ATOM     13  C   UNL     1       0.522  -1.440   1.523  0.00  0.00    +0.009 C 
ATOM     14  C   UNL     1      -2.351   1.399  -0.180  0.00  0.00    +0.029 C 
ATOM     15  C   UNL     1       2.407  -0.532   0.090  0.00  0.00    +0.076 C 
ATOM     16  C   UNL     1      -2.683   0.720   1.148  0.00  0.00    +0.007 C 
ATOM     17  C   UNL     1       2.025  -1.247   1.386  0.00  0.00    +0.023 C 
ATOM     18  C   UNL     1       0.048   0.818   2.546  0.00  0.00    +0.011 C 
ATOM     20  C   UNL     1       2.025   1.384  -1.502  0.00  0.00    +0.010 C 
ENDROOT
BRANCH  15   6
ATOM      3  O   UNL     1       4.447  -2.354  -0.785  0.00  0.00    -0.270 OA
ATOM      6  N   UNL     1       3.836  -0.299   0.099  0.00  0.00    -0.308 N 
ATOM     23  C   UNL     1       4.743  -1.246  -0.346  0.00  0.00    +0.244 C 
ATOM     39  H   UNL     1       4.159   0.548   0.554  0.00  0.00    +0.149 HD
BRANCH  23  24
ATOM     24  C   UNL     1       6.175  -0.864  -0.247  0.00  0.00    +0.037 A 
ATOM     26  C   UNL     1       7.152  -1.851  -0.115  0.00  0.00    +0.016 A 
ATOM     27  C   UNL     1       6.543   0.481  -0.286  0.00  0.00    +0.016 A 
ATOM     29  C   UNL     1       8.497  -1.492  -0.020  0.00  0.00    +0.046 A 
ATOM     30  C   UNL     1       7.888   0.840  -0.192  0.00  0.00    +0.046 A 
ATOM     31  C   UNL     1       8.865  -0.147  -0.059  0.00  0.00    +0.120 A 
BRANCH  31   4
ATOM      4  O   UNL     1      10.177   0.203   0.034  0.00  0.00    -0.495 OA
ATOM     37  C   UNL     1      10.482   1.596  -0.013  0.00  0.00    +0.277 C 
ENDBRANCH  31   4
ENDBRANCH  23  24
ENDBRANCH  15   6
BRANCH  11   1
ATOM      1  O   UNL     1      -0.655   2.152  -1.680  0.00  0.00    -0.391 OA
ATOM     40  H   UNL     1      -0.880   1.407  -2.263  0.00  0.00    +0.210 HD
ENDBRANCH  11   1
BRANCH  14  19
ATOM     19  C   UNL     1      -3.231   2.643  -0.353  0.00  0.00    +0.077 C 
ATOM     21  C   UNL     1      -2.865   3.693   0.689  0.00  0.00    +0.017 C 
BRANCH  19  22
ATOM      2  O   UNL     1      -5.466   2.738   0.575  0.00  0.00    -0.276 OA
ATOM      7  N   UNL     1      -5.067   1.313  -1.211  0.00  0.00    -0.311 N 
ATOM     22  C   UNL     1      -4.704   2.256  -0.260  0.00  0.00    +0.216 C 
ATOM     41  H   UNL     1      -4.390   1.003  -1.901  0.00  0.00    +0.149 HD
BRANCH   7  25
ATOM     25  C   UNL     1      -6.408   0.789  -1.320  0.00  0.00    +0.143 C 
BRANCH  25  28
ATOM     28  C   UNL     1      -6.618  -0.407  -0.438  0.00  0.00    +0.011 A 
ATOM     32  C   UNL     1      -6.090  -1.651  -0.786  0.00  0.00    +0.125 A 
ATOM     33  C   UNL     1      -7.349  -0.265   0.742  0.00  0.00    +0.009 A 
ATOM     34  C   UNL     1      -6.294  -2.752   0.045  0.00  0.00    +0.046 A 
ATOM     35  C   UNL     1      -7.553  -1.367   1.573  0.00  0.00    +0.001 A 
ATOM     36  C   UNL     1      -7.025  -2.610   1.225  0.00  0.00    +0.004 A 
BRANCH  32   5
ATOM      5  O   UNL     1      -5.373  -1.807  -1.934  0.00  0.00    -0.495 OA
ATOM     38  C   UNL     1      -4.872  -3.113  -2.211  0.00  0.00    +0.277 C 
ENDBRANCH  32   5
ENDBRANCH  25  28
ENDBRANCH   7  25
ENDBRANCH  19  22
ENDBRANCH  14  19
TORSDOF 9
