MODEL 1
REMARK VINA RESULT:      -6.8      0.000      0.000
REMARK  Name = 75536875
REMARK  4 active torsions:
REMARK  status: ('A' for Active; 'I' for Inactive)
REMARK    1  A    between atoms: O_6  and  C_15
REMARK    2  A    between atoms: O_6  and  C_18
REMARK    3  A    between atoms: C_8  and  C_12
REMARK    4  A    between atoms: C_23  and  C_24
REMARK                            x       y       z     vdW  Elec       q    Type
REMARK                         _______ _______ _______ _____ _____    ______ ____
ROOT
ATOM      4  O   UNL     1      13.790   8.806  16.826  0.00  0.00    -0.375 OA
ATOM      5  O   UNL     1      12.335  12.166  20.083  0.00  0.00    -0.275 OA
ATOM      7  N   UNL     1      13.574  10.252  19.615  0.00  0.00    -0.295 N 
ATOM     12  C   UNL     1      12.746  11.050  20.434  0.00  0.00    +0.219 C 
ATOM     13  C   UNL     1      14.063   8.943  20.053  0.00  0.00    +0.154 C 
ATOM     14  C   UNL     1      13.970  10.750  18.296  0.00  0.00    +0.136 C 
ATOM     15  C   UNL     1      14.637   8.017  18.977  0.00  0.00    +0.216 C 
ATOM     16  C   UNL     1      13.199  10.049  17.187  0.00  0.00    +0.179 C 
ATOM     17  C   UNL     1      13.678   7.785  17.812  0.00  0.00    +0.206 C 
ENDROOT
BRANCH  12   8
ATOM      8  C   UNL     1      12.375  10.481  21.806  0.00  0.00    +0.075 C 
ATOM      9  C   UNL     1      10.995   9.789  21.945  0.00  0.00    +0.013 C 
ATOM     10  C   UNL     1      11.886  11.473  22.895  0.00  0.00    +0.013 C 
ATOM     11  C   UNL     1      10.917  10.373  23.369  0.00  0.00    +0.001 C 
ENDBRANCH  12   8
BRANCH  15   6
ATOM      6  O   UNL     1      14.898   6.751  19.585  0.00  0.00    -0.485 OA
BRANCH   6  18
ATOM     18  C   UNL     1      16.205   6.466  19.866  0.00  0.00    +0.121 A 
ATOM     19  C   UNL     1      16.760   6.865  21.082  0.00  0.00    +0.046 A 
ATOM     20  C   UNL     1      16.984   5.777  18.936  0.00  0.00    +0.046 A 
ATOM     21  C   UNL     1      18.094   6.575  21.369  0.00  0.00    +0.016 A 
ATOM     22  C   UNL     1      18.318   5.487  19.223  0.00  0.00    +0.016 A 
ATOM     23  C   UNL     1      18.873   5.887  20.439  0.00  0.00    +0.055 A 
BRANCH  23  24
ATOM      1  F   UNL     1      20.586   5.584  22.081  0.00  0.00    -0.166 F 
ATOM      2  F   UNL     1      21.183   6.458  20.188  0.00  0.00    -0.166 F 
ATOM      3  F   UNL     1      20.678   4.346  20.296  0.00  0.00    -0.166 F 
ATOM     24  C   UNL     1      20.299   5.577  20.745  0.00  0.00    +0.417 C 
ENDBRANCH  23  24
ENDBRANCH   6  18
ENDBRANCH  15   6
TORSDOF 4
ENDMDL
MODEL 2
REMARK VINA RESULT:      -6.2     14.854     17.626
REMARK  Name = 75536875
REMARK  4 active torsions:
REMARK  status: ('A' for Active; 'I' for Inactive)
REMARK    1  A    between atoms: O_6  and  C_15
REMARK    2  A    between atoms: O_6  and  C_18
REMARK    3  A    between atoms: C_8  and  C_12
REMARK    4  A    between atoms: C_23  and  C_24
REMARK                            x       y       z     vdW  Elec       q    Type
REMARK                         _______ _______ _______ _____ _____    ______ ____
ROOT
ATOM      4  O   UNL     1       7.856  11.891   5.544  0.00  0.00    -0.375 OA
ATOM      5  O   UNL     1       4.250  11.516   2.246  0.00  0.00    -0.275 OA
ATOM      7  N   UNL     1       5.852  10.471   3.572  0.00  0.00    -0.295 N 
ATOM     12  C   UNL     1       5.104  10.627   2.386  0.00  0.00    +0.219 C 
ATOM     13  C   UNL     1       6.845   9.405   3.724  0.00  0.00    +0.154 C 
ATOM     14  C   UNL     1       5.621  11.388   4.691  0.00  0.00    +0.136 C 
ATOM     15  C   UNL     1       7.841   9.540   4.880  0.00  0.00    +0.216 C 
ATOM     16  C   UNL     1       6.748  12.404   4.813  0.00  0.00    +0.179 C 
ATOM     17  C   UNL     1       8.589  10.870   4.874  0.00  0.00    +0.206 C 
ENDROOT
BRANCH  12   8
ATOM      8  C   UNL     1       5.381   9.631   1.256  0.00  0.00    +0.075 C 
ATOM      9  C   UNL     1       6.158  10.150   0.019  0.00  0.00    +0.013 C 
ATOM     10  C   UNL     1       4.223   9.303   0.278  0.00  0.00    +0.013 C 
ATOM     11  C   UNL     1       5.278   9.224  -0.842  0.00  0.00    +0.001 C 
ENDBRANCH  12   8
BRANCH  15   6
ATOM      6  O   UNL     1       8.808   8.497   4.747  0.00  0.00    -0.485 OA
BRANCH   6  18
ATOM     18  C   UNL     1       8.957   7.662   5.819  0.00  0.00    +0.121 A 
ATOM     19  C   UNL     1       9.349   6.337   5.623  0.00  0.00    +0.046 A 
ATOM     20  C   UNL     1       8.717   8.134   7.110  0.00  0.00    +0.046 A 
ATOM     21  C   UNL     1       9.501   5.485   6.716  0.00  0.00    +0.016 A 
ATOM     22  C   UNL     1       8.869   7.282   8.203  0.00  0.00    +0.016 A 
ATOM     23  C   UNL     1       9.260   5.957   8.006  0.00  0.00    +0.055 A 
BRANCH  23  24
ATOM      1  F   UNL     1       9.532   3.728   8.832  0.00  0.00    -0.166 F 
ATOM      2  F   UNL     1       8.381   5.097  10.058  0.00  0.00    -0.166 F 
ATOM      3  F   UNL     1      10.538   5.326   9.910  0.00  0.00    -0.166 F 
ATOM     24  C   UNL     1       9.422   5.046   9.175  0.00  0.00    +0.417 C 
ENDBRANCH  23  24
ENDBRANCH   6  18
ENDBRANCH  15   6
TORSDOF 4
ENDMDL
MODEL 3
REMARK VINA RESULT:      -6.2     15.399     18.202
REMARK  Name = 75536875
REMARK  4 active torsions:
REMARK  status: ('A' for Active; 'I' for Inactive)
REMARK    1  A    between atoms: O_6  and  C_15
REMARK    2  A    between atoms: O_6  and  C_18
REMARK    3  A    between atoms: C_8  and  C_12
REMARK    4  A    between atoms: C_23  and  C_24
REMARK                            x       y       z     vdW  Elec       q    Type
REMARK                         _______ _______ _______ _____ _____    ______ ____
ROOT
ATOM      4  O   UNL     1       9.525   7.327   1.744  0.00  0.00    -0.375 OA
ATOM      5  O   UNL     1      12.319   4.638  -1.253  0.00  0.00    -0.275 OA
ATOM      7  N   UNL     1      11.765   5.273   0.916  0.00  0.00    -0.295 N 
ATOM     12  C   UNL     1      12.678   4.917  -0.099  0.00  0.00    +0.219 C 
ATOM     13  C   UNL     1      12.207   5.584   2.278  0.00  0.00    +0.154 C 
ATOM     14  C   UNL     1      10.334   5.319   0.609  0.00  0.00    +0.136 C 
ATOM     15  C   UNL     1      11.205   6.299   3.190  0.00  0.00    +0.216 C 
ATOM     16  C   UNL     1       9.842   6.754   0.480  0.00  0.00    +0.179 C 
ATOM     17  C   UNL     1      10.649   7.583   2.580  0.00  0.00    +0.206 C 
ENDROOT
BRANCH  12   8
ATOM      8  C   UNL     1      14.160   4.875   0.286  0.00  0.00    +0.075 C 
ATOM      9  C   UNL     1      15.181   4.551  -0.834  0.00  0.00    +0.013 C 
ATOM     10  C   UNL     1      14.687   3.607   1.008  0.00  0.00    +0.013 C 
ATOM     11  C   UNL     1      16.000   3.784   0.222  0.00  0.00    +0.001 C 
ENDBRANCH  12   8
BRANCH  15   6
ATOM      6  O   UNL     1      11.885   6.649   4.396  0.00  0.00    -0.485 OA
BRANCH   6  18
ATOM     18  C   UNL     1      11.314   6.226   5.564  0.00  0.00    +0.121 A 
ATOM     19  C   UNL     1      11.795   6.697   6.786  0.00  0.00    +0.046 A 
ATOM     20  C   UNL     1      10.250   5.324   5.535  0.00  0.00    +0.046 A 
ATOM     21  C   UNL     1      11.213   6.267   7.978  0.00  0.00    +0.016 A 
ATOM     22  C   UNL     1       9.668   4.893   6.727  0.00  0.00    +0.016 A 
ATOM     23  C   UNL     1      10.150   5.364   7.948  0.00  0.00    +0.055 A 
BRANCH  23  24
ATOM      1  F   UNL     1       9.072   3.616   9.175  0.00  0.00    -0.166 F 
ATOM      2  F   UNL     1       8.448   5.648   9.606  0.00  0.00    -0.166 F 
ATOM      3  F   UNL     1      10.393   4.946  10.276  0.00  0.00    -0.166 F 
ATOM     24  C   UNL     1       9.528   4.903   9.222  0.00  0.00    +0.417 C 
ENDBRANCH  23  24
ENDBRANCH   6  18
ENDBRANCH  15   6
TORSDOF 4
ENDMDL
MODEL 4
REMARK VINA RESULT:      -6.2     24.391     27.320
REMARK  Name = 75536875
REMARK  4 active torsions:
REMARK  status: ('A' for Active; 'I' for Inactive)
REMARK    1  A    between atoms: O_6  and  C_15
REMARK    2  A    between atoms: O_6  and  C_18
REMARK    3  A    between atoms: C_8  and  C_12
REMARK    4  A    between atoms: C_23  and  C_24
REMARK                            x       y       z     vdW  Elec       q    Type
REMARK                         _______ _______ _______ _____ _____    ______ ____
ROOT
ATOM      4  O   UNL     1     -12.960  11.827  17.070  0.00  0.00    -0.375 OA
ATOM      5  O   UNL     1      -9.050  13.507  14.638  0.00  0.00    -0.275 OA
ATOM      7  N   UNL     1      -9.922  12.118  16.289  0.00  0.00    -0.295 N 
ATOM     12  C   UNL     1      -8.951  12.995  15.764  0.00  0.00    +0.219 C 
ATOM     13  C   UNL     1      -9.780  11.511  17.615  0.00  0.00    +0.154 C 
ATOM     14  C   UNL     1     -11.100  11.788  15.484  0.00  0.00    +0.136 C 
ATOM     15  C   UNL     1     -11.032  10.879  18.231  0.00  0.00    +0.216 C 
ATOM     16  C   UNL     1     -12.337  12.516  15.991  0.00  0.00    +0.179 C 
ATOM     17  C   UNL     1     -12.220  11.835  18.286  0.00  0.00    +0.206 C 
ENDROOT
BRANCH  12   8
ATOM      8  C   UNL     1      -7.736  13.292  16.647  0.00  0.00    +0.075 C 
ATOM      9  C   UNL     1      -7.591  14.732  17.205  0.00  0.00    +0.013 C 
ATOM     10  C   UNL     1      -6.369  13.522  15.950  0.00  0.00    +0.013 C 
ATOM     11  C   UNL     1      -6.067  14.576  17.032  0.00  0.00    +0.001 C 
ENDBRANCH  12   8
BRANCH  15   6
ATOM      6  O   UNL     1     -10.714  10.500  19.571  0.00  0.00    -0.485 OA
BRANCH   6  18
ATOM     18  C   UNL     1     -11.436   9.467  20.101  0.00  0.00    +0.121 A 
ATOM     19  C   UNL     1     -11.171   8.156  19.704  0.00  0.00    +0.046 A 
ATOM     20  C   UNL     1     -12.437   9.723  21.038  0.00  0.00    +0.046 A 
ATOM     21  C   UNL     1     -11.908   7.101  20.244  0.00  0.00    +0.016 A 
ATOM     22  C   UNL     1     -13.174   8.669  21.577  0.00  0.00    +0.016 A 
ATOM     23  C   UNL     1     -12.909   7.358  21.179  0.00  0.00    +0.055 A 
BRANCH  23  24
ATOM      1  F   UNL     1     -12.936   5.146  22.090  0.00  0.00    -0.166 F 
ATOM      2  F   UNL     1     -14.656   5.745  20.913  0.00  0.00    -0.166 F 
ATOM      3  F   UNL     1     -14.357   6.581  22.898  0.00  0.00    -0.166 F 
ATOM     24  C   UNL     1     -13.697   6.231  21.756  0.00  0.00    +0.417 C 
ENDBRANCH  23  24
ENDBRANCH   6  18
ENDBRANCH  15   6
TORSDOF 4
ENDMDL
MODEL 5
REMARK VINA RESULT:      -6.1     14.718     17.595
REMARK  Name = 75536875
REMARK  4 active torsions:
REMARK  status: ('A' for Active; 'I' for Inactive)
REMARK    1  A    between atoms: O_6  and  C_15
REMARK    2  A    between atoms: O_6  and  C_18
REMARK    3  A    between atoms: C_8  and  C_12
REMARK    4  A    between atoms: C_23  and  C_24
REMARK                            x       y       z     vdW  Elec       q    Type
REMARK                         _______ _______ _______ _____ _____    ______ ____
ROOT
ATOM      4  O   UNL     1       9.796   9.144   1.819  0.00  0.00    -0.375 OA
ATOM      5  O   UNL     1      11.585   5.042  -0.179  0.00  0.00    -0.275 OA
ATOM      7  N   UNL     1      11.055   6.258   1.733  0.00  0.00    -0.295 N 
ATOM     12  C   UNL     1      11.864   5.381   0.981  0.00  0.00    +0.219 C 
ATOM     13  C   UNL     1      11.393   6.634   3.108  0.00  0.00    +0.154 C 
ATOM     14  C   UNL     1       9.834   6.799   1.132  0.00  0.00    +0.136 C 
ATOM     15  C   UNL     1      10.669   7.848   3.697  0.00  0.00    +0.216 C 
ATOM     16  C   UNL     1      10.014   8.255   0.729  0.00  0.00    +0.179 C 
ATOM     17  C   UNL     1      10.796   9.099   2.832  0.00  0.00    +0.206 C 
ENDROOT
BRANCH  12   8
ATOM      8  C   UNL     1      13.122   4.839   1.667  0.00  0.00    +0.075 C 
ATOM      9  C   UNL     1      14.470   4.994   0.917  0.00  0.00    +0.013 C 
ATOM     10  C   UNL     1      13.374   3.309   1.618  0.00  0.00    +0.013 C 
ATOM     11  C   UNL     1      14.877   3.626   1.498  0.00  0.00    +0.001 C 
ENDBRANCH  12   8
BRANCH  15   6
ATOM      6  O   UNL     1      11.259   8.135   4.966  0.00  0.00    -0.485 OA
BRANCH   6  18
ATOM     18  C   UNL     1      10.831   7.381   6.023  0.00  0.00    +0.121 A 
ATOM     19  C   UNL     1      11.757   6.698   6.813  0.00  0.00    +0.046 A 
ATOM     20  C   UNL     1       9.469   7.292   6.311  0.00  0.00    +0.046 A 
ATOM     21  C   UNL     1      11.321   5.927   7.891  0.00  0.00    +0.016 A 
ATOM     22  C   UNL     1       9.033   6.522   7.389  0.00  0.00    +0.016 A 
ATOM     23  C   UNL     1       9.959   5.839   8.177  0.00  0.00    +0.055 A 
BRANCH  23  24
ATOM      1  F   UNL     1       8.329   5.463   9.888  0.00  0.00    -0.166 F 
ATOM      2  F   UNL     1      10.385   4.964  10.363  0.00  0.00    -0.166 F 
ATOM      3  F   UNL     1       9.256   3.716   8.986  0.00  0.00    -0.166 F 
ATOM     24  C   UNL     1       9.492   5.015   9.330  0.00  0.00    +0.417 C 
ENDBRANCH  23  24
ENDBRANCH   6  18
ENDBRANCH  15   6
TORSDOF 4
ENDMDL
MODEL 6
REMARK VINA RESULT:      -6.0      5.016      9.238
REMARK  Name = 75536875
REMARK  4 active torsions:
REMARK  status: ('A' for Active; 'I' for Inactive)
REMARK    1  A    between atoms: O_6  and  C_15
REMARK    2  A    between atoms: O_6  and  C_18
REMARK    3  A    between atoms: C_8  and  C_12
REMARK    4  A    between atoms: C_23  and  C_24
REMARK                            x       y       z     vdW  Elec       q    Type
REMARK                         _______ _______ _______ _____ _____    ______ ____
ROOT
ATOM      4  O   UNL     1      21.402   8.821  21.674  0.00  0.00    -0.375 OA
ATOM      5  O   UNL     1      24.773   5.512  20.369  0.00  0.00    -0.275 OA
ATOM      7  N   UNL     1      22.531   6.112  20.531  0.00  0.00    -0.295 N 
ATOM     12  C   UNL     1      23.598   5.192  20.602  0.00  0.00    +0.219 C 
ATOM     13  C   UNL     1      21.147   5.711  20.795  0.00  0.00    +0.154 C 
ATOM     14  C   UNL     1      22.807   7.504  20.169  0.00  0.00    +0.136 C 
ATOM     15  C   UNL     1      20.132   6.831  21.047  0.00  0.00    +0.216 C 
ATOM     16  C   UNL     1      22.736   8.415  21.386  0.00  0.00    +0.179 C 
ATOM     17  C   UNL     1      20.557   7.784  22.161  0.00  0.00    +0.206 C 
ENDROOT
BRANCH  12   8
ATOM      8  C   UNL     1      23.245   3.749  20.974  0.00  0.00    +0.075 C 
ATOM      9  C   UNL     1      23.559   3.285  22.420  0.00  0.00    +0.013 C 
ATOM     10  C   UNL     1      24.202   2.623  20.501  0.00  0.00    +0.013 C 
ATOM     11  C   UNL     1      23.907   1.903  21.832  0.00  0.00    +0.001 C 
ENDBRANCH  12   8
BRANCH  15   6
ATOM      6  O   UNL     1      18.901   6.223  21.440  0.00  0.00    -0.485 OA
BRANCH   6  18
ATOM     18  C   UNL     1      17.797   6.546  20.700  0.00  0.00    +0.121 A 
ATOM     19  C   UNL     1      17.564   5.908  19.481  0.00  0.00    +0.046 A 
ATOM     20  C   UNL     1      16.905   7.514  21.163  0.00  0.00    +0.046 A 
ATOM     21  C   UNL     1      16.438   6.237  18.726  0.00  0.00    +0.016 A 
ATOM     22  C   UNL     1      15.780   7.843  20.407  0.00  0.00    +0.016 A 
ATOM     23  C   UNL     1      15.548   7.205  19.189  0.00  0.00    +0.055 A 
BRANCH  23  24
ATOM      1  F   UNL     1      14.458   7.230  17.059  0.00  0.00    -0.166 F 
ATOM      2  F   UNL     1      14.049   8.892  18.391  0.00  0.00    -0.166 F 
ATOM      3  F   UNL     1      13.215   6.930  18.818  0.00  0.00    -0.166 F 
ATOM     24  C   UNL     1      14.345   7.558  18.381  0.00  0.00    +0.417 C 
ENDBRANCH  23  24
ENDBRANCH   6  18
ENDBRANCH  15   6
TORSDOF 4
ENDMDL
MODEL 7
REMARK VINA RESULT:      -6.0     27.587     28.860
REMARK  Name = 75536875
REMARK  4 active torsions:
REMARK  status: ('A' for Active; 'I' for Inactive)
REMARK    1  A    between atoms: O_6  and  C_15
REMARK    2  A    between atoms: O_6  and  C_18
REMARK    3  A    between atoms: C_8  and  C_12
REMARK    4  A    between atoms: C_23  and  C_24
REMARK                            x       y       z     vdW  Elec       q    Type
REMARK                         _______ _______ _______ _____ _____    ______ ____
ROOT
ATOM      4  O   UNL     1      -3.374 -13.806  14.295  0.00  0.00    -0.375 OA
ATOM      5  O   UNL     1      -3.608 -11.864   9.801  0.00  0.00    -0.275 OA
ATOM      7  N   UNL     1      -2.979 -11.652  12.031  0.00  0.00    -0.295 N 
ATOM     12  C   UNL     1      -3.493 -11.158  10.814  0.00  0.00    +0.219 C 
ATOM     13  C   UNL     1      -2.835 -10.798  13.212  0.00  0.00    +0.154 C 
ATOM     14  C   UNL     1      -2.560 -13.053  12.116  0.00  0.00    +0.136 C 
ATOM     15  C   UNL     1      -2.618 -11.498  14.557  0.00  0.00    +0.216 C 
ATOM     16  C   UNL     1      -3.575 -13.886  12.888  0.00  0.00    +0.179 C 
ATOM     17  C   UNL     1      -3.688 -12.541  14.869  0.00  0.00    +0.206 C 
ENDROOT
BRANCH  12   8
ATOM      8  C   UNL     1      -3.902  -9.682  10.782  0.00  0.00    +0.075 C 
ATOM      9  C   UNL     1      -5.410  -9.354  10.930  0.00  0.00    +0.013 C 
ATOM     10  C   UNL     1      -3.976  -8.979   9.402  0.00  0.00    +0.013 C 
ATOM     11  C   UNL     1      -5.188  -8.194   9.939  0.00  0.00    +0.001 C 
ENDBRANCH  12   8
BRANCH  15   6
ATOM      6  O   UNL     1      -2.669 -10.503  15.580  0.00  0.00    -0.485 OA
BRANCH   6  18
ATOM     18  C   UNL     1      -3.568 -10.710  16.589  0.00  0.00    +0.121 A 
ATOM     19  C   UNL     1      -3.204 -11.466  17.704  0.00  0.00    +0.046 A 
ATOM     20  C   UNL     1      -4.850 -10.166  16.504  0.00  0.00    +0.046 A 
ATOM     21  C   UNL     1      -4.121 -11.678  18.733  0.00  0.00    +0.016 A 
ATOM     22  C   UNL     1      -5.767 -10.379  17.534  0.00  0.00    +0.016 A 
ATOM     23  C   UNL     1      -5.402 -11.135  18.647  0.00  0.00    +0.055 A 
BRANCH  23  24
ATOM      1  F   UNL     1      -6.969 -12.596  19.713  0.00  0.00    -0.166 F 
ATOM      2  F   UNL     1      -7.423 -10.476  19.746  0.00  0.00    -0.166 F 
ATOM      3  F   UNL     1      -5.818 -11.260  20.985  0.00  0.00    -0.166 F 
ATOM     24  C   UNL     1      -6.383 -11.362  19.748  0.00  0.00    +0.417 C 
ENDBRANCH  23  24
ENDBRANCH   6  18
ENDBRANCH  15   6
TORSDOF 4
ENDMDL
MODEL 8
REMARK VINA RESULT:      -5.9     28.328     30.200
REMARK  Name = 75536875
REMARK  4 active torsions:
REMARK  status: ('A' for Active; 'I' for Inactive)
REMARK    1  A    between atoms: O_6  and  C_15
REMARK    2  A    between atoms: O_6  and  C_18
REMARK    3  A    between atoms: C_8  and  C_12
REMARK    4  A    between atoms: C_23  and  C_24
REMARK                            x       y       z     vdW  Elec       q    Type
REMARK                         _______ _______ _______ _____ _____    ______ ____
ROOT
ATOM      4  O   UNL     1      -6.660 -12.368  18.452  0.00  0.00    -0.375 OA
ATOM      5  O   UNL     1      -2.251 -11.046  16.768  0.00  0.00    -0.275 OA
ATOM      7  N   UNL     1      -4.564 -10.800  16.700  0.00  0.00    -0.295 N 
ATOM     12  C   UNL     1      -3.285 -10.864  16.108  0.00  0.00    +0.219 C 
ATOM     13  C   UNL     1      -5.773 -10.568  15.905  0.00  0.00    +0.154 C 
ATOM     14  C   UNL     1      -4.691 -10.951  18.151  0.00  0.00    +0.136 C 
ATOM     15  C   UNL     1      -7.116 -10.874  16.574  0.00  0.00    +0.216 C 
ATOM     16  C   UNL     1      -5.239 -12.323  18.517  0.00  0.00    +0.179 C 
ATOM     17  C   UNL     1      -7.198 -12.290  17.136  0.00  0.00    +0.206 C 
ENDROOT
BRANCH  12   8
ATOM      8  C   UNL     1      -3.216 -10.686  14.589  0.00  0.00    +0.075 C 
ATOM      9  C   UNL     1      -3.144 -11.969  13.720  0.00  0.00    +0.013 C 
ATOM     10  C   UNL     1      -1.849 -10.297  13.965  0.00  0.00    +0.013 C 
ATOM     11  C   UNL     1      -2.214 -11.194  12.767  0.00  0.00    +0.001 C 
ENDBRANCH  12   8
BRANCH  15   6
ATOM      6  O   UNL     1      -8.137 -10.739  15.583  0.00  0.00    -0.485 OA
BRANCH   6  18
ATOM     18  C   UNL     1      -8.962  -9.656  15.700  0.00  0.00    +0.121 A 
ATOM     19  C   UNL     1      -9.090  -9.005  16.928  0.00  0.00    +0.046 A 
ATOM     20  C   UNL     1      -9.678  -9.200  14.593  0.00  0.00    +0.046 A 
ATOM     21  C   UNL     1      -9.932  -7.900  17.049  0.00  0.00    +0.016 A 
ATOM     22  C   UNL     1     -10.521  -8.095  14.713  0.00  0.00    +0.016 A 
ATOM     23  C   UNL     1     -10.648  -7.446  15.941  0.00  0.00    +0.055 A 
BRANCH  23  24
ATOM      1  F   UNL     1     -11.205  -5.423  17.089  0.00  0.00    -0.166 F 
ATOM      2  F   UNL     1     -12.854  -6.594  16.306  0.00  0.00    -0.166 F 
ATOM      3  F   UNL     1     -11.565  -5.491  14.946  0.00  0.00    -0.166 F 
ATOM     24  C   UNL     1     -11.549  -6.265  16.070  0.00  0.00    +0.417 C 
ENDBRANCH  23  24
ENDBRANCH   6  18
ENDBRANCH  15   6
TORSDOF 4
ENDMDL
MODEL 9
REMARK VINA RESULT:      -5.9     17.836     20.587
REMARK  Name = 75536875
REMARK  4 active torsions:
REMARK  status: ('A' for Active; 'I' for Inactive)
REMARK    1  A    between atoms: O_6  and  C_15
REMARK    2  A    between atoms: O_6  and  C_18
REMARK    3  A    between atoms: C_8  and  C_12
REMARK    4  A    between atoms: C_23  and  C_24
REMARK                            x       y       z     vdW  Elec       q    Type
REMARK                         _______ _______ _______ _____ _____    ______ ____
ROOT
ATOM      4  O   UNL     1      14.311   3.870   1.442  0.00  0.00    -0.375 OA
ATOM      5  O   UNL     1      12.836   4.355  -3.207  0.00  0.00    -0.275 OA
ATOM      7  N   UNL     1      12.330   4.449  -0.938  0.00  0.00    -0.295 N 
ATOM     12  C   UNL     1      12.033   4.149  -2.284  0.00  0.00    +0.219 C 
ATOM     13  C   UNL     1      11.363   4.213   0.137  0.00  0.00    +0.154 C 
ATOM     14  C   UNL     1      13.633   5.027  -0.602  0.00  0.00    +0.136 C 
ATOM     15  C   UNL     1      11.898   4.227   1.572  0.00  0.00    +0.216 C 
ATOM     16  C   UNL     1      14.546   3.994   0.043  0.00  0.00    +0.179 C 
ATOM     17  C   UNL     1      13.067   3.269   1.785  0.00  0.00    +0.206 C 
ENDROOT
BRANCH  12   8
ATOM      8  C   UNL     1      10.651   3.558  -2.574  0.00  0.00    +0.075 C 
ATOM      9  C   UNL     1      10.569   2.037  -2.867  0.00  0.00    +0.013 C 
ATOM     10  C   UNL     1      10.053   3.771  -3.989  0.00  0.00    +0.013 C 
ATOM     11  C   UNL     1       9.450   2.358  -3.876  0.00  0.00    +0.001 C 
ENDBRANCH  12   8
BRANCH  15   6
ATOM      6  O   UNL     1      10.837   3.818   2.437  0.00  0.00    -0.485 OA
BRANCH   6  18
ATOM     18  C   UNL     1      10.400   4.742   3.345  0.00  0.00    +0.121 A 
ATOM     19  C   UNL     1      10.250   4.385   4.686  0.00  0.00    +0.046 A 
ATOM     20  C   UNL     1      10.102   6.041   2.933  0.00  0.00    +0.046 A 
ATOM     21  C   UNL     1       9.803   5.326   5.613  0.00  0.00    +0.016 A 
ATOM     22  C   UNL     1       9.655   6.982   3.860  0.00  0.00    +0.016 A 
ATOM     23  C   UNL     1       9.505   6.624   5.199  0.00  0.00    +0.055 A 
BRANCH  23  24
ATOM      1  F   UNL     1       8.936   8.897   5.685  0.00  0.00    -0.166 F 
ATOM      2  F   UNL     1       9.833   7.745   7.288  0.00  0.00    -0.166 F 
ATOM      3  F   UNL     1       7.786   7.341   6.677  0.00  0.00    -0.166 F 
ATOM     24  C   UNL     1       9.027   7.631   6.190  0.00  0.00    +0.417 C 
ENDBRANCH  23  24
ENDBRANCH   6  18
ENDBRANCH  15   6
TORSDOF 4
ENDMDL
MODEL 10
REMARK VINA RESULT:      -5.9     16.322     18.694
REMARK  Name = 75536875
REMARK  4 active torsions:
REMARK  status: ('A' for Active; 'I' for Inactive)
REMARK    1  A    between atoms: O_6  and  C_15
REMARK    2  A    between atoms: O_6  and  C_18
REMARK    3  A    between atoms: C_8  and  C_12
REMARK    4  A    between atoms: C_23  and  C_24
REMARK                            x       y       z     vdW  Elec       q    Type
REMARK                         _______ _______ _______ _____ _____    ______ ____
ROOT
ATOM      4  O   UNL     1       8.634   5.950   5.329  0.00  0.00    -0.375 OA
ATOM      5  O   UNL     1      12.178   9.309   5.755  0.00  0.00    -0.275 OA
ATOM      7  N   UNL     1      11.361   7.398   4.707  0.00  0.00    -0.295 N 
ATOM     12  C   UNL     1      12.390   8.194   5.254  0.00  0.00    +0.219 C 
ATOM     13  C   UNL     1      11.633   6.091   4.105  0.00  0.00    +0.154 C 
ATOM     14  C   UNL     1       9.984   7.896   4.724  0.00  0.00    +0.136 C 
ATOM     15  C   UNL     1      10.434   5.166   3.875  0.00  0.00    +0.216 C 
ATOM     16  C   UNL     1       9.155   7.192   5.789  0.00  0.00    +0.179 C 
ATOM     17  C   UNL     1       9.609   4.930   5.138  0.00  0.00    +0.206 C 
ENDROOT
BRANCH  12   8
ATOM      8  C   UNL     1      13.810   7.625   5.196  0.00  0.00    +0.075 C 
ATOM      9  C   UNL     1      14.789   8.027   6.329  0.00  0.00    +0.013 C 
ATOM     10  C   UNL     1      14.817   8.284   4.216  0.00  0.00    +0.013 C 
ATOM     11  C   UNL     1      15.910   8.031   5.271  0.00  0.00    +0.001 C 
ENDBRANCH  12   8
BRANCH  15   6
ATOM      6  O   UNL     1      10.936   3.901   3.441  0.00  0.00    -0.485 OA
BRANCH   6  18
ATOM     18  C   UNL     1      11.369   3.828   2.146  0.00  0.00    +0.121 A 
ATOM     19  C   UNL     1      10.539   4.251   1.108  0.00  0.00    +0.046 A 
ATOM     20  C   UNL     1      12.641   3.329   1.863  0.00  0.00    +0.046 A 
ATOM     21  C   UNL     1      10.980   4.177  -0.213  0.00  0.00    +0.016 A 
ATOM     22  C   UNL     1      13.082   3.255   0.542  0.00  0.00    +0.016 A 
ATOM     23  C   UNL     1      12.252   3.678  -0.495  0.00  0.00    +0.055 A 
BRANCH  23  24
ATOM      1  F   UNL     1      12.461   2.397  -2.506  0.00  0.00    -0.166 F 
ATOM      2  F   UNL     1      14.072   3.774  -2.046  0.00  0.00    -0.166 F 
ATOM      3  F   UNL     1      12.147   4.539  -2.709  0.00  0.00    -0.166 F 
ATOM     24  C   UNL     1      12.724   3.597  -1.908  0.00  0.00    +0.417 C 
ENDBRANCH  23  24
ENDBRANCH   6  18
ENDBRANCH  15   6
TORSDOF 4
ENDMDL
