MODEL 1
REMARK VINA RESULT:      -6.2      0.000      0.000
REMARK  Name = 7674051
REMARK  7 active torsions:
REMARK  status: ('A' for Active; 'I' for Inactive)
REMARK    1  A    between atoms: S_1  and  N_8
REMARK    2  A    between atoms: S_1  and  C_22
REMARK    3  A    between atoms: N_10  and  C_18
REMARK    4  A    between atoms: N_12  and  C_25
REMARK    5  A    between atoms: C_13  and  C_17
REMARK    6  A    between atoms: C_25  and  C_28
REMARK    7  A    between atoms: C_25  and  C_29
REMARK                            x       y       z     vdW  Elec       q    Type
REMARK                         _______ _______ _______ _____ _____    ______ ____
ROOT
ATOM      6  O   UNL     1      -4.868 -10.505  14.001  0.00  0.00    -0.253 OA
ATOM      8  N   UNL     1      -7.811 -11.094  18.070  0.00  0.00    -0.162 NA
ATOM      9  N   UNL     1      -5.658 -10.539  16.183  0.00  0.00    -0.282 N 
ATOM     12  N   UNL     1      -3.347 -10.587  15.726  0.00  0.00    -0.297 N 
ATOM     13  C   UNL     1      -7.908 -11.429  16.619  0.00  0.00    +0.183 C 
ATOM     14  C   UNL     1      -7.059 -10.496  15.763  0.00  0.00    +0.139 C 
ATOM     15  C   UNL     1      -6.665 -10.212  18.433  0.00  0.00    +0.129 C 
ATOM     16  C   UNL     1      -5.422 -10.579  17.632  0.00  0.00    +0.126 C 
ATOM     21  C   UNL     1      -4.640 -10.539  15.213  0.00  0.00    +0.303 C 
ATOM     35  H   UNL     1      -3.199 -10.747  16.715  0.00  0.00    +0.150 HD
ENDROOT
BRANCH  13  17
ATOM      3  O   UNL     1     -10.080 -12.246  16.086  0.00  0.00    -0.274 OA
ATOM     10  N   UNL     1      -9.729  -9.947  16.177  0.00  0.00    -0.303 N 
ATOM     17  C   UNL     1      -9.352 -11.275  16.274  0.00  0.00    +0.234 C 
ATOM     33  H   UNL     1      -9.045  -9.223  16.384  0.00  0.00    +0.149 HD
BRANCH  10  18
ATOM      7  O   UNL     1     -10.239  -9.258  13.582  0.00  0.00    -0.274 OA
ATOM     11  N   UNL     1     -11.956  -7.894  14.219  0.00  0.00    -0.314 N 
ATOM     18  C   UNL     1     -11.064  -9.530  15.834  0.00  0.00    +0.159 C 
ATOM     19  C   UNL     1     -11.657  -8.655  16.928  0.00  0.00    +0.033 C 
ATOM     20  C   UNL     1     -12.988  -8.088  16.464  0.00  0.00    +0.021 C 
ATOM     23  C   UNL     1     -11.011  -8.870  14.461  0.00  0.00    +0.233 C 
ATOM     24  C   UNL     1     -12.761  -7.235  15.230  0.00  0.00    +0.104 C 
ATOM     34  H   UNL     1     -11.969  -7.488  13.288  0.00  0.00    +0.149 HD
ENDBRANCH  10  18
ENDBRANCH  13  17
BRANCH   8   1
ATOM      1  S   UNL     1      -8.194 -12.342  19.176  0.00  0.00    +0.062 S 
ATOM      4  O   UNL     1      -7.335 -12.218  20.331  0.00  0.00    -0.153 OA
ATOM      5  O   UNL     1      -8.303 -13.585  18.448  0.00  0.00    -0.153 OA
BRANCH   1  22
ATOM      2  F   UNL     1     -13.617 -10.652  20.744  0.00  0.00    -0.205 F 
ATOM     22  C   UNL     1      -9.817 -11.836  19.646  0.00  0.00    +0.106 A 
ATOM     26  C   UNL     1     -10.823 -12.788  19.813  0.00  0.00    +0.031 A 
ATOM     27  C   UNL     1     -10.094 -10.484  19.850  0.00  0.00    +0.031 A 
ATOM     30  C   UNL     1     -12.107 -12.388  20.184  0.00  0.00    +0.040 A 
ATOM     31  C   UNL     1     -11.378 -10.085  20.221  0.00  0.00    +0.040 A 
ATOM     32  C   UNL     1     -12.384 -11.036  20.388  0.00  0.00    +0.124 A 
ENDBRANCH   1  22
ENDBRANCH   8   1
BRANCH  12  25
ATOM     25  C   UNL     1      -2.178 -10.600  14.876  0.00  0.00    +0.068 C 
ATOM     28  C   UNL     1      -1.001  -9.933  15.575  0.00  0.00    +0.027 C 
ATOM     29  C   UNL     1      -1.838 -12.027  14.464  0.00  0.00    +0.027 C 
ENDBRANCH  12  25
TORSDOF 5
ENDMDL
MODEL 2
REMARK VINA RESULT:      -6.0     27.120     30.757
REMARK  Name = 7674051
REMARK  7 active torsions:
REMARK  status: ('A' for Active; 'I' for Inactive)
REMARK    1  A    between atoms: S_1  and  N_8
REMARK    2  A    between atoms: S_1  and  C_22
REMARK    3  A    between atoms: N_10  and  C_18
REMARK    4  A    between atoms: N_12  and  C_25
REMARK    5  A    between atoms: C_13  and  C_17
REMARK    6  A    between atoms: C_25  and  C_28
REMARK    7  A    between atoms: C_25  and  C_29
REMARK                            x       y       z     vdW  Elec       q    Type
REMARK                         _______ _______ _______ _____ _____    ______ ____
ROOT
ATOM      6  O   UNL     1       9.362   7.528   4.609  0.00  0.00    -0.253 OA
ATOM      8  N   UNL     1      11.672   4.525   1.261  0.00  0.00    -0.162 NA
ATOM      9  N   UNL     1      10.297   5.683   3.557  0.00  0.00    -0.282 N 
ATOM     12  N   UNL     1      10.029   5.742   5.898  0.00  0.00    -0.297 N 
ATOM     13  C   UNL     1      11.414   5.990   1.388  0.00  0.00    +0.183 C 
ATOM     14  C   UNL     1      10.173   6.276   2.225  0.00  0.00    +0.139 C 
ATOM     15  C   UNL     1      10.940   3.674   2.241  0.00  0.00    +0.129 C 
ATOM     16  C   UNL     1      10.890   4.340   3.610  0.00  0.00    +0.126 C 
ATOM     21  C   UNL     1       9.857   6.400   4.683  0.00  0.00    +0.303 C 
ATOM     35  H   UNL     1      10.557   4.878   5.936  0.00  0.00    +0.150 HD
ENDROOT
BRANCH  13  17
ATOM      3  O   UNL     1      11.900   7.390  -0.475  0.00  0.00    -0.274 OA
ATOM     10  N   UNL     1      10.198   5.812  -0.660  0.00  0.00    -0.303 N 
ATOM     17  C   UNL     1      11.220   6.480  -0.007  0.00  0.00    +0.234 C 
ATOM     33  H   UNL     1       9.721   5.052  -0.182  0.00  0.00    +0.149 HD
BRANCH  10  18
ATOM      7  O   UNL     1       8.643   8.019  -1.083  0.00  0.00    -0.274 OA
ATOM     11  N   UNL     1       7.760   7.107  -2.981  0.00  0.00    -0.314 N 
ATOM     18  C   UNL     1       9.797   6.113  -2.010  0.00  0.00    +0.159 C 
ATOM     19  C   UNL     1       9.441   4.841  -2.766  0.00  0.00    +0.033 C 
ATOM     20  C   UNL     1       8.856   5.200  -4.122  0.00  0.00    +0.021 C 
ATOM     23  C   UNL     1       8.674   7.142  -1.947  0.00  0.00    +0.233 C 
ATOM     24  C   UNL     1       7.591   6.011  -3.918  0.00  0.00    +0.104 C 
ATOM     34  H   UNL     1       7.040   7.823  -2.982  0.00  0.00    +0.149 HD
ENDBRANCH  10  18
ENDBRANCH  13  17
BRANCH   8   1
ATOM      1  S   UNL     1      13.274   4.055   0.887  0.00  0.00    +0.062 S 
ATOM      4  O   UNL     1      13.575   2.833   1.596  0.00  0.00    -0.153 OA
ATOM      5  O   UNL     1      14.129   5.215   0.988  0.00  0.00    -0.153 OA
BRANCH   1  22
ATOM      2  F   UNL     1      12.621   2.743  -4.821  0.00  0.00    -0.205 F 
ATOM     22  C   UNL     1      13.079   3.662  -0.821  0.00  0.00    +0.106 A 
ATOM     26  C   UNL     1      13.765   4.397  -1.788  0.00  0.00    +0.031 A 
ATOM     27  C   UNL     1      12.239   2.617  -1.204  0.00  0.00    +0.031 A 
ATOM     30  C   UNL     1      13.610   4.087  -3.139  0.00  0.00    +0.040 A 
ATOM     31  C   UNL     1      12.084   2.307  -2.555  0.00  0.00    +0.040 A 
ATOM     32  C   UNL     1      12.769   3.041  -3.523  0.00  0.00    +0.124 A 
ENDBRANCH   1  22
ENDBRANCH   8   1
BRANCH  12  25
ATOM     25  C   UNL     1       9.640   6.331   7.159  0.00  0.00    +0.068 C 
ATOM     28  C   UNL     1       9.440   5.251   8.214  0.00  0.00    +0.027 C 
ATOM     29  C   UNL     1      10.675   7.355   7.607  0.00  0.00    +0.027 C 
ENDBRANCH  12  25
TORSDOF 5
ENDMDL
MODEL 3
REMARK VINA RESULT:      -5.9     26.978     32.146
REMARK  Name = 7674051
REMARK  7 active torsions:
REMARK  status: ('A' for Active; 'I' for Inactive)
REMARK    1  A    between atoms: S_1  and  N_8
REMARK    2  A    between atoms: S_1  and  C_22
REMARK    3  A    between atoms: N_10  and  C_18
REMARK    4  A    between atoms: N_12  and  C_25
REMARK    5  A    between atoms: C_13  and  C_17
REMARK    6  A    between atoms: C_25  and  C_28
REMARK    7  A    between atoms: C_25  and  C_29
REMARK                            x       y       z     vdW  Elec       q    Type
REMARK                         _______ _______ _______ _____ _____    ______ ____
ROOT
ATOM      6  O   UNL     1      11.740   7.355   6.185  0.00  0.00    -0.253 OA
ATOM      8  N   UNL     1      12.481   5.012   1.766  0.00  0.00    -0.162 NA
ATOM      9  N   UNL     1      11.506   5.958   4.345  0.00  0.00    -0.282 N 
ATOM     12  N   UNL     1      10.492   5.434   6.408  0.00  0.00    -0.297 N 
ATOM     13  C   UNL     1      13.244   5.979   2.607  0.00  0.00    +0.183 C 
ATOM     14  C   UNL     1      12.323   6.816   3.487  0.00  0.00    +0.139 C 
ATOM     15  C   UNL     1      11.073   4.781   2.199  0.00  0.00    +0.129 C 
ATOM     16  C   UNL     1      10.971   4.742   3.718  0.00  0.00    +0.126 C 
ATOM     21  C   UNL     1      11.278   6.326   5.683  0.00  0.00    +0.303 C 
ATOM     35  H   UNL     1      10.240   4.539   6.006  0.00  0.00    +0.150 HD
ENDROOT
BRANCH  13  17
ATOM      3  O   UNL     1      13.381   7.490   0.773  0.00  0.00    -0.274 OA
ATOM     10  N   UNL     1      15.340   6.833   1.843  0.00  0.00    -0.303 N 
ATOM     17  C   UNL     1      13.971   6.855   1.642  0.00  0.00    +0.234 C 
ATOM     33  H   UNL     1      15.717   6.291   2.616  0.00  0.00    +0.149 HD
BRANCH  10  18
ATOM      7  O   UNL     1      16.536   5.548  -0.252  0.00  0.00    -0.274 OA
ATOM     11  N   UNL     1      18.333   6.954  -0.167  0.00  0.00    -0.314 N 
ATOM     18  C   UNL     1      16.268   7.575   1.029  0.00  0.00    +0.159 C 
ATOM     19  C   UNL     1      17.133   8.486   1.888  0.00  0.00    +0.033 C 
ATOM     20  C   UNL     1      18.214   9.121   1.030  0.00  0.00    +0.021 C 
ATOM     23  C   UNL     1      17.052   6.579   0.183  0.00  0.00    +0.233 C 
ATOM     24  C   UNL     1      19.091   8.029   0.446  0.00  0.00    +0.104 C 
ATOM     34  H   UNL     1      18.845   6.326  -0.779  0.00  0.00    +0.149 HD
ENDBRANCH  10  18
ENDBRANCH  13  17
BRANCH   8   1
ATOM      1  S   UNL     1      13.338   3.645   1.194  0.00  0.00    +0.062 S 
ATOM      4  O   UNL     1      12.708   2.453   1.713  0.00  0.00    -0.153 OA
ATOM      5  O   UNL     1      14.752   3.885   1.363  0.00  0.00    -0.153 OA
BRANCH   1  22
ATOM      2  F   UNL     1      12.086   4.014  -4.553  0.00  0.00    -0.205 F 
ATOM     22  C   UNL     1      12.963   3.756  -0.526  0.00  0.00    +0.106 A 
ATOM     26  C   UNL     1      12.102   2.828  -1.113  0.00  0.00    +0.031 A 
ATOM     27  C   UNL     1      13.527   4.771  -1.299  0.00  0.00    +0.031 A 
ATOM     30  C   UNL     1      11.806   2.915  -2.473  0.00  0.00    +0.040 A 
ATOM     31  C   UNL     1      13.231   4.858  -2.659  0.00  0.00    +0.040 A 
ATOM     32  C   UNL     1      12.371   3.930  -3.247  0.00  0.00    +0.124 A 
ENDBRANCH   1  22
ENDBRANCH   8   1
BRANCH  12  25
ATOM     25  C   UNL     1      10.160   5.648   7.798  0.00  0.00    +0.068 C 
ATOM     28  C   UNL     1       9.033   6.664   7.929  0.00  0.00    +0.027 C 
ATOM     29  C   UNL     1       9.793   4.328   8.463  0.00  0.00    +0.027 C 
ENDBRANCH  12  25
TORSDOF 5
ENDMDL
MODEL 4
REMARK VINA RESULT:      -5.8      3.670      8.508
REMARK  Name = 7674051
REMARK  7 active torsions:
REMARK  status: ('A' for Active; 'I' for Inactive)
REMARK    1  A    between atoms: S_1  and  N_8
REMARK    2  A    between atoms: S_1  and  C_22
REMARK    3  A    between atoms: N_10  and  C_18
REMARK    4  A    between atoms: N_12  and  C_25
REMARK    5  A    between atoms: C_13  and  C_17
REMARK    6  A    between atoms: C_25  and  C_28
REMARK    7  A    between atoms: C_25  and  C_29
REMARK                            x       y       z     vdW  Elec       q    Type
REMARK                         _______ _______ _______ _____ _____    ______ ____
ROOT
ATOM      6  O   UNL     1      -9.137 -12.088  19.564  0.00  0.00    -0.253 OA
ATOM      8  N   UNL     1      -7.872 -10.687  14.873  0.00  0.00    -0.162 NA
ATOM      9  N   UNL     1      -8.997 -10.940  17.551  0.00  0.00    -0.282 N 
ATOM     12  N   UNL     1     -10.877 -10.712  18.953  0.00  0.00    -0.297 N 
ATOM     13  C   UNL     1      -7.604 -11.865  15.749  0.00  0.00    +0.183 C 
ATOM     14  C   UNL     1      -7.686 -11.503  17.227  0.00  0.00    +0.139 C 
ATOM     15  C   UNL     1      -8.518  -9.531  15.559  0.00  0.00    +0.129 C 
ATOM     16  C   UNL     1      -9.559 -10.009  16.564  0.00  0.00    +0.126 C 
ATOM     21  C   UNL     1      -9.634 -11.303  18.751  0.00  0.00    +0.303 C 
ATOM     35  H   UNL     1     -11.312 -10.177  18.210  0.00  0.00    +0.150 HD
ENDROOT
BRANCH  13  17
ATOM      3  O   UNL     1      -5.995 -13.431  14.958  0.00  0.00    -0.274 OA
ATOM     10  N   UNL     1      -5.277 -11.332  15.661  0.00  0.00    -0.303 N 
ATOM     17  C   UNL     1      -6.222 -12.309  15.402  0.00  0.00    +0.234 C 
ATOM     33  H   UNL     1      -5.585 -10.424  16.001  0.00  0.00    +0.149 HD
BRANCH  10  18
ATOM      7  O   UNL     1      -3.657 -11.692  17.832  0.00  0.00    -0.274 OA
ATOM     11  N   UNL     1      -1.855 -10.865  16.699  0.00  0.00    -0.314 N 
ATOM     18  C   UNL     1      -3.867 -11.519  15.434  0.00  0.00    +0.159 C 
ATOM     19  C   UNL     1      -3.371 -10.604  14.323  0.00  0.00    +0.033 C 
ATOM     20  C   UNL     1      -1.857 -10.695  14.226  0.00  0.00    +0.021 C 
ATOM     23  C   UNL     1      -3.149 -11.338  16.766  0.00  0.00    +0.233 C 
ATOM     24  C   UNL     1      -1.247 -10.240  15.538  0.00  0.00    +0.104 C 
ATOM     34  H   UNL     1      -1.345 -10.794  17.574  0.00  0.00    +0.149 HD
ENDBRANCH  10  18
ENDBRANCH  13  17
BRANCH   8   1
ATOM      1  S   UNL     1      -8.394 -11.016  13.277  0.00  0.00    +0.062 S 
ATOM      4  O   UNL     1      -9.476 -10.117  12.949  0.00  0.00    -0.153 OA
ATOM      5  O   UNL     1      -8.529 -12.446  13.124  0.00  0.00    -0.153 OA
BRANCH   1  22
ATOM      2  F   UNL     1      -3.615  -9.290  10.293  0.00  0.00    -0.205 F 
ATOM     22  C   UNL     1      -6.964 -10.500  12.383  0.00  0.00    +0.106 A 
ATOM     26  C   UNL     1      -6.094 -11.450  11.849  0.00  0.00    +0.031 A 
ATOM     27  C   UNL     1      -6.703  -9.140  12.212  0.00  0.00    +0.031 A 
ATOM     30  C   UNL     1      -4.963 -11.042  11.143  0.00  0.00    +0.040 A 
ATOM     31  C   UNL     1      -5.571  -8.732  11.505  0.00  0.00    +0.040 A 
ATOM     32  C   UNL     1      -4.701  -9.682  10.971  0.00  0.00    +0.124 A 
ENDBRANCH   1  22
ENDBRANCH   8   1
BRANCH  12  25
ATOM     25  C   UNL     1     -11.677 -10.973  20.129  0.00  0.00    +0.068 C 
ATOM     28  C   UNL     1     -12.436  -9.722  20.549  0.00  0.00    +0.027 C 
ATOM     29  C   UNL     1     -12.628 -12.135  19.873  0.00  0.00    +0.027 C 
ENDBRANCH  12  25
TORSDOF 5
ENDMDL
MODEL 5
REMARK VINA RESULT:      -5.8      5.010      8.535
REMARK  Name = 7674051
REMARK  7 active torsions:
REMARK  status: ('A' for Active; 'I' for Inactive)
REMARK    1  A    between atoms: S_1  and  N_8
REMARK    2  A    between atoms: S_1  and  C_22
REMARK    3  A    between atoms: N_10  and  C_18
REMARK    4  A    between atoms: N_12  and  C_25
REMARK    5  A    between atoms: C_13  and  C_17
REMARK    6  A    between atoms: C_25  and  C_28
REMARK    7  A    between atoms: C_25  and  C_29
REMARK                            x       y       z     vdW  Elec       q    Type
REMARK                         _______ _______ _______ _____ _____    ______ ____
ROOT
ATOM      6  O   UNL     1      -9.694  -8.992   9.503  0.00  0.00    -0.253 OA
ATOM      8  N   UNL     1      -5.151 -10.015  11.473  0.00  0.00    -0.162 NA
ATOM      9  N   UNL     1      -7.435  -8.917  10.031  0.00  0.00    -0.282 N 
ATOM     12  N   UNL     1      -8.257  -7.925   8.057  0.00  0.00    -0.297 N 
ATOM     13  C   UNL     1      -6.491 -10.672  11.470  0.00  0.00    +0.183 C 
ATOM     14  C   UNL     1      -7.617  -9.663  11.276  0.00  0.00    +0.139 C 
ATOM     15  C   UNL     1      -5.133  -8.628  10.926  0.00  0.00    +0.129 C 
ATOM     16  C   UNL     1      -6.059  -8.507   9.721  0.00  0.00    +0.126 C 
ATOM     21  C   UNL     1      -8.547  -8.635   9.218  0.00  0.00    +0.303 C 
ATOM     35  H   UNL     1      -7.293  -7.764   7.789  0.00  0.00    +0.150 HD
ENDROOT
BRANCH  13  17
ATOM      3  O   UNL     1      -6.773 -12.542  12.917  0.00  0.00    -0.274 OA
ATOM     10  N   UNL     1      -6.542 -10.420  13.845  0.00  0.00    -0.303 N 
ATOM     17  C   UNL     1      -6.612 -11.329  12.804  0.00  0.00    +0.234 C 
ATOM     33  H   UNL     1      -6.376  -9.439  13.634  0.00  0.00    +0.149 HD
BRANCH  10  18
ATOM      7  O   UNL     1      -9.038 -10.537  14.953  0.00  0.00    -0.274 OA
ATOM     11  N   UNL     1      -8.197 -10.137  17.038  0.00  0.00    -0.314 N 
ATOM     18  C   UNL     1      -6.655 -10.797  15.231  0.00  0.00    +0.159 C 
ATOM     19  C   UNL     1      -5.542 -10.167  16.056  0.00  0.00    +0.033 C 
ATOM     20  C   UNL     1      -5.786 -10.437  17.531  0.00  0.00    +0.021 C 
ATOM     23  C   UNL     1      -8.062 -10.446  15.699  0.00  0.00    +0.233 C 
ATOM     24  C   UNL     1      -7.107  -9.811  17.939  0.00  0.00    +0.104 C 
ATOM     34  H   UNL     1      -9.137  -9.958  17.375  0.00  0.00    +0.149 HD
ENDBRANCH  10  18
ENDBRANCH  13  17
BRANCH   8   1
ATOM      1  S   UNL     1      -3.808 -11.004  11.092  0.00  0.00    +0.062 S 
ATOM      4  O   UNL     1      -2.939 -10.279  10.194  0.00  0.00    -0.153 OA
ATOM      5  O   UNL     1      -4.287 -12.328  10.770  0.00  0.00    -0.153 OA
BRANCH   1  22
ATOM      2  F   UNL     1      -1.199 -11.225  16.371  0.00  0.00    -0.205 F 
ATOM     22  C   UNL     1      -3.028 -11.070  12.672  0.00  0.00    +0.106 A 
ATOM     26  C   UNL     1      -2.126 -10.074  13.047  0.00  0.00    +0.031 A 
ATOM     27  C   UNL     1      -3.311 -12.120  13.547  0.00  0.00    +0.031 A 
ATOM     30  C   UNL     1      -1.509 -10.126  14.296  0.00  0.00    +0.040 A 
ATOM     31  C   UNL     1      -2.694 -12.171  14.796  0.00  0.00    +0.040 A 
ATOM     32  C   UNL     1      -1.792 -11.176  15.171  0.00  0.00    +0.124 A 
ENDBRANCH   1  22
ENDBRANCH   8   1
BRANCH  12  25
ATOM     25  C   UNL     1      -9.275  -7.553   7.101  0.00  0.00    +0.068 C 
ATOM     28  C   UNL     1      -9.898  -6.215   7.477  0.00  0.00    +0.027 C 
ATOM     29  C   UNL     1      -8.692  -7.514   5.695  0.00  0.00    +0.027 C 
ENDBRANCH  12  25
TORSDOF 5
ENDMDL
MODEL 6
REMARK VINA RESULT:      -5.8     26.977     30.640
REMARK  Name = 7674051
REMARK  7 active torsions:
REMARK  status: ('A' for Active; 'I' for Inactive)
REMARK    1  A    between atoms: S_1  and  N_8
REMARK    2  A    between atoms: S_1  and  C_22
REMARK    3  A    between atoms: N_10  and  C_18
REMARK    4  A    between atoms: N_12  and  C_25
REMARK    5  A    between atoms: C_13  and  C_17
REMARK    6  A    between atoms: C_25  and  C_28
REMARK    7  A    between atoms: C_25  and  C_29
REMARK                            x       y       z     vdW  Elec       q    Type
REMARK                         _______ _______ _______ _____ _____    ______ ____
ROOT
ATOM      6  O   UNL     1       7.292  10.114   0.973  0.00  0.00    -0.253 OA
ATOM      8  N   UNL     1      10.651   6.352   0.605  0.00  0.00    -0.162 NA
ATOM      9  N   UNL     1       8.780   8.539   0.139  0.00  0.00    -0.282 N 
ATOM     12  N   UNL     1       7.098   9.466  -1.227  0.00  0.00    -0.297 N 
ATOM     13  C   UNL     1       9.825   6.948   1.695  0.00  0.00    +0.183 C 
ATOM     14  C   UNL     1       9.483   8.407   1.415  0.00  0.00    +0.139 C 
ATOM     15  C   UNL     1      10.661   7.127  -0.667  0.00  0.00    +0.129 C 
ATOM     16  C   UNL     1       9.284   7.707  -0.962  0.00  0.00    +0.126 C 
ATOM     21  C   UNL     1       7.694   9.426   0.030  0.00  0.00    +0.303 C 
ATOM     35  H   UNL     1       7.367   8.796  -1.937  0.00  0.00    +0.150 HD
ENDROOT
BRANCH  13  17
ATOM      3  O   UNL     1      11.868   7.057   2.912  0.00  0.00    -0.274 OA
ATOM     10  N   UNL     1       9.916   6.461   4.033  0.00  0.00    -0.303 N 
ATOM     17  C   UNL     1      10.659   6.841   2.928  0.00  0.00    +0.234 C 
ATOM     33  H   UNL     1       8.912   6.339   3.934  0.00  0.00    +0.149 HD
BRANCH  10  18
ATOM      7  O   UNL     1      10.104   3.909   4.992  0.00  0.00    -0.274 OA
ATOM     11  N   UNL     1      10.048   4.653   7.150  0.00  0.00    -0.314 N 
ATOM     18  C   UNL     1      10.490   6.266   5.339  0.00  0.00    +0.159 C 
ATOM     19  C   UNL     1      10.031   7.353   6.301  0.00  0.00    +0.033 C 
ATOM     20  C   UNL     1      10.507   7.024   7.706  0.00  0.00    +0.021 C 
ATOM     23  C   UNL     1      10.161   4.847   5.789  0.00  0.00    +0.233 C 
ATOM     24  C   UNL     1       9.900   5.704   8.140  0.00  0.00    +0.104 C 
ATOM     34  H   UNL     1       9.887   3.702   7.466  0.00  0.00    +0.149 HD
ENDBRANCH  10  18
ENDBRANCH  13  17
BRANCH   8   1
ATOM      1  S   UNL     1      10.621   4.647   0.461  0.00  0.00    +0.062 S 
ATOM      4  O   UNL     1      10.105   4.302  -0.844  0.00  0.00    -0.153 OA
ATOM      5  O   UNL     1      10.051   4.093   1.667  0.00  0.00    -0.153 OA
BRANCH   1  22
ATOM      2  F   UNL     1      16.408   3.538   0.485  0.00  0.00    -0.205 F 
ATOM     22  C   UNL     1      12.353   4.316   0.469  0.00  0.00    +0.106 A 
ATOM     26  C   UNL     1      13.107   4.525  -0.686  0.00  0.00    +0.031 A 
ATOM     27  C   UNL     1      12.968   3.843   1.628  0.00  0.00    +0.031 A 
ATOM     30  C   UNL     1      14.478   4.263  -0.680  0.00  0.00    +0.040 A 
ATOM     31  C   UNL     1      14.337   3.581   1.633  0.00  0.00    +0.040 A 
ATOM     32  C   UNL     1      15.093   3.790   0.480  0.00  0.00    +0.124 A 
ENDBRANCH   1  22
ENDBRANCH   8   1
BRANCH  12  25
ATOM     25  C   UNL     1       5.966  10.316  -1.519  0.00  0.00    +0.068 C 
ATOM     28  C   UNL     1       6.331  11.347  -2.580  0.00  0.00    +0.027 C 
ATOM     29  C   UNL     1       4.772   9.476  -1.955  0.00  0.00    +0.027 C 
ENDBRANCH  12  25
TORSDOF 5
ENDMDL
MODEL 7
REMARK VINA RESULT:      -5.6     28.205     29.737
REMARK  Name = 7674051
REMARK  7 active torsions:
REMARK  status: ('A' for Active; 'I' for Inactive)
REMARK    1  A    between atoms: S_1  and  N_8
REMARK    2  A    between atoms: S_1  and  C_22
REMARK    3  A    between atoms: N_10  and  C_18
REMARK    4  A    between atoms: N_12  and  C_25
REMARK    5  A    between atoms: C_13  and  C_17
REMARK    6  A    between atoms: C_25  and  C_28
REMARK    7  A    between atoms: C_25  and  C_29
REMARK                            x       y       z     vdW  Elec       q    Type
REMARK                         _______ _______ _______ _____ _____    ______ ____
ROOT
ATOM      6  O   UNL     1      -1.957   5.928  39.177  0.00  0.00    -0.253 OA
ATOM      8  N   UNL     1      -2.164  10.347  36.730  0.00  0.00    -0.162 NA
ATOM      9  N   UNL     1      -1.373   7.874  38.055  0.00  0.00    -0.282 N 
ATOM     12  N   UNL     1       0.167   6.767  39.455  0.00  0.00    -0.297 N 
ATOM     13  C   UNL     1      -3.141   9.464  37.431  0.00  0.00    +0.183 C 
ATOM     14  C   UNL     1      -2.690   8.008  37.432  0.00  0.00    +0.139 C 
ATOM     15  C   UNL     1      -0.818   9.745  36.515  0.00  0.00    +0.129 C 
ATOM     16  C   UNL     1      -0.394   8.917  37.721  0.00  0.00    +0.126 C 
ATOM     21  C   UNL     1      -1.115   6.791  38.914  0.00  0.00    +0.303 C 
ATOM     35  H   UNL     1       0.788   7.557  39.323  0.00  0.00    +0.150 HD
ENDROOT
BRANCH  13  17
ATOM      3  O   UNL     1      -4.454   9.545  35.447  0.00  0.00    -0.274 OA
ATOM     10  N   UNL     1      -5.501   9.830  37.506  0.00  0.00    -0.303 N 
ATOM     17  C   UNL     1      -4.418   9.607  36.673  0.00  0.00    +0.234 C 
ATOM     33  H   UNL     1      -5.356   9.832  38.513  0.00  0.00    +0.149 HD
BRANCH  10  18
ATOM      7  O   UNL     1      -6.878  12.030  38.363  0.00  0.00    -0.274 OA
ATOM     11  N   UNL     1      -8.878  10.980  38.031  0.00  0.00    -0.314 N 
ATOM     18  C   UNL     1      -6.842  10.024  37.021  0.00  0.00    +0.159 C 
ATOM     19  C   UNL     1      -7.591   8.701  36.954  0.00  0.00    +0.033 C 
ATOM     20  C   UNL     1      -9.049   8.957  36.610  0.00  0.00    +0.021 C 
ATOM     23  C   UNL     1      -7.509  11.081  37.894  0.00  0.00    +0.233 C 
ATOM     24  C   UNL     1      -9.673   9.813  37.695  0.00  0.00    +0.104 C 
ATOM     34  H   UNL     1      -9.342  11.711  38.562  0.00  0.00    +0.149 HD
ENDBRANCH  10  18
ENDBRANCH  13  17
BRANCH   8   1
ATOM      1  S   UNL     1      -2.201  12.010  37.134  0.00  0.00    +0.062 S 
ATOM      4  O   UNL     1      -0.939  12.367  37.739  0.00  0.00    -0.153 OA
ATOM      5  O   UNL     1      -3.458  12.296  37.786  0.00  0.00    -0.153 OA
BRANCH   1  22
ATOM      2  F   UNL     1      -2.360  14.345  31.726  0.00  0.00    -0.205 F 
ATOM     22  C   UNL     1      -2.249  12.709  35.516  0.00  0.00    +0.106 A 
ATOM     26  C   UNL     1      -3.448  12.739  34.804  0.00  0.00    +0.031 A 
ATOM     27  C   UNL     1      -1.086  13.232  34.947  0.00  0.00    +0.031 A 
ATOM     30  C   UNL     1      -3.485  13.292  33.524  0.00  0.00    +0.040 A 
ATOM     31  C   UNL     1      -1.125  13.784  33.668  0.00  0.00    +0.040 A 
ATOM     32  C   UNL     1      -2.323  13.814  32.955  0.00  0.00    +0.124 A 
ENDBRANCH   1  22
ENDBRANCH   8   1
BRANCH  12  25
ATOM     25  C   UNL     1       0.606   5.731  40.361  0.00  0.00    +0.068 C 
ATOM     28  C   UNL     1       1.281   4.600  39.596  0.00  0.00    +0.027 C 
ATOM     29  C   UNL     1       1.535   6.312  41.419  0.00  0.00    +0.027 C 
ENDBRANCH  12  25
TORSDOF 5
ENDMDL
MODEL 8
REMARK VINA RESULT:      -5.6     26.456     29.826
REMARK  Name = 7674051
REMARK  7 active torsions:
REMARK  status: ('A' for Active; 'I' for Inactive)
REMARK    1  A    between atoms: S_1  and  N_8
REMARK    2  A    between atoms: S_1  and  C_22
REMARK    3  A    between atoms: N_10  and  C_18
REMARK    4  A    between atoms: N_12  and  C_25
REMARK    5  A    between atoms: C_13  and  C_17
REMARK    6  A    between atoms: C_25  and  C_28
REMARK    7  A    between atoms: C_25  and  C_29
REMARK                            x       y       z     vdW  Elec       q    Type
REMARK                         _______ _______ _______ _____ _____    ______ ____
ROOT
ATOM      6  O   UNL     1       7.736   9.472   0.264  0.00  0.00    -0.253 OA
ATOM      8  N   UNL     1       9.610   7.219   4.385  0.00  0.00    -0.162 NA
ATOM      9  N   UNL     1       8.045   8.725   2.441  0.00  0.00    -0.282 N 
ATOM     12  N   UNL     1       6.735  10.631   1.982  0.00  0.00    -0.297 N 
ATOM     13  C   UNL     1      10.064   7.431   2.979  0.00  0.00    +0.183 C 
ATOM     14  C   UNL     1       8.889   7.606   2.024  0.00  0.00    +0.139 C 
ATOM     15  C   UNL     1       8.189   7.586   4.645  0.00  0.00    +0.129 C 
ATOM     16  C   UNL     1       7.805   8.849   3.884  0.00  0.00    +0.126 C 
ATOM     21  C   UNL     1       7.519   9.599   1.472  0.00  0.00    +0.303 C 
ATOM     35  H   UNL     1       6.685  10.783   2.982  0.00  0.00    +0.150 HD
ENDROOT
BRANCH  13  17
ATOM      3  O   UNL     1      10.346   5.084   2.698  0.00  0.00    -0.274 OA
ATOM     10  N   UNL     1      12.137   6.499   2.242  0.00  0.00    -0.303 N 
ATOM     17  C   UNL     1      10.839   6.206   2.625  0.00  0.00    +0.234 C 
ATOM     33  H   UNL     1      12.428   7.472   2.189  0.00  0.00    +0.149 HD
BRANCH  10  18
ATOM      7  O   UNL     1      14.677   6.710   3.228  0.00  0.00    -0.274 OA
ATOM     11  N   UNL     1      15.525   5.548   1.455  0.00  0.00    -0.314 N 
ATOM     18  C   UNL     1      13.096   5.491   1.872  0.00  0.00    +0.159 C 
ATOM     19  C   UNL     1      12.934   5.099   0.410  0.00  0.00    +0.033 C 
ATOM     20  C   UNL     1      14.065   4.169   0.003  0.00  0.00    +0.021 C 
ATOM     23  C   UNL     1      14.483   6.008   2.234  0.00  0.00    +0.233 C 
ATOM     24  C   UNL     1      15.387   4.894   0.167  0.00  0.00    +0.104 C 
ATOM     34  H   UNL     1      16.461   5.839   1.722  0.00  0.00    +0.149 HD
ENDBRANCH  10  18
ENDBRANCH  13  17
BRANCH   8   1
ATOM      1  S   UNL     1      10.734   7.590   5.621  0.00  0.00    +0.062 S 
ATOM      4  O   UNL     1      10.495   8.940   6.074  0.00  0.00    -0.153 OA
ATOM      5  O   UNL     1      12.045   7.159   5.195  0.00  0.00    -0.153 OA
BRANCH   1  22
ATOM      2  F   UNL     1       8.860   3.901   9.816  0.00  0.00    -0.205 F 
ATOM     22  C   UNL     1      10.173   6.486   6.876  0.00  0.00    +0.106 A 
ATOM     26  C   UNL     1       9.574   6.989   8.031  0.00  0.00    +0.031 A 
ATOM     27  C   UNL     1      10.329   5.108   6.714  0.00  0.00    +0.031 A 
ATOM     30  C   UNL     1       9.130   6.116   9.024  0.00  0.00    +0.040 A 
ATOM     31  C   UNL     1       9.885   4.236   7.708  0.00  0.00    +0.040 A 
ATOM     32  C   UNL     1       9.286   4.739   8.862  0.00  0.00    +0.124 A 
ENDBRANCH   1  22
ENDBRANCH   8   1
BRANCH  12  25
ATOM     25  C   UNL     1       6.119  11.625   1.134  0.00  0.00    +0.068 C 
ATOM     28  C   UNL     1       4.669  11.259   0.846  0.00  0.00    +0.027 C 
ATOM     29  C   UNL     1       6.222  13.004   1.774  0.00  0.00    +0.027 C 
ENDBRANCH  12  25
TORSDOF 5
ENDMDL
MODEL 9
REMARK VINA RESULT:      -5.6     19.798     22.694
REMARK  Name = 7674051
REMARK  7 active torsions:
REMARK  status: ('A' for Active; 'I' for Inactive)
REMARK    1  A    between atoms: S_1  and  N_8
REMARK    2  A    between atoms: S_1  and  C_22
REMARK    3  A    between atoms: N_10  and  C_18
REMARK    4  A    between atoms: N_12  and  C_25
REMARK    5  A    between atoms: C_13  and  C_17
REMARK    6  A    between atoms: C_25  and  C_28
REMARK    7  A    between atoms: C_25  and  C_29
REMARK                            x       y       z     vdW  Elec       q    Type
REMARK                         _______ _______ _______ _____ _____    ______ ____
ROOT
ATOM      6  O   UNL     1     -12.965  12.483  23.782  0.00  0.00    -0.253 OA
ATOM      8  N   UNL     1     -12.368   9.578  19.687  0.00  0.00    -0.162 NA
ATOM      9  N   UNL     1     -12.966  10.681  22.319  0.00  0.00    -0.282 N 
ATOM     12  N   UNL     1     -13.020  10.353  24.652  0.00  0.00    -0.297 N 
ATOM     13  C   UNL     1     -11.978  10.962  20.085  0.00  0.00    +0.183 C 
ATOM     14  C   UNL     1     -12.923  11.538  21.134  0.00  0.00    +0.139 C 
ATOM     15  C   UNL     1     -13.319   8.904  20.616  0.00  0.00    +0.129 C 
ATOM     16  C   UNL     1     -12.989   9.234  22.066  0.00  0.00    +0.126 C 
ATOM     21  C   UNL     1     -12.984  11.263  23.599  0.00  0.00    +0.303 C 
ATOM     35  H   UNL     1     -12.903   9.363  24.471  0.00  0.00    +0.150 HD
ENDROOT
BRANCH  13  17
ATOM      3  O   UNL     1     -13.056  11.795  18.133  0.00  0.00    -0.274 OA
ATOM     10  N   UNL     1     -10.861  12.433  18.570  0.00  0.00    -0.303 N 
ATOM     17  C   UNL     1     -12.047  11.769  18.832  0.00  0.00    +0.234 C 
ATOM     33  H   UNL     1     -10.098  12.362  19.238  0.00  0.00    +0.149 HD
BRANCH  10  18
ATOM      7  O   UNL     1      -9.373  11.429  16.510  0.00  0.00    -0.274 OA
ATOM     11  N   UNL     1      -8.784  13.529  15.833  0.00  0.00    -0.314 N 
ATOM     18  C   UNL     1     -10.661  13.261  17.409  0.00  0.00    +0.159 C 
ATOM     19  C   UNL     1     -10.428  14.711  17.810  0.00  0.00    +0.033 C 
ATOM     20  C   UNL     1     -10.047  15.524  16.585  0.00  0.00    +0.021 C 
ATOM     23  C   UNL     1      -9.535  12.648  16.584  0.00  0.00    +0.233 C 
ATOM     24  C   UNL     1      -8.761  14.970  16.001  0.00  0.00    +0.104 C 
ATOM     34  H   UNL     1      -8.068  13.127  15.234  0.00  0.00    +0.149 HD
ENDBRANCH  10  18
ENDBRANCH  13  17
BRANCH   8   1
ATOM      1  S   UNL     1     -11.141   8.598  19.007  0.00  0.00    +0.062 S 
ATOM      4  O   UNL     1     -11.226   7.279  19.589  0.00  0.00    -0.153 OA
ATOM      5  O   UNL     1      -9.904   9.344  19.007  0.00  0.00    -0.153 OA
BRANCH   1  22
ATOM      2  F   UNL     1     -13.089   8.274  13.455  0.00  0.00    -0.205 F 
ATOM     22  C   UNL     1     -11.724   8.500  17.345  0.00  0.00    +0.106 A 
ATOM     26  C   UNL     1     -10.816   8.506  16.286  0.00  0.00    +0.031 A 
ATOM     27  C   UNL     1     -13.094   8.419  17.090  0.00  0.00    +0.031 A 
ATOM     30  C   UNL     1     -11.278   8.429  14.972  0.00  0.00    +0.040 A 
ATOM     31  C   UNL     1     -13.554   8.343  15.776  0.00  0.00    +0.040 A 
ATOM     32  C   UNL     1     -12.647   8.348  14.717  0.00  0.00    +0.124 A 
ENDBRANCH   1  22
ENDBRANCH   8   1
BRANCH  12  25
ATOM     25  C   UNL     1     -13.037  10.771  26.036  0.00  0.00    +0.068 C 
ATOM     28  C   UNL     1     -14.403  10.510  26.657  0.00  0.00    +0.027 C 
ATOM     29  C   UNL     1     -11.934  10.068  26.815  0.00  0.00    +0.027 C 
ENDBRANCH  12  25
TORSDOF 5
ENDMDL
MODEL 10
REMARK VINA RESULT:      -5.5     25.255     29.225
REMARK  Name = 7674051
REMARK  7 active torsions:
REMARK  status: ('A' for Active; 'I' for Inactive)
REMARK    1  A    between atoms: S_1  and  N_8
REMARK    2  A    between atoms: S_1  and  C_22
REMARK    3  A    between atoms: N_10  and  C_18
REMARK    4  A    between atoms: N_12  and  C_25
REMARK    5  A    between atoms: C_13  and  C_17
REMARK    6  A    between atoms: C_25  and  C_28
REMARK    7  A    between atoms: C_25  and  C_29
REMARK                            x       y       z     vdW  Elec       q    Type
REMARK                         _______ _______ _______ _____ _____    ______ ____
ROOT
ATOM      6  O   UNL     1      15.902  -9.404  28.009  0.00  0.00    -0.253 OA
ATOM      8  N   UNL     1      17.982  -4.951  26.822  0.00  0.00    -0.162 NA
ATOM      9  N   UNL     1      16.469  -7.442  26.906  0.00  0.00    -0.282 N 
ATOM     12  N   UNL     1      15.615  -9.296  25.728  0.00  0.00    -0.297 N 
ATOM     13  C   UNL     1      18.164  -5.965  27.901  0.00  0.00    +0.183 C 
ATOM     14  C   UNL     1      16.896  -6.777  28.137  0.00  0.00    +0.139 C 
ATOM     15  C   UNL     1      16.788  -5.167  25.956  0.00  0.00    +0.129 C 
ATOM     16  C   UNL     1      16.581  -6.650  25.674  0.00  0.00    +0.126 C 
ATOM     21  C   UNL     1      15.987  -8.762  26.959  0.00  0.00    +0.303 C 
ATOM     35  H   UNL     1      15.819  -8.791  24.874  0.00  0.00    +0.150 HD
ENDROOT
BRANCH  13  17
ATOM      3  O   UNL     1      19.372  -5.566  29.913  0.00  0.00    -0.274 OA
ATOM     10  N   UNL     1      17.750  -4.036  29.247  0.00  0.00    -0.303 N 
ATOM     17  C   UNL     1      18.512  -5.184  29.124  0.00  0.00    +0.234 C 
ATOM     33  H   UNL     1      17.085  -3.804  28.513  0.00  0.00    +0.149 HD
BRANCH  10  18
ATOM      7  O   UNL     1      15.523  -3.494  30.736  0.00  0.00    -0.274 OA
ATOM     11  N   UNL     1      16.353  -1.455  31.344  0.00  0.00    -0.314 N 
ATOM     18  C   UNL     1      17.876  -3.121  30.352  0.00  0.00    +0.159 C 
ATOM     19  C   UNL     1      18.787  -1.956  29.990  0.00  0.00    +0.033 C 
ATOM     20  C   UNL     1      18.761  -0.923  31.104  0.00  0.00    +0.021 C 
ATOM     23  C   UNL     1      16.473  -2.711  30.785  0.00  0.00    +0.233 C 
ATOM     24  C   UNL     1      17.346  -0.401  31.264  0.00  0.00    +0.104 C 
ATOM     34  H   UNL     1      15.434  -1.193  31.689  0.00  0.00    +0.149 HD
ENDBRANCH  10  18
ENDBRANCH  13  17
BRANCH   8   1
ATOM      1  S   UNL     1      19.399  -4.391  26.044  0.00  0.00    +0.062 S 
ATOM      4  O   UNL     1      20.014  -5.499  25.349  0.00  0.00    -0.153 OA
ATOM      5  O   UNL     1      20.145  -3.578  26.975  0.00  0.00    -0.153 OA
BRANCH   1  22
ATOM      2  F   UNL     1      16.989  -0.829  22.016  0.00  0.00    -0.205 F 
ATOM     22  C   UNL     1      18.677  -3.325  24.838  0.00  0.00    +0.106 A 
ATOM     26  C   UNL     1      18.645  -3.709  23.498  0.00  0.00    +0.031 A 
ATOM     27  C   UNL     1      18.139  -2.097  25.226  0.00  0.00    +0.031 A 
ATOM     30  C   UNL     1      18.074  -2.866  22.544  0.00  0.00    +0.040 A 
ATOM     31  C   UNL     1      17.569  -1.255  24.272  0.00  0.00    +0.040 A 
ATOM     32  C   UNL     1      17.537  -1.638  22.931  0.00  0.00    +0.124 A 
ENDBRANCH   1  22
ENDBRANCH   8   1
BRANCH  12  25
ATOM     25  C   UNL     1      15.102 -10.641  25.592  0.00  0.00    +0.068 C 
ATOM     28  C   UNL     1      13.814 -10.643  24.779  0.00  0.00    +0.027 C 
ATOM     29  C   UNL     1      16.153 -11.546  24.961  0.00  0.00    +0.027 C 
ENDBRANCH  12  25
TORSDOF 5
ENDMDL
