MODEL 1
REMARK VINA RESULT:      -7.1      0.000      0.000
REMARK  Name = 71693050
REMARK  9 active torsions:
REMARK  status: ('A' for Active; 'I' for Inactive)
REMARK    1  A    between atoms: N_3  and  C_13
REMARK    2  A    between atoms: C_6  and  C_10
REMARK    3  A    between atoms: C_7  and  C_13
REMARK    4  A    between atoms: C_9  and  C_14
REMARK    5  A    between atoms: C_10  and  C_15
REMARK    6  A    between atoms: C_10  and  C_16
REMARK    7  A    between atoms: C_11  and  C_18
REMARK    8  A    between atoms: C_14  and  C_22
REMARK    9  A    between atoms: C_17  and  C_21
REMARK                            x       y       z     vdW  Elec       q    Type
REMARK                         _______ _______ _______ _____ _____    ______ ____
ROOT
ATOM      6  C   UNL     1     -11.753  -9.764  18.843  0.00  0.00    +0.000 C 
ATOM      7  C   UNL     1     -10.555 -10.708  18.568  0.00  0.00    +0.032 C 
ATOM      8  C   UNL     1     -12.558  -9.530  17.556  0.00  0.00    +0.012 C 
ATOM      9  C   UNL     1     -11.700  -8.916  16.435  0.00  0.00    +0.022 C 
ATOM     11  C   UNL     1     -10.374  -9.634  16.283  0.00  0.00    -0.073 C 
ATOM     12  C   UNL     1      -9.885 -10.441  17.240  0.00  0.00    -0.022 C 
ATOM     18  C   UNL     1      -9.644  -9.438  14.983  0.00  0.00    +0.039 C 
ENDROOT
BRANCH   6  10
ATOM     10  C   UNL     1     -12.672 -10.316  19.938  0.00  0.00    -0.013 C 
ATOM     15  C   UNL     1     -13.048 -11.763  19.636  0.00  0.00    +0.007 C 
ATOM     16  C   UNL     1     -13.920  -9.449  20.072  0.00  0.00    +0.007 C 
ENDBRANCH   6  10
BRANCH   7  13
ATOM     13  C   UNL     1      -9.515 -10.624  19.691  0.00  0.00    +0.112 C 
BRANCH  13   3
ATOM      2  O   UNL     1      -7.036 -12.030  20.244  0.00  0.00    -0.276 OA
ATOM      3  N   UNL     1      -8.219 -10.338  19.162  0.00  0.00    -0.315 N 
ATOM     21  C   UNL     1      -7.075 -11.067  19.482  0.00  0.00    +0.216 C 
ATOM     32  H   UNL     1      -8.157  -9.630  18.437  0.00  0.00    +0.149 HD
BRANCH  21  17
ATOM     17  C   UNL     1      -5.851 -10.572  18.768  0.00  0.00    +0.075 C 
ATOM     19  C   UNL     1      -4.696 -11.565  18.906  0.00  0.00    +0.013 C 
ATOM     20  C   UNL     1      -6.186 -10.252  17.309  0.00  0.00    +0.013 C 
ATOM     23  C   UNL     1      -4.838 -12.794  18.008  0.00  0.00    +0.001 C 
ATOM     24  C   UNL     1      -6.327 -11.501  16.440  0.00  0.00    +0.001 C 
ATOM     25  C   UNL     1      -5.110 -12.409  16.558  0.00  0.00    +0.000 C 
ENDBRANCH  21  17
ENDBRANCH  13   3
ENDBRANCH   7  13
BRANCH   9  14
ATOM     14  C   UNL     1     -11.488  -7.415  16.662  0.00  0.00    +0.082 C 
BRANCH  14  22
ATOM      1  F   UNL     1     -13.381  -2.871  11.331  0.00  0.00    -0.205 F 
ATOM      4  N   UNL     1     -11.516  -5.715  14.826  0.00  0.00    -0.342 N 
ATOM      5  N   UNL     1     -13.481  -6.616  15.344  0.00  0.00    -0.232 NA
ATOM     22  C   UNL     1     -12.196  -6.597  15.619  0.00  0.00    +0.109 A 
ATOM     26  C   UNL     1     -12.423  -5.127  13.982  0.00  0.00    +0.069 A 
ATOM     27  C   UNL     1     -13.642  -5.705  14.325  0.00  0.00    +0.089 A 
ATOM     28  C   UNL     1     -12.286  -4.167  12.978  0.00  0.00    +0.066 A 
ATOM     29  C   UNL     1     -14.803  -5.315  13.638  0.00  0.00    +0.032 A 
ATOM     30  C   UNL     1     -13.452  -3.789  12.305  0.00  0.00    +0.125 A 
ATOM     31  C   UNL     1     -14.689  -4.352  12.626  0.00  0.00    +0.040 A 
ATOM     33  H   UNL     1     -10.522  -5.529  14.854  0.00  0.00    +0.167 HD
ENDBRANCH  14  22
ENDBRANCH   9  14
TORSDOF 6
ENDMDL
MODEL 2
REMARK VINA RESULT:      -7.0      5.994      8.584
REMARK  Name = 71693050
REMARK  9 active torsions:
REMARK  status: ('A' for Active; 'I' for Inactive)
REMARK    1  A    between atoms: N_3  and  C_13
REMARK    2  A    between atoms: C_6  and  C_10
REMARK    3  A    between atoms: C_7  and  C_13
REMARK    4  A    between atoms: C_9  and  C_14
REMARK    5  A    between atoms: C_10  and  C_15
REMARK    6  A    between atoms: C_10  and  C_16
REMARK    7  A    between atoms: C_11  and  C_18
REMARK    8  A    between atoms: C_14  and  C_22
REMARK    9  A    between atoms: C_17  and  C_21
REMARK                            x       y       z     vdW  Elec       q    Type
REMARK                         _______ _______ _______ _____ _____    ______ ____
ROOT
ATOM      6  C   UNL     1      -3.065 -12.351  13.359  0.00  0.00    +0.000 C 
ATOM      7  C   UNL     1      -1.832 -11.416  13.450  0.00  0.00    +0.032 C 
ATOM      8  C   UNL     1      -3.410 -12.642  11.890  0.00  0.00    +0.012 C 
ATOM      9  C   UNL     1      -3.711 -11.357  11.096  0.00  0.00    +0.022 C 
ATOM     11  C   UNL     1      -2.672 -10.283  11.348  0.00  0.00    -0.073 C 
ATOM     12  C   UNL     1      -1.832 -10.333  12.397  0.00  0.00    -0.022 C 
ATOM     18  C   UNL     1      -2.590  -9.172  10.339  0.00  0.00    +0.039 C 
ENDROOT
BRANCH   6  10
ATOM     10  C   UNL     1      -2.837 -13.667  14.110  0.00  0.00    -0.013 C 
ATOM     15  C   UNL     1      -2.388 -14.759  13.145  0.00  0.00    +0.007 C 
ATOM     16  C   UNL     1      -4.107 -14.084  14.846  0.00  0.00    +0.007 C 
ENDBRANCH   6  10
BRANCH   7  13
ATOM     13  C   UNL     1      -1.724 -10.778  14.840  0.00  0.00    +0.112 C 
BRANCH  13   3
ATOM      2  O   UNL     1      -3.094 -11.421  17.317  0.00  0.00    -0.276 OA
ATOM      3  N   UNL     1      -2.996 -10.297  15.278  0.00  0.00    -0.315 N 
ATOM     21  C   UNL     1      -3.585 -10.659  16.488  0.00  0.00    +0.216 C 
ATOM     32  H   UNL     1      -3.440  -9.575  14.718  0.00  0.00    +0.149 HD
BRANCH  21  17
ATOM     17  C   UNL     1      -4.910  -9.991  16.713  0.00  0.00    +0.075 C 
ATOM     19  C   UNL     1      -5.717  -9.922  15.414  0.00  0.00    +0.013 C 
ATOM     20  C   UNL     1      -5.668 -10.690  17.843  0.00  0.00    +0.013 C 
ATOM     23  C   UNL     1      -6.349 -11.256  15.018  0.00  0.00    +0.001 C 
ATOM     24  C   UNL     1      -6.283 -12.023  17.417  0.00  0.00    +0.001 C 
ATOM     25  C   UNL     1      -7.140 -11.872  16.167  0.00  0.00    +0.000 C 
ENDBRANCH  21  17
ENDBRANCH  13   3
ENDBRANCH   7  13
BRANCH   9  14
ATOM     14  C   UNL     1      -5.121 -10.838  11.401  0.00  0.00    +0.082 C 
BRANCH  14  22
ATOM      1  F   UNL     1      -8.602  -6.567   6.680  0.00  0.00    -0.205 F 
ATOM      4  N   UNL     1      -6.439  -9.020  10.298  0.00  0.00    -0.342 N 
ATOM      5  N   UNL     1      -5.694 -10.629   8.957  0.00  0.00    -0.232 NA
ATOM     22  C   UNL     1      -5.739 -10.190  10.195  0.00  0.00    +0.109 A 
ATOM     26  C   UNL     1      -6.875  -8.681   9.041  0.00  0.00    +0.069 A 
ATOM     27  C   UNL     1      -6.397  -9.701   8.223  0.00  0.00    +0.089 A 
ATOM     28  C   UNL     1      -7.622  -7.604   8.566  0.00  0.00    +0.066 A 
ATOM     29  C   UNL     1      -6.673  -9.660   6.846  0.00  0.00    +0.032 A 
ATOM     30  C   UNL     1      -7.888  -7.579   7.193  0.00  0.00    +0.125 A 
ATOM     31  C   UNL     1      -7.422  -8.587   6.346  0.00  0.00    +0.040 A 
ATOM     33  H   UNL     1      -6.608  -8.496  11.146  0.00  0.00    +0.167 HD
ENDBRANCH  14  22
ENDBRANCH   9  14
TORSDOF 6
ENDMDL
MODEL 3
REMARK VINA RESULT:      -6.9     30.593     34.358
REMARK  Name = 71693050
REMARK  9 active torsions:
REMARK  status: ('A' for Active; 'I' for Inactive)
REMARK    1  A    between atoms: N_3  and  C_13
REMARK    2  A    between atoms: C_6  and  C_10
REMARK    3  A    between atoms: C_7  and  C_13
REMARK    4  A    between atoms: C_9  and  C_14
REMARK    5  A    between atoms: C_10  and  C_15
REMARK    6  A    between atoms: C_10  and  C_16
REMARK    7  A    between atoms: C_11  and  C_18
REMARK    8  A    between atoms: C_14  and  C_22
REMARK    9  A    between atoms: C_17  and  C_21
REMARK                            x       y       z     vdW  Elec       q    Type
REMARK                         _______ _______ _______ _____ _____    ______ ____
ROOT
ATOM      6  C   UNL     1      18.505   9.098  21.880  0.00  0.00    +0.000 C 
ATOM      7  C   UNL     1      17.263   8.708  21.040  0.00  0.00    +0.032 C 
ATOM      8  C   UNL     1      19.793   8.649  21.173  0.00  0.00    +0.012 C 
ATOM      9  C   UNL     1      19.826   7.129  20.930  0.00  0.00    +0.022 C 
ATOM     11  C   UNL     1      18.522   6.624  20.346  0.00  0.00    -0.073 C 
ATOM     12  C   UNL     1      17.391   7.349  20.392  0.00  0.00    -0.022 C 
ATOM     18  C   UNL     1      18.559   5.283  19.666  0.00  0.00    +0.039 C 
ENDROOT
BRANCH   6  10
ATOM     10  C   UNL     1      18.559  10.606  22.149  0.00  0.00    -0.013 C 
ATOM     15  C   UNL     1      18.507  11.382  20.838  0.00  0.00    +0.007 C 
ATOM     16  C   UNL     1      19.816  10.960  22.939  0.00  0.00    +0.007 C 
ENDBRANCH   6  10
BRANCH   7  13
ATOM     13  C   UNL     1      15.986   8.753  21.887  0.00  0.00    +0.112 C 
BRANCH  13   3
ATOM      2  O   UNL     1      13.115   8.981  22.253  0.00  0.00    -0.276 OA
ATOM      3  N   UNL     1      14.970   7.925  21.317  0.00  0.00    -0.315 N 
ATOM     21  C   UNL     1      13.607   8.105  21.546  0.00  0.00    +0.216 C 
ATOM     32  H   UNL     1      15.261   7.237  20.629  0.00  0.00    +0.149 HD
BRANCH  21  17
ATOM     17  C   UNL     1      12.757   7.113  20.806  0.00  0.00    +0.075 C 
ATOM     19  C   UNL     1      11.292   7.551  20.789  0.00  0.00    +0.013 C 
ATOM     20  C   UNL     1      13.321   6.880  19.403  0.00  0.00    +0.013 C 
ATOM     23  C   UNL     1      11.004   8.679  19.799  0.00  0.00    +0.001 C 
ATOM     24  C   UNL     1      13.023   8.027  18.439  0.00  0.00    +0.001 C 
ATOM     25  C   UNL     1      11.536   8.361  18.406  0.00  0.00    +0.000 C 
ENDBRANCH  21  17
ENDBRANCH  13   3
ENDBRANCH   7  13
BRANCH   9  14
ATOM     14  C   UNL     1      20.180   6.372  22.216  0.00  0.00    +0.082 C 
BRANCH  14  22
ATOM      1  F   UNL     1      25.898   2.631  19.775  0.00  0.00    -0.205 F 
ATOM      4  N   UNL     1      22.139   5.522  20.912  0.00  0.00    -0.342 N 
ATOM      5  N   UNL     1      21.620   4.373  22.742  0.00  0.00    -0.232 NA
ATOM     22  C   UNL     1      21.304   5.402  21.988  0.00  0.00    +0.109 A 
ATOM     26  C   UNL     1      23.055   4.503  20.976  0.00  0.00    +0.069 A 
ATOM     27  C   UNL     1      22.709   3.800  22.127  0.00  0.00    +0.089 A 
ATOM     28  C   UNL     1      24.122   4.146  20.152  0.00  0.00    +0.066 A 
ATOM     29  C   UNL     1      23.462   2.671  22.492  0.00  0.00    +0.032 A 
ATOM     30  C   UNL     1      24.860   3.020  20.530  0.00  0.00    +0.125 A 
ATOM     31  C   UNL     1      24.539   2.295  21.679  0.00  0.00    +0.040 A 
ATOM     33  H   UNL     1      22.092   6.234  20.194  0.00  0.00    +0.167 HD
ENDBRANCH  14  22
ENDBRANCH   9  14
TORSDOF 6
ENDMDL
MODEL 4
REMARK VINA RESULT:      -6.9     29.548     32.706
REMARK  Name = 71693050
REMARK  9 active torsions:
REMARK  status: ('A' for Active; 'I' for Inactive)
REMARK    1  A    between atoms: N_3  and  C_13
REMARK    2  A    between atoms: C_6  and  C_10
REMARK    3  A    between atoms: C_7  and  C_13
REMARK    4  A    between atoms: C_9  and  C_14
REMARK    5  A    between atoms: C_10  and  C_15
REMARK    6  A    between atoms: C_10  and  C_16
REMARK    7  A    between atoms: C_11  and  C_18
REMARK    8  A    between atoms: C_14  and  C_22
REMARK    9  A    between atoms: C_17  and  C_21
REMARK                            x       y       z     vdW  Elec       q    Type
REMARK                         _______ _______ _______ _____ _____    ______ ____
ROOT
ATOM      6  C   UNL     1      13.751   9.699  21.007  0.00  0.00    +0.000 C 
ATOM      7  C   UNL     1      14.162  11.174  20.765  0.00  0.00    +0.032 C 
ATOM      8  C   UNL     1      14.727   9.024  21.982  0.00  0.00    +0.012 C 
ATOM      9  C   UNL     1      16.178   9.049  21.466  0.00  0.00    +0.022 C 
ATOM     11  C   UNL     1      16.571  10.421  20.956  0.00  0.00    -0.073 C 
ATOM     12  C   UNL     1      15.658  11.362  20.662  0.00  0.00    -0.022 C 
ATOM     18  C   UNL     1      18.043  10.702  20.837  0.00  0.00    +0.039 C 
ENDROOT
BRANCH   6  10
ATOM     10  C   UNL     1      12.321   9.588  21.543  0.00  0.00    -0.013 C 
ATOM     15  C   UNL     1      12.114  10.548  22.710  0.00  0.00    +0.007 C 
ATOM     16  C   UNL     1      12.022   8.152  21.964  0.00  0.00    +0.007 C 
ENDBRANCH   6  10
BRANCH   7  13
ATOM     13  C   UNL     1      13.488  11.738  19.509  0.00  0.00    +0.112 C 
BRANCH  13   3
ATOM      2  O   UNL     1      15.006  11.057  17.130  0.00  0.00    -0.276 OA
ATOM      3  N   UNL     1      13.210  10.695  18.572  0.00  0.00    -0.315 N 
ATOM     21  C   UNL     1      13.995  10.435  17.450  0.00  0.00    +0.216 C 
ATOM     32  H   UNL     1      12.459  10.051  18.799  0.00  0.00    +0.149 HD
BRANCH  21  17
ATOM     17  C   UNL     1      13.495   9.270  16.647  0.00  0.00    +0.075 C 
ATOM     19  C   UNL     1      14.294   8.004  16.962  0.00  0.00    +0.013 C 
ATOM     20  C   UNL     1      11.990   9.089  16.863  0.00  0.00    +0.013 C 
ATOM     23  C   UNL     1      13.922   7.365  18.299  0.00  0.00    +0.001 C 
ATOM     24  C   UNL     1      11.651   8.453  18.211  0.00  0.00    +0.001 C 
ATOM     25  C   UNL     1      12.417   7.154  18.429  0.00  0.00    +0.000 C 
ENDBRANCH  21  17
ENDBRANCH  13   3
ENDBRANCH   7  13
BRANCH   9  14
ATOM     14  C   UNL     1      16.400   7.980  20.389  0.00  0.00    +0.082 C 
BRANCH  14  22
ATOM      1  F   UNL     1      22.444   5.012  23.089  0.00  0.00    -0.205 F 
ATOM      4  N   UNL     1      18.369   7.360  21.802  0.00  0.00    -0.342 N 
ATOM      5  N   UNL     1      18.172   6.265  19.877  0.00  0.00    -0.232 NA
ATOM     22  C   UNL     1      17.644   7.182  20.656  0.00  0.00    +0.109 A 
ATOM     26  C   UNL     1      19.436   6.499  21.759  0.00  0.00    +0.069 A 
ATOM     27  C   UNL     1      19.290   5.827  20.548  0.00  0.00    +0.089 A 
ATOM     28  C   UNL     1      20.483   6.257  22.649  0.00  0.00    +0.066 A 
ATOM     29  C   UNL     1      20.237   4.854  20.188  0.00  0.00    +0.032 A 
ATOM     30  C   UNL     1      21.416   5.286  22.273  0.00  0.00    +0.125 A 
ATOM     31  C   UNL     1      21.298   4.595  21.066  0.00  0.00    +0.040 A 
ATOM     33  H   UNL     1      18.159   8.009  22.548  0.00  0.00    +0.167 HD
ENDBRANCH  14  22
ENDBRANCH   9  14
TORSDOF 6
ENDMDL
MODEL 5
REMARK VINA RESULT:      -6.8     29.109     31.601
REMARK  Name = 71693050
REMARK  9 active torsions:
REMARK  status: ('A' for Active; 'I' for Inactive)
REMARK    1  A    between atoms: N_3  and  C_13
REMARK    2  A    between atoms: C_6  and  C_10
REMARK    3  A    between atoms: C_7  and  C_13
REMARK    4  A    between atoms: C_9  and  C_14
REMARK    5  A    between atoms: C_10  and  C_15
REMARK    6  A    between atoms: C_10  and  C_16
REMARK    7  A    between atoms: C_11  and  C_18
REMARK    8  A    between atoms: C_14  and  C_22
REMARK    9  A    between atoms: C_17  and  C_21
REMARK                            x       y       z     vdW  Elec       q    Type
REMARK                         _______ _______ _______ _____ _____    ______ ____
ROOT
ATOM      6  C   UNL     1      14.787   8.709  20.417  0.00  0.00    +0.000 C 
ATOM      7  C   UNL     1      14.364   7.363  19.774  0.00  0.00    +0.032 C 
ATOM      8  C   UNL     1      14.286   8.790  21.867  0.00  0.00    +0.012 C 
ATOM      9  C   UNL     1      12.755   8.662  21.963  0.00  0.00    +0.022 C 
ATOM     11  C   UNL     1      12.232   7.509  21.131  0.00  0.00    -0.073 C 
ATOM     12  C   UNL     1      12.971   6.932  20.167  0.00  0.00    -0.022 C 
ATOM     18  C   UNL     1      10.856   7.002  21.464  0.00  0.00    +0.039 C 
ENDROOT
BRANCH   6  10
ATOM     10  C   UNL     1      16.306   8.904  20.379  0.00  0.00    -0.013 C 
ATOM     15  C   UNL     1      17.012   7.703  20.998  0.00  0.00    +0.007 C 
ATOM     16  C   UNL     1      16.693  10.191  21.102  0.00  0.00    +0.007 C 
ENDBRANCH   6  10
BRANCH   7  13
ATOM     13  C   UNL     1      14.469   7.423  18.245  0.00  0.00    +0.112 C 
BRANCH  13   3
ATOM      2  O   UNL     1      14.085   8.241  15.487  0.00  0.00    -0.276 OA
ATOM      3  N   UNL     1      14.135   8.727  17.765  0.00  0.00    -0.315 N 
ATOM     21  C   UNL     1      13.969   9.035  16.416  0.00  0.00    +0.216 C 
ATOM     32  H   UNL     1      13.909   9.435  18.457  0.00  0.00    +0.149 HD
BRANCH  21  17
ATOM     17  C   UNL     1      13.596  10.472  16.190  0.00  0.00    +0.075 C 
ATOM     19  C   UNL     1      13.833  11.306  17.450  0.00  0.00    +0.013 C 
ATOM     20  C   UNL     1      14.336  11.022  14.968  0.00  0.00    +0.013 C 
ATOM     23  C   UNL     1      15.307  11.628  17.698  0.00  0.00    +0.001 C 
ATOM     24  C   UNL     1      15.807  11.328  15.247  0.00  0.00    +0.001 C 
ATOM     25  C   UNL     1      15.972  12.229  16.465  0.00  0.00    +0.000 C 
ENDBRANCH  21  17
ENDBRANCH  13   3
ENDBRANCH   7  13
BRANCH   9  14
ATOM     14  C   UNL     1      12.065   9.975  21.574  0.00  0.00    +0.082 C 
BRANCH  14  22
ATOM      1  F   UNL     1      10.487  14.737  26.815  0.00  0.00    -0.205 F 
ATOM      4  N   UNL     1      10.924  11.521  23.176  0.00  0.00    -0.342 N 
ATOM      5  N   UNL     1      13.134  11.387  23.365  0.00  0.00    -0.232 NA
ATOM     22  C   UNL     1      12.079  10.959  22.709  0.00  0.00    +0.109 A 
ATOM     26  C   UNL     1      11.255  12.367  24.204  0.00  0.00    +0.069 A 
ATOM     27  C   UNL     1      12.641  12.266  24.302  0.00  0.00    +0.089 A 
ATOM     28  C   UNL     1      10.486  13.187  25.030  0.00  0.00    +0.066 A 
ATOM     29  C   UNL     1      13.315  13.021  25.275  0.00  0.00    +0.032 A 
ATOM     30  C   UNL     1      11.174  13.932  25.993  0.00  0.00    +0.125 A 
ATOM     31  C   UNL     1      12.563  13.852  26.116  0.00  0.00    +0.040 A 
ATOM     33  H   UNL     1       9.990  11.345  22.829  0.00  0.00    +0.167 HD
ENDBRANCH  14  22
ENDBRANCH   9  14
TORSDOF 6
ENDMDL
MODEL 6
REMARK VINA RESULT:      -6.8     29.742     32.866
REMARK  Name = 71693050
REMARK  9 active torsions:
REMARK  status: ('A' for Active; 'I' for Inactive)
REMARK    1  A    between atoms: N_3  and  C_13
REMARK    2  A    between atoms: C_6  and  C_10
REMARK    3  A    between atoms: C_7  and  C_13
REMARK    4  A    between atoms: C_9  and  C_14
REMARK    5  A    between atoms: C_10  and  C_15
REMARK    6  A    between atoms: C_10  and  C_16
REMARK    7  A    between atoms: C_11  and  C_18
REMARK    8  A    between atoms: C_14  and  C_22
REMARK    9  A    between atoms: C_17  and  C_21
REMARK                            x       y       z     vdW  Elec       q    Type
REMARK                         _______ _______ _______ _____ _____    ______ ____
ROOT
ATOM      6  C   UNL     1      13.151   7.880  19.766  0.00  0.00    +0.000 C 
ATOM      7  C   UNL     1      13.124   9.362  19.311  0.00  0.00    +0.032 C 
ATOM      8  C   UNL     1      14.101   7.703  20.961  0.00  0.00    +0.012 C 
ATOM      9  C   UNL     1      15.540   8.140  20.631  0.00  0.00    +0.022 C 
ATOM     11  C   UNL     1      15.576   9.484  19.931  0.00  0.00    -0.073 C 
ATOM     12  C   UNL     1      14.483  10.020  19.360  0.00  0.00    -0.022 C 
ATOM     18  C   UNL     1      16.887  10.219  19.944  0.00  0.00    +0.039 C 
ENDROOT
BRANCH   6  10
ATOM     10  C   UNL     1      11.753   7.373  20.134  0.00  0.00    -0.013 C 
ATOM     15  C   UNL     1      10.918   8.502  20.729  0.00  0.00    +0.007 C 
ATOM     16  C   UNL     1      11.852   6.202  21.108  0.00  0.00    +0.007 C 
ENDBRANCH   6  10
BRANCH   7  13
ATOM     13  C   UNL     1      12.541   9.497  17.900  0.00  0.00    +0.112 C 
BRANCH  13   3
ATOM      2  O   UNL     1      13.625   9.672  15.213  0.00  0.00    -0.276 OA
ATOM      3  N   UNL     1      13.057  10.658  17.247  0.00  0.00    -0.315 N 
ATOM     21  C   UNL     1      13.562  10.655  15.948  0.00  0.00    +0.216 C 
ATOM     32  H   UNL     1      12.952  11.548  17.725  0.00  0.00    +0.149 HD
BRANCH  21  17
ATOM     17  C   UNL     1      14.016  12.013  15.497  0.00  0.00    +0.075 C 
ATOM     19  C   UNL     1      14.747  12.748  16.621  0.00  0.00    +0.013 C 
ATOM     20  C   UNL     1      14.856  11.891  14.224  0.00  0.00    +0.013 C 
ATOM     23  C   UNL     1      16.172  12.244  16.853  0.00  0.00    +0.001 C 
ATOM     24  C   UNL     1      16.272  11.380  14.488  0.00  0.00    +0.001 C 
ATOM     25  C   UNL     1      16.977  12.204  15.559  0.00  0.00    +0.000 C 
ENDBRANCH  21  17
ENDBRANCH  13   3
ENDBRANCH   7  13
BRANCH   9  14
ATOM     14  C   UNL     1      16.265   7.072  19.803  0.00  0.00    +0.082 C 
BRANCH  14  22
ATOM      1  F   UNL     1      22.789   4.341  21.420  0.00  0.00    -0.205 F 
ATOM      4  N   UNL     1      18.436   5.829  19.803  0.00  0.00    -0.342 N 
ATOM      5  N   UNL     1      18.064   7.132  21.565  0.00  0.00    -0.232 NA
ATOM     22  C   UNL     1      17.583   6.700  20.421  0.00  0.00    +0.109 A 
ATOM     26  C   UNL     1      19.543   5.690  20.601  0.00  0.00    +0.069 A 
ATOM     27  C   UNL     1      19.286   6.513  21.695  0.00  0.00    +0.089 A 
ATOM     28  C   UNL     1      20.711   4.939  20.464  0.00  0.00    +0.066 A 
ATOM     29  C   UNL     1      20.240   6.603  22.722  0.00  0.00    +0.032 A 
ATOM     30  C   UNL     1      21.648   5.040  21.497  0.00  0.00    +0.125 A 
ATOM     31  C   UNL     1      21.420   5.857  22.606  0.00  0.00    +0.040 A 
ATOM     33  H   UNL     1      18.282   5.368  18.916  0.00  0.00    +0.167 HD
ENDBRANCH  14  22
ENDBRANCH   9  14
TORSDOF 6
ENDMDL
MODEL 7
REMARK VINA RESULT:      -6.7      4.034      7.763
REMARK  Name = 71693050
REMARK  9 active torsions:
REMARK  status: ('A' for Active; 'I' for Inactive)
REMARK    1  A    between atoms: N_3  and  C_13
REMARK    2  A    between atoms: C_6  and  C_10
REMARK    3  A    between atoms: C_7  and  C_13
REMARK    4  A    between atoms: C_9  and  C_14
REMARK    5  A    between atoms: C_10  and  C_15
REMARK    6  A    between atoms: C_10  and  C_16
REMARK    7  A    between atoms: C_11  and  C_18
REMARK    8  A    between atoms: C_14  and  C_22
REMARK    9  A    between atoms: C_17  and  C_21
REMARK                            x       y       z     vdW  Elec       q    Type
REMARK                         _______ _______ _______ _____ _____    ______ ____
ROOT
ATOM      6  C   UNL     1      -8.384 -12.150  17.399  0.00  0.00    +0.000 C 
ATOM      7  C   UNL     1      -8.285 -12.397  18.925  0.00  0.00    +0.032 C 
ATOM      8  C   UNL     1      -7.107 -12.633  16.694  0.00  0.00    +0.012 C 
ATOM      9  C   UNL     1      -5.845 -11.927  17.223  0.00  0.00    +0.022 C 
ATOM     11  C   UNL     1      -5.811 -11.895  18.738  0.00  0.00    -0.073 C 
ATOM     12  C   UNL     1      -6.908 -12.121  19.481  0.00  0.00    -0.022 C 
ATOM     18  C   UNL     1      -4.475 -11.642  19.379  0.00  0.00    +0.039 C 
ENDROOT
BRANCH   6  10
ATOM     10  C   UNL     1      -9.608 -12.840  16.789  0.00  0.00    -0.013 C 
ATOM     15  C   UNL     1      -9.532 -14.347  17.007  0.00  0.00    +0.007 C 
ATOM     16  C   UNL     1      -9.715 -12.513  15.302  0.00  0.00    +0.007 C 
ENDBRANCH   6  10
BRANCH   7  13
ATOM     13  C   UNL     1      -9.322 -11.565  19.689  0.00  0.00    +0.112 C 
BRANCH  13   3
ATOM      2  O   UNL     1     -11.813 -10.621  18.536  0.00  0.00    -0.276 OA
ATOM      3  N   UNL     1      -9.556 -10.319  19.030  0.00  0.00    -0.315 N 
ATOM     21  C   UNL     1     -10.790  -9.943  18.502  0.00  0.00    +0.216 C 
ATOM     32  H   UNL     1      -8.804  -9.636  19.043  0.00  0.00    +0.149 HD
BRANCH  21  17
ATOM     17  C   UNL     1     -10.766  -8.574  17.887  0.00  0.00    +0.075 C 
ATOM     19  C   UNL     1      -9.379  -8.245  17.332  0.00  0.00    +0.013 C 
ATOM     20  C   UNL     1     -11.869  -8.451  16.833  0.00  0.00    +0.013 C 
ATOM     23  C   UNL     1      -9.070  -8.948  16.010  0.00  0.00    +0.001 C 
ATOM     24  C   UNL     1     -11.533  -9.168  15.527  0.00  0.00    +0.001 C 
ATOM     25  C   UNL     1     -10.176  -8.738  14.983  0.00  0.00    +0.000 C 
ENDBRANCH  21  17
ENDBRANCH  13   3
ENDBRANCH   7  13
BRANCH   9  14
ATOM     14  C   UNL     1      -5.718 -10.514  16.642  0.00  0.00    +0.082 C 
BRANCH  14  22
ATOM      1  F   UNL     1      -3.205 -10.098   9.848  0.00  0.00    -0.205 F 
ATOM      4  N   UNL     1      -5.461 -10.228  14.170  0.00  0.00    -0.342 N 
ATOM      5  N   UNL     1      -3.612 -10.763  15.282  0.00  0.00    -0.232 NA
ATOM     22  C   UNL     1      -4.898 -10.511  15.383  0.00  0.00    +0.109 A 
ATOM     26  C   UNL     1      -4.471 -10.301  13.222  0.00  0.00    +0.069 A 
ATOM     27  C   UNL     1      -3.327 -10.637  13.942  0.00  0.00    +0.089 A 
ATOM     28  C   UNL     1      -4.479 -10.109  11.841  0.00  0.00    +0.066 A 
ATOM     29  C   UNL     1      -2.111 -10.794  13.259  0.00  0.00    +0.032 A 
ATOM     30  C   UNL     1      -3.259 -10.271  11.176  0.00  0.00    +0.125 A 
ATOM     31  C   UNL     1      -2.094 -10.606  11.870  0.00  0.00    +0.040 A 
ATOM     33  H   UNL     1      -6.432 -10.005  13.998  0.00  0.00    +0.167 HD
ENDBRANCH  14  22
ENDBRANCH   9  14
TORSDOF 6
ENDMDL
MODEL 8
REMARK VINA RESULT:      -6.6     27.758     30.037
REMARK  Name = 71693050
REMARK  9 active torsions:
REMARK  status: ('A' for Active; 'I' for Inactive)
REMARK    1  A    between atoms: N_3  and  C_13
REMARK    2  A    between atoms: C_6  and  C_10
REMARK    3  A    between atoms: C_7  and  C_13
REMARK    4  A    between atoms: C_9  and  C_14
REMARK    5  A    between atoms: C_10  and  C_15
REMARK    6  A    between atoms: C_10  and  C_16
REMARK    7  A    between atoms: C_11  and  C_18
REMARK    8  A    between atoms: C_14  and  C_22
REMARK    9  A    between atoms: C_17  and  C_21
REMARK                            x       y       z     vdW  Elec       q    Type
REMARK                         _______ _______ _______ _____ _____    ______ ____
ROOT
ATOM      6  C   UNL     1       9.159   8.399   5.946  0.00  0.00    +0.000 C 
ATOM      7  C   UNL     1       8.765   8.377   7.445  0.00  0.00    +0.032 C 
ATOM      8  C   UNL     1       8.820   7.056   5.283  0.00  0.00    +0.012 C 
ATOM      9  C   UNL     1       9.539   5.874   5.960  0.00  0.00    +0.022 C 
ATOM     11  C   UNL     1       9.421   5.932   7.469  0.00  0.00    -0.073 C 
ATOM     12  C   UNL     1       9.061   7.055   8.114  0.00  0.00    -0.022 C 
ATOM     18  C   UNL     1       9.682   4.655   8.218  0.00  0.00    +0.039 C 
ENDROOT
BRANCH   6  10
ATOM     10  C   UNL     1       8.466   9.540   5.194  0.00  0.00    -0.013 C 
ATOM     15  C   UNL     1       7.473   8.982   4.181  0.00  0.00    +0.007 C 
ATOM     16  C   UNL     1       9.500  10.427   4.505  0.00  0.00    +0.007 C 
ENDBRANCH   6  10
BRANCH   7  13
ATOM     13  C   UNL     1       9.458   9.507   8.216  0.00  0.00    +0.112 C 
BRANCH  13   3
ATOM      2  O   UNL     1      10.998  11.848   7.458  0.00  0.00    -0.276 OA
ATOM      3  N   UNL     1      10.849   9.563   7.892  0.00  0.00    -0.315 N 
ATOM     21  C   UNL     1      11.513  10.735   7.536  0.00  0.00    +0.216 C 
ATOM     32  H   UNL     1      11.394   8.718   8.031  0.00  0.00    +0.149 HD
BRANCH  21  17
ATOM     17  C   UNL     1      12.974  10.518   7.271  0.00  0.00    +0.075 C 
ATOM     19  C   UNL     1      13.230   9.109   6.731  0.00  0.00    +0.013 C 
ATOM     20  C   UNL     1      13.511  11.612   6.346  0.00  0.00    +0.013 C 
ATOM     23  C   UNL     1      12.842   8.939   5.263  0.00  0.00    +0.001 C 
ATOM     24  C   UNL     1      13.100  11.417   4.886  0.00  0.00    +0.001 C 
ATOM     25  C   UNL     1      13.455  10.023   4.384  0.00  0.00    +0.000 C 
ENDBRANCH  21  17
ENDBRANCH  13   3
ENDBRANCH   7  13
BRANCH   9  14
ATOM     14  C   UNL     1      11.008   5.800   5.527  0.00  0.00    +0.082 C 
BRANCH  14  22
ATOM      1  F   UNL     1      13.063   5.065  -1.392  0.00  0.00    -0.205 F 
ATOM      4  N   UNL     1      12.227   5.873   3.344  0.00  0.00    -0.342 N 
ATOM      5  N   UNL     1      10.267   4.825   3.326  0.00  0.00    -0.232 NA
ATOM     22  C   UNL     1      11.134   5.481   4.065  0.00  0.00    +0.109 A 
ATOM     26  C   UNL     1      12.055   5.440   2.053  0.00  0.00    +0.069 A 
ATOM     27  C   UNL     1      10.824   4.789   2.068  0.00  0.00    +0.089 A 
ATOM     28  C   UNL     1      12.845   5.558   0.910  0.00  0.00    +0.066 A 
ATOM     29  C   UNL     1      10.338   4.217   0.881  0.00  0.00    +0.032 A 
ATOM     30  C   UNL     1      12.346   4.983  -0.263  0.00  0.00    +0.125 A 
ATOM     31  C   UNL     1      11.115   4.323  -0.280  0.00  0.00    +0.040 A 
ATOM     33  H   UNL     1      13.022   6.390   3.696  0.00  0.00    +0.167 HD
ENDBRANCH  14  22
ENDBRANCH   9  14
TORSDOF 6
ENDMDL
MODEL 9
REMARK VINA RESULT:      -6.6     31.253     34.787
REMARK  Name = 71693050
REMARK  9 active torsions:
REMARK  status: ('A' for Active; 'I' for Inactive)
REMARK    1  A    between atoms: N_3  and  C_13
REMARK    2  A    between atoms: C_6  and  C_10
REMARK    3  A    between atoms: C_7  and  C_13
REMARK    4  A    between atoms: C_9  and  C_14
REMARK    5  A    between atoms: C_10  and  C_15
REMARK    6  A    between atoms: C_10  and  C_16
REMARK    7  A    between atoms: C_11  and  C_18
REMARK    8  A    between atoms: C_14  and  C_22
REMARK    9  A    between atoms: C_17  and  C_21
REMARK                            x       y       z     vdW  Elec       q    Type
REMARK                         _______ _______ _______ _____ _____    ______ ____
ROOT
ATOM      6  C   UNL     1      17.667   7.717  20.725  0.00  0.00    +0.000 C 
ATOM      7  C   UNL     1      17.787   9.028  21.543  0.00  0.00    +0.032 C 
ATOM      8  C   UNL     1      18.066   6.509  21.587  0.00  0.00    +0.012 C 
ATOM      9  C   UNL     1      19.506   6.623  22.121  0.00  0.00    +0.022 C 
ATOM     11  C   UNL     1      19.783   7.993  22.706  0.00  0.00    -0.073 C 
ATOM     12  C   UNL     1      18.996   9.052  22.448  0.00  0.00    -0.022 C 
ATOM     18  C   UNL     1      20.961   8.107  23.634  0.00  0.00    +0.039 C 
ENDROOT
BRANCH   6  10
ATOM     10  C   UNL     1      16.252   7.518  20.174  0.00  0.00    -0.013 C 
ATOM     15  C   UNL     1      15.242   7.448  21.314  0.00  0.00    +0.007 C 
ATOM     16  C   UNL     1      16.189   6.256  19.317  0.00  0.00    +0.007 C 
ENDBRANCH   6  10
BRANCH   7  13
ATOM     13  C   UNL     1      17.811  10.254  20.623  0.00  0.00    +0.112 C 
BRANCH  13   3
ATOM      2  O   UNL     1      15.454  10.499  18.948  0.00  0.00    -0.276 OA
ATOM      3  N   UNL     1      16.668  11.081  20.850  0.00  0.00    -0.315 N 
ATOM     21  C   UNL     1      15.573  11.139  19.990  0.00  0.00    +0.216 C 
ATOM     32  H   UNL     1      16.615  11.570  21.738  0.00  0.00    +0.149 HD
BRANCH  21  17
ATOM     17  C   UNL     1      14.500  12.068  20.477  0.00  0.00    +0.075 C 
ATOM     19  C   UNL     1      13.159  11.755  19.811  0.00  0.00    +0.013 C 
ATOM     20  C   UNL     1      14.425  12.031  22.005  0.00  0.00    +0.013 C 
ATOM     23  C   UNL     1      12.473  10.512  20.378  0.00  0.00    +0.001 C 
ATOM     24  C   UNL     1      13.739  10.774  22.540  0.00  0.00    +0.001 C 
ATOM     25  C   UNL     1      12.374  10.562  21.898  0.00  0.00    +0.000 C 
ENDBRANCH  21  17
ENDBRANCH  13   3
ENDBRANCH   7  13
BRANCH   9  14
ATOM     14  C   UNL     1      20.527   6.275  21.032  0.00  0.00    +0.082 C 
BRANCH  14  22
ATOM      1  F   UNL     1      24.918   0.506  21.312  0.00  0.00    -0.205 F 
ATOM      4  N   UNL     1      22.067   4.377  20.497  0.00  0.00    -0.342 N 
ATOM      5  N   UNL     1      21.545   4.627  22.643  0.00  0.00    -0.232 NA
ATOM     22  C   UNL     1      21.371   5.097  21.428  0.00  0.00    +0.109 A 
ATOM     26  C   UNL     1      22.735   3.376  21.156  0.00  0.00    +0.069 A 
ATOM     27  C   UNL     1      22.393   3.554  22.494  0.00  0.00    +0.089 A 
ATOM     28  C   UNL     1      23.584   2.363  20.710  0.00  0.00    +0.066 A 
ATOM     29  C   UNL     1      22.918   2.677  23.457  0.00  0.00    +0.032 A 
ATOM     30  C   UNL     1      24.097   1.498  21.682  0.00  0.00    +0.125 A 
ATOM     31  C   UNL     1      23.772   1.651  23.032  0.00  0.00    +0.040 A 
ATOM     33  H   UNL     1      22.088   4.549  19.500  0.00  0.00    +0.167 HD
ENDBRANCH  14  22
ENDBRANCH   9  14
TORSDOF 6
ENDMDL
MODEL 10
REMARK VINA RESULT:      -6.4     15.791     18.628
REMARK  Name = 71693050
REMARK  9 active torsions:
REMARK  status: ('A' for Active; 'I' for Inactive)
REMARK    1  A    between atoms: N_3  and  C_13
REMARK    2  A    between atoms: C_6  and  C_10
REMARK    3  A    between atoms: C_7  and  C_13
REMARK    4  A    between atoms: C_9  and  C_14
REMARK    5  A    between atoms: C_10  and  C_15
REMARK    6  A    between atoms: C_10  and  C_16
REMARK    7  A    between atoms: C_11  and  C_18
REMARK    8  A    between atoms: C_14  and  C_22
REMARK    9  A    between atoms: C_17  and  C_21
REMARK                            x       y       z     vdW  Elec       q    Type
REMARK                         _______ _______ _______ _____ _____    ______ ____
ROOT
ATOM      6  C   UNL     1     -14.130   7.233  20.908  0.00  0.00    +0.000 C 
ATOM      7  C   UNL     1     -14.971   7.298  19.608  0.00  0.00    +0.032 C 
ATOM      8  C   UNL     1     -14.071   5.792  21.437  0.00  0.00    +0.012 C 
ATOM      9  C   UNL     1     -15.471   5.221  21.731  0.00  0.00    +0.022 C 
ATOM     11  C   UNL     1     -16.438   5.487  20.595  0.00  0.00    -0.073 C 
ATOM     12  C   UNL     1     -16.191   6.408  19.648  0.00  0.00    -0.022 C 
ATOM     18  C   UNL     1     -17.675   4.634  20.547  0.00  0.00    +0.039 C 
ENDROOT
BRANCH   6  10
ATOM     10  C   UNL     1     -12.710   7.767  20.693  0.00  0.00    -0.013 C 
ATOM     15  C   UNL     1     -11.684   6.670  20.961  0.00  0.00    +0.007 C 
ATOM     16  C   UNL     1     -12.456   8.975  21.590  0.00  0.00    +0.007 C 
ENDBRANCH   6  10
BRANCH   7  13
ATOM     13  C   UNL     1     -15.398   8.738  19.296  0.00  0.00    +0.112 C 
BRANCH  13   3
ATOM      2  O   UNL     1     -14.050  11.287  19.630  0.00  0.00    -0.276 OA
ATOM      3  N   UNL     1     -14.476   9.356  18.396  0.00  0.00    -0.315 N 
ATOM     21  C   UNL     1     -13.871  10.589  18.635  0.00  0.00    +0.216 C 
ATOM     32  H   UNL     1     -14.174   8.814  17.593  0.00  0.00    +0.149 HD
BRANCH  21  17
ATOM     17  C   UNL     1     -12.927  10.995  17.541  0.00  0.00    +0.075 C 
ATOM     19  C   UNL     1     -11.729  11.759  18.106  0.00  0.00    +0.013 C 
ATOM     20  C   UNL     1     -12.515   9.771  16.720  0.00  0.00    +0.013 C 
ATOM     23  C   UNL     1     -10.699  10.859  18.790  0.00  0.00    +0.001 C 
ATOM     24  C   UNL     1     -11.490   8.889  17.433  0.00  0.00    +0.001 C 
ATOM     25  C   UNL     1     -10.284   9.694  17.899  0.00  0.00    +0.000 C 
ENDBRANCH  21  17
ENDBRANCH  13   3
ENDBRANCH   7  13
BRANCH   9  14
ATOM     14  C   UNL     1     -16.020   5.763  23.056  0.00  0.00    +0.082 C 
BRANCH  14  22
ATOM      1  F   UNL     1     -16.616   1.701  29.038  0.00  0.00    -0.205 F 
ATOM      4  N   UNL     1     -16.125   4.922  25.410  0.00  0.00    -0.342 N 
ATOM      5  N   UNL     1     -16.409   3.394  23.820  0.00  0.00    -0.232 NA
ATOM     22  C   UNL     1     -16.190   4.666  24.068  0.00  0.00    +0.109 A 
ATOM     26  C   UNL     1     -16.317   3.736  26.072  0.00  0.00    +0.069 A 
ATOM     27  C   UNL     1     -16.491   2.798  25.057  0.00  0.00    +0.089 A 
ATOM     28  C   UNL     1     -16.351   3.413  27.428  0.00  0.00    +0.066 A 
ATOM     29  C   UNL     1     -16.713   1.454  25.399  0.00  0.00    +0.032 A 
ATOM     30  C   UNL     1     -16.572   2.069  27.750  0.00  0.00    +0.125 A 
ATOM     31  C   UNL     1     -16.751   1.106  26.756  0.00  0.00    +0.040 A 
ATOM     33  H   UNL     1     -15.965   5.823  25.840  0.00  0.00    +0.167 HD
ENDBRANCH  14  22
ENDBRANCH   9  14
TORSDOF 6
ENDMDL
