MODEL 1
REMARK VINA RESULT:      -8.5      0.000      0.000
REMARK  Name = 51137960
REMARK  8 active torsions:
REMARK  status: ('A' for Active; 'I' for Inactive)
REMARK    1  A    between atoms: N_4  and  C_21
REMARK    2  A    between atoms: C_5  and  C_7
REMARK    3  A    between atoms: C_6  and  C_16
REMARK    4  A    between atoms: C_7  and  C_12
REMARK    5  A    between atoms: C_12  and  C_17
REMARK    6  A    between atoms: C_12  and  C_18
REMARK    7  A    between atoms: C_21  and  C_22
REMARK    8  A    between atoms: C_21  and  C_23
REMARK                            x       y       z     vdW  Elec       q    Type
REMARK                         _______ _______ _______ _____ _____    ______ ____
ROOT
ATOM      2  N   UNL     1      -1.142   0.010  24.736  0.00  0.00    -0.299 NA
ATOM      3  N   UNL     1      -2.051   4.941  25.342  0.00  0.00    -0.360 N 
ATOM      5  C   UNL     1      -2.603   0.155  24.681  0.00  0.00    +0.085 C 
ATOM      6  C   UNL     1      -0.415   0.818  23.768  0.00  0.00    +0.145 C 
ATOM      8  C   UNL     1      -3.151   1.544  25.025  0.00  0.00    -0.021 A 
ATOM      9  C   UNL     1      -2.384   2.745  25.053  0.00  0.00    +0.008 A 
ATOM     10  C   UNL     1       0.086   2.121  24.388  0.00  0.00    +0.065 C 
ATOM     11  C   UNL     1      -1.004   3.056  24.792  0.00  0.00    -0.020 A 
ATOM     13  C   UNL     1      -3.010   3.956  25.370  0.00  0.00    +0.047 A 
ATOM     14  C   UNL     1      -4.542   1.686  25.262  0.00  0.00    +0.006 A 
ATOM     15  C   UNL     1      -0.844   4.413  24.990  0.00  0.00    +0.087 A 
ATOM     19  C   UNL     1      -4.374   4.067  25.646  0.00  0.00    +0.026 A 
ATOM     20  C   UNL     1      -5.135   2.907  25.574  0.00  0.00    +0.002 A 
ATOM     24  H   UNL     1      -0.795   0.167  25.682  0.00  0.00    +0.123 HD
ATOM     25  H   UNL     1      -2.222   5.918  25.537  0.00  0.00    +0.165 HD
ENDROOT
BRANCH   6  16
ATOM      1  O   UNL     1       0.711  -1.244  23.354  0.00  0.00    -0.274 OA
ATOM      4  N   UNL     1       1.865   0.753  23.041  0.00  0.00    -0.312 N 
ATOM     16  C   UNL     1       0.761  -0.017  23.364  0.00  0.00    +0.231 C 
ATOM     26  H   UNL     1       1.772   1.765  23.022  0.00  0.00    +0.149 HD
BRANCH   4  21
ATOM     21  C   UNL     1       3.134   0.189  22.641  0.00  0.00    +0.067 C 
ATOM     22  C   UNL     1       4.205   1.272  22.582  0.00  0.00    +0.027 C 
ATOM     23  C   UNL     1       3.536  -0.935  23.586  0.00  0.00    +0.027 C 
ENDBRANCH   4  21
ENDBRANCH   6  16
BRANCH   5   7
ATOM      7  C   UNL     1      -3.138  -0.939  25.623  0.00  0.00    +0.026 C 
BRANCH   7  12
ATOM     12  C   UNL     1      -3.486  -2.239  24.893  0.00  0.00    -0.015 C 
ATOM     17  C   UNL     1      -2.196  -2.918  24.427  0.00  0.00    +0.007 C 
ATOM     18  C   UNL     1      -4.412  -2.013  23.696  0.00  0.00    +0.007 C 
ENDBRANCH   7  12
ENDBRANCH   5   7
TORSDOF 4
ENDMDL
MODEL 2
REMARK VINA RESULT:      -7.0     14.127     15.792
REMARK  Name = 51137960
REMARK  8 active torsions:
REMARK  status: ('A' for Active; 'I' for Inactive)
REMARK    1  A    between atoms: N_4  and  C_21
REMARK    2  A    between atoms: C_5  and  C_7
REMARK    3  A    between atoms: C_6  and  C_16
REMARK    4  A    between atoms: C_7  and  C_12
REMARK    5  A    between atoms: C_12  and  C_17
REMARK    6  A    between atoms: C_12  and  C_18
REMARK    7  A    between atoms: C_21  and  C_22
REMARK    8  A    between atoms: C_21  and  C_23
REMARK                            x       y       z     vdW  Elec       q    Type
REMARK                         _______ _______ _______ _____ _____    ______ ____
ROOT
ATOM      2  N   UNL     1      -4.680 -10.586  14.800  0.00  0.00    -0.299 NA
ATOM      3  N   UNL     1      -8.327  -9.480  18.114  0.00  0.00    -0.360 N 
ATOM      5  C   UNL     1      -4.353 -11.340  16.018  0.00  0.00    +0.085 C 
ATOM      6  C   UNL     1      -6.004 -10.852  14.258  0.00  0.00    +0.145 C 
ATOM      8  C   UNL     1      -5.214 -11.032  17.248  0.00  0.00    -0.021 A 
ATOM      9  C   UNL     1      -6.472 -10.362  17.221  0.00  0.00    +0.008 A 
ATOM     10  C   UNL     1      -7.017  -9.801  14.707  0.00  0.00    +0.065 C 
ATOM     11  C   UNL     1      -7.291  -9.814  16.174  0.00  0.00    -0.020 A 
ATOM     13  C   UNL     1      -7.168 -10.154  18.418  0.00  0.00    +0.047 A 
ATOM     14  C   UNL     1      -4.786 -11.508  18.513  0.00  0.00    +0.006 A 
ATOM     15  C   UNL     1      -8.415  -9.276  16.769  0.00  0.00    +0.087 A 
ATOM     19  C   UNL     1      -6.706 -10.591  19.661  0.00  0.00    +0.026 A 
ATOM     20  C   UNL     1      -5.504 -11.286  19.686  0.00  0.00    +0.002 A 
ATOM     24  H   UNL     1      -4.533  -9.587  14.940  0.00  0.00    +0.123 HD
ATOM     25  H   UNL     1      -9.022  -9.194  18.790  0.00  0.00    +0.165 HD
ENDROOT
BRANCH   6  16
ATOM      1  O   UNL     1      -6.621 -11.333  12.003  0.00  0.00    -0.274 OA
ATOM      4  N   UNL     1      -4.731 -10.034  12.402  0.00  0.00    -0.312 N 
ATOM     16  C   UNL     1      -5.842 -10.773  12.771  0.00  0.00    +0.231 C 
ATOM     26  H   UNL     1      -4.193  -9.560  13.123  0.00  0.00    +0.149 HD
BRANCH   4  21
ATOM     21  C   UNL     1      -4.339  -9.825  11.027  0.00  0.00    +0.067 C 
ATOM     22  C   UNL     1      -4.899  -8.507  10.506  0.00  0.00    +0.027 C 
ATOM     23  C   UNL     1      -2.823  -9.873  10.894  0.00  0.00    +0.027 C 
ENDBRANCH   4  21
ENDBRANCH   6  16
BRANCH   5   7
ATOM      7  C   UNL     1      -2.858 -11.060  16.260  0.00  0.00    +0.026 C 
BRANCH   7  12
ATOM     12  C   UNL     1      -2.094 -10.736  14.973  0.00  0.00    -0.015 C 
ATOM     17  C   UNL     1      -1.542 -12.032  14.375  0.00  0.00    +0.007 C 
ATOM     18  C   UNL     1      -0.952  -9.744  15.199  0.00  0.00    +0.007 C 
ENDBRANCH   7  12
ENDBRANCH   5   7
TORSDOF 4
ENDMDL
MODEL 3
REMARK VINA RESULT:      -6.7     14.309     16.734
REMARK  Name = 51137960
REMARK  8 active torsions:
REMARK  status: ('A' for Active; 'I' for Inactive)
REMARK    1  A    between atoms: N_4  and  C_21
REMARK    2  A    between atoms: C_5  and  C_7
REMARK    3  A    between atoms: C_6  and  C_16
REMARK    4  A    between atoms: C_7  and  C_12
REMARK    5  A    between atoms: C_12  and  C_17
REMARK    6  A    between atoms: C_12  and  C_18
REMARK    7  A    between atoms: C_21  and  C_22
REMARK    8  A    between atoms: C_21  and  C_23
REMARK                            x       y       z     vdW  Elec       q    Type
REMARK                         _______ _______ _______ _____ _____    ______ ____
ROOT
ATOM      2  N   UNL     1      -6.207  -9.416  14.840  0.00  0.00    -0.299 NA
ATOM      3  N   UNL     1      -1.599 -11.416  15.366  0.00  0.00    -0.360 N 
ATOM      5  C   UNL     1      -5.947 -10.151  13.595  0.00  0.00    +0.085 C 
ATOM      6  C   UNL     1      -6.099 -10.216  16.051  0.00  0.00    +0.145 C 
ATOM      8  C   UNL     1      -4.528 -10.702  13.426  0.00  0.00    -0.021 A 
ATOM      9  C   UNL     1      -3.578 -10.858  14.478  0.00  0.00    +0.008 A 
ATOM     10  C   UNL     1      -4.728 -10.059  16.707  0.00  0.00    +0.065 C 
ATOM     11  C   UNL     1      -3.602 -10.603  15.893  0.00  0.00    -0.020 A 
ATOM     13  C   UNL     1      -2.315 -11.389  14.192  0.00  0.00    +0.047 A 
ATOM     14  C   UNL     1      -4.129 -11.172  12.149  0.00  0.00    +0.006 A 
ATOM     15  C   UNL     1      -2.364 -10.952  16.395  0.00  0.00    +0.087 A 
ATOM     19  C   UNL     1      -1.925 -11.804  12.918  0.00  0.00    +0.026 A 
ATOM     20  C   UNL     1      -2.863 -11.698  11.899  0.00  0.00    +0.002 A 
ATOM     24  H   UNL     1      -5.627  -8.580  14.898  0.00  0.00    +0.123 HD
ATOM     25  H   UNL     1      -0.649 -11.749  15.455  0.00  0.00    +0.165 HD
ENDROOT
BRANCH   6  16
ATOM      1  O   UNL     1      -7.086  -9.837  18.190  0.00  0.00    -0.274 OA
ATOM      4  N   UNL     1      -8.161  -9.024  16.291  0.00  0.00    -0.312 N 
ATOM     16  C   UNL     1      -7.149  -9.677  16.973  0.00  0.00    +0.231 C 
ATOM     26  H   UNL     1      -8.075  -8.896  15.287  0.00  0.00    +0.149 HD
BRANCH   4  21
ATOM     21  C   UNL     1      -9.305  -8.434  16.948  0.00  0.00    +0.067 C 
ATOM     22  C   UNL     1      -9.928  -7.356  16.068  0.00  0.00    +0.027 C 
ATOM     23  C   UNL     1     -10.321  -9.508  17.311  0.00  0.00    +0.027 C 
ENDBRANCH   4  21
ENDBRANCH   6  16
BRANCH   5   7
ATOM      7  C   UNL     1      -6.334  -9.167  12.475  0.00  0.00    +0.026 C 
BRANCH   7  12
ATOM     12  C   UNL     1      -7.488  -9.674  11.605  0.00  0.00    -0.015 C 
ATOM     17  C   UNL     1      -7.990 -11.009  12.160  0.00  0.00    +0.007 C 
ATOM     18  C   UNL     1      -7.089  -9.842  10.138  0.00  0.00    +0.007 C 
ENDBRANCH   7  12
ENDBRANCH   5   7
TORSDOF 4
ENDMDL
MODEL 4
REMARK VINA RESULT:      -6.5     28.370     30.541
REMARK  Name = 51137960
REMARK  8 active torsions:
REMARK  status: ('A' for Active; 'I' for Inactive)
REMARK    1  A    between atoms: N_4  and  C_21
REMARK    2  A    between atoms: C_5  and  C_7
REMARK    3  A    between atoms: C_6  and  C_16
REMARK    4  A    between atoms: C_7  and  C_12
REMARK    5  A    between atoms: C_12  and  C_17
REMARK    6  A    between atoms: C_12  and  C_18
REMARK    7  A    between atoms: C_21  and  C_22
REMARK    8  A    between atoms: C_21  and  C_23
REMARK                            x       y       z     vdW  Elec       q    Type
REMARK                         _______ _______ _______ _____ _____    ______ ____
ROOT
ATOM      2  N   UNL     1       2.673 -13.895  -1.948  0.00  0.00    -0.299 NA
ATOM      3  N   UNL     1      -1.738 -13.679   0.502  0.00  0.00    -0.360 N 
ATOM      5  C   UNL     1       2.881 -14.626  -0.690  0.00  0.00    +0.085 C 
ATOM      6  C   UNL     1       1.575 -14.391  -2.764  0.00  0.00    +0.145 C 
ATOM      8  C   UNL     1       1.736 -14.549   0.325  0.00  0.00    -0.021 A 
ATOM      9  C   UNL     1       0.403 -14.138   0.029  0.00  0.00    +0.008 A 
ATOM     10  C   UNL     1       0.300 -13.580  -2.542  0.00  0.00    +0.065 C 
ATOM     11  C   UNL     1      -0.270 -13.714  -1.169  0.00  0.00    -0.020 A 
ATOM     13  C   UNL     1      -0.557 -14.126   1.048  0.00  0.00    +0.047 A 
ATOM     14  C   UNL     1       1.973 -14.989   1.652  0.00  0.00    +0.006 A 
ATOM     15  C   UNL     1      -1.579 -13.435  -0.829  0.00  0.00    +0.087 A 
ATOM     19  C   UNL     1      -0.290 -14.520   2.360  0.00  0.00    +0.026 A 
ATOM     20  C   UNL     1       0.995 -14.967   2.643  0.00  0.00    +0.002 A 
ATOM     24  H   UNL     1       2.583 -12.894  -1.777  0.00  0.00    +0.123 HD
ATOM     25  H   UNL     1      -2.602 -13.566   1.013  0.00  0.00    +0.165 HD
ENDROOT
BRANCH   6  16
ATOM      1  O   UNL     1       2.974 -14.847  -4.643  0.00  0.00    -0.274 OA
ATOM      4  N   UNL     1       1.280 -13.264  -4.856  0.00  0.00    -0.312 N 
ATOM     16  C   UNL     1       2.028 -14.213  -4.181  0.00  0.00    +0.231 C 
ATOM     26  H   UNL     1       0.476 -12.849  -4.393  0.00  0.00    +0.149 HD
BRANCH   4  21
ATOM     21  C   UNL     1       1.529 -12.891  -6.230  0.00  0.00    +0.067 C 
ATOM     22  C   UNL     1       0.216 -12.645  -6.963  0.00  0.00    +0.027 C 
ATOM     23  C   UNL     1       2.434 -11.667  -6.291  0.00  0.00    +0.027 C 
ENDBRANCH   4  21
ENDBRANCH   6  16
BRANCH   5   7
ATOM      7  C   UNL     1       4.202 -14.069  -0.130  0.00  0.00    +0.026 C 
BRANCH   7  12
ATOM     12  C   UNL     1       5.301 -15.131  -0.023  0.00  0.00    -0.015 C 
ATOM     17  C   UNL     1       5.012 -16.258  -1.017  0.00  0.00    +0.007 C 
ATOM     18  C   UNL     1       5.429 -15.706   1.388  0.00  0.00    +0.007 C 
ENDBRANCH   7  12
ENDBRANCH   5   7
TORSDOF 4
ENDMDL
MODEL 5
REMARK VINA RESULT:      -6.5     14.047     16.227
REMARK  Name = 51137960
REMARK  8 active torsions:
REMARK  status: ('A' for Active; 'I' for Inactive)
REMARK    1  A    between atoms: N_4  and  C_21
REMARK    2  A    between atoms: C_5  and  C_7
REMARK    3  A    between atoms: C_6  and  C_16
REMARK    4  A    between atoms: C_7  and  C_12
REMARK    5  A    between atoms: C_12  and  C_17
REMARK    6  A    between atoms: C_12  and  C_18
REMARK    7  A    between atoms: C_21  and  C_22
REMARK    8  A    between atoms: C_21  and  C_23
REMARK                            x       y       z     vdW  Elec       q    Type
REMARK                         _______ _______ _______ _____ _____    ______ ____
ROOT
ATOM      2  N   UNL     1      -6.755 -11.092  16.399  0.00  0.00    -0.299 NA
ATOM      3  N   UNL     1      -3.436 -10.345  12.667  0.00  0.00    -0.360 N 
ATOM      5  C   UNL     1      -5.454 -10.906  17.055  0.00  0.00    +0.085 C 
ATOM      6  C   UNL     1      -7.159 -10.000  15.526  0.00  0.00    +0.145 C 
ATOM      8  C   UNL     1      -4.238 -10.843  16.125  0.00  0.00    -0.021 A 
ATOM      9  C   UNL     1      -4.292 -10.611  14.720  0.00  0.00    +0.008 A 
ATOM     10  C   UNL     1      -6.822 -10.294  14.066  0.00  0.00    +0.065 C 
ATOM     11  C   UNL     1      -5.358 -10.371  13.786  0.00  0.00    -0.020 A 
ATOM     13  C   UNL     1      -3.102 -10.562  13.983  0.00  0.00    +0.047 A 
ATOM     14  C   UNL     1      -2.943 -10.942  16.693  0.00  0.00    +0.006 A 
ATOM     15  C   UNL     1      -4.787 -10.222  12.538  0.00  0.00    +0.087 A 
ATOM     19  C   UNL     1      -1.837 -10.709  14.556  0.00  0.00    +0.026 A 
ATOM     20  C   UNL     1      -1.778 -10.888  15.932  0.00  0.00    +0.002 A 
ATOM     24  H   UNL     1      -6.792 -11.987  15.911  0.00  0.00    +0.123 HD
ATOM     25  H   UNL     1      -2.772 -10.269  11.909  0.00  0.00    +0.165 HD
ENDROOT
BRANCH   6  16
ATOM      1  O   UNL     1      -9.405 -10.045  14.722  0.00  0.00    -0.274 OA
ATOM      4  N   UNL     1      -9.023  -9.626  16.980  0.00  0.00    -0.312 N 
ATOM     16  C   UNL     1      -8.646  -9.904  15.678  0.00  0.00    +0.231 C 
ATOM     26  H   UNL     1      -8.310  -9.594  17.705  0.00  0.00    +0.149 HD
BRANCH   4  21
ATOM     21  C   UNL     1     -10.400  -9.461  17.387  0.00  0.00    +0.067 C 
ATOM     22  C   UNL     1     -10.587  -9.904  18.833  0.00  0.00    +0.027 C 
ATOM     23  C   UNL     1     -10.842  -8.017  17.191  0.00  0.00    +0.027 C 
ENDBRANCH   4  21
ENDBRANCH   6  16
BRANCH   5   7
ATOM      7  C   UNL     1      -5.361 -12.060  18.070  0.00  0.00    +0.026 C 
BRANCH   7  12
ATOM     12  C   UNL     1      -5.995 -11.721  19.422  0.00  0.00    -0.015 C 
ATOM     17  C   UNL     1      -7.336 -12.448  19.547  0.00  0.00    +0.007 C 
ATOM     18  C   UNL     1      -6.202 -10.218  19.616  0.00  0.00    +0.007 C 
ENDBRANCH   7  12
ENDBRANCH   5   7
TORSDOF 4
ENDMDL
MODEL 6
REMARK VINA RESULT:      -6.4     21.643     24.992
REMARK  Name = 51137960
REMARK  8 active torsions:
REMARK  status: ('A' for Active; 'I' for Inactive)
REMARK    1  A    between atoms: N_4  and  C_21
REMARK    2  A    between atoms: C_5  and  C_7
REMARK    3  A    between atoms: C_6  and  C_16
REMARK    4  A    between atoms: C_7  and  C_12
REMARK    5  A    between atoms: C_12  and  C_17
REMARK    6  A    between atoms: C_12  and  C_18
REMARK    7  A    between atoms: C_21  and  C_22
REMARK    8  A    between atoms: C_21  and  C_23
REMARK                            x       y       z     vdW  Elec       q    Type
REMARK                         _______ _______ _______ _____ _____    ______ ____
ROOT
ATOM      2  N   UNL     1      10.758   5.753   3.656  0.00  0.00    -0.299 NA
ATOM      3  N   UNL     1       8.555   9.199   0.694  0.00  0.00    -0.360 N 
ATOM      5  C   UNL     1       9.597   6.242   4.411  0.00  0.00    +0.085 C 
ATOM      6  C   UNL     1      10.445   5.215   2.340  0.00  0.00    +0.145 C 
ATOM      8  C   UNL     1       8.858   7.438   3.802  0.00  0.00    -0.021 A 
ATOM      9  C   UNL     1       8.983   7.878   2.452  0.00  0.00    +0.008 A 
ATOM     10  C   UNL     1      10.666   6.255   1.243  0.00  0.00    +0.065 C 
ATOM     11  C   UNL     1       9.734   7.418   1.315  0.00  0.00    -0.020 A 
ATOM     13  C   UNL     1       8.238   8.980   2.014  0.00  0.00    +0.047 A 
ATOM     14  C   UNL     1       7.912   8.130   4.600  0.00  0.00    +0.006 A 
ATOM     15  C   UNL     1       9.447   8.263   0.262  0.00  0.00    +0.087 A 
ATOM     19  C   UNL     1       7.346   9.678   2.830  0.00  0.00    +0.026 A 
ATOM     20  C   UNL     1       7.185   9.223   4.133  0.00  0.00    +0.002 A 
ATOM     24  H   UNL     1      11.484   6.467   3.600  0.00  0.00    +0.123 HD
ATOM     25  H   UNL     1       8.166   9.937   0.123  0.00  0.00    +0.165 HD
ENDROOT
BRANCH   6  16
ATOM      1  O   UNL     1      11.339   3.053   2.812  0.00  0.00    -0.274 OA
ATOM      4  N   UNL     1      12.339   4.350   1.158  0.00  0.00    -0.312 N 
ATOM     16  C   UNL     1      11.403   4.081   2.142  0.00  0.00    +0.231 C 
ATOM     26  H   UNL     1      12.256   5.209   0.621  0.00  0.00    +0.149 HD
BRANCH   4  21
ATOM     21  C   UNL     1      13.388   3.427   0.789  0.00  0.00    +0.067 C 
ATOM     22  C   UNL     1      13.683   3.522  -0.703  0.00  0.00    +0.027 C 
ATOM     23  C   UNL     1      14.639   3.688   1.617  0.00  0.00    +0.027 C 
ENDBRANCH   4  21
ENDBRANCH   6  16
BRANCH   5   7
ATOM      7  C   UNL     1      10.146   6.543   5.818  0.00  0.00    +0.026 C 
BRANCH   7  12
ATOM     12  C   UNL     1       9.281   5.953   6.936  0.00  0.00    -0.015 C 
ATOM     17  C   UNL     1       8.974   7.044   7.965  0.00  0.00    +0.007 C 
ATOM     18  C   UNL     1       9.946   4.762   7.629  0.00  0.00    +0.007 C 
ENDBRANCH   7  12
ENDBRANCH   5   7
TORSDOF 4
ENDMDL
MODEL 7
REMARK VINA RESULT:      -6.4     13.613     15.476
REMARK  Name = 51137960
REMARK  8 active torsions:
REMARK  status: ('A' for Active; 'I' for Inactive)
REMARK    1  A    between atoms: N_4  and  C_21
REMARK    2  A    between atoms: C_5  and  C_7
REMARK    3  A    between atoms: C_6  and  C_16
REMARK    4  A    between atoms: C_7  and  C_12
REMARK    5  A    between atoms: C_12  and  C_17
REMARK    6  A    between atoms: C_12  and  C_18
REMARK    7  A    between atoms: C_21  and  C_22
REMARK    8  A    between atoms: C_21  and  C_23
REMARK                            x       y       z     vdW  Elec       q    Type
REMARK                         _______ _______ _______ _____ _____    ______ ____
ROOT
ATOM      2  N   UNL     1     -12.749   9.197  21.397  0.00  0.00    -0.299 NA
ATOM      3  N   UNL     1      -9.692  10.701  17.668  0.00  0.00    -0.360 N 
ATOM      5  C   UNL     1     -13.247  10.515  20.981  0.00  0.00    +0.085 C 
ATOM      6  C   UNL     1     -12.672   8.211  20.330  0.00  0.00    +0.145 C 
ATOM      8  C   UNL     1     -12.374  11.275  19.977  0.00  0.00    -0.021 A 
ATOM      9  C   UNL     1     -11.343  10.693  19.182  0.00  0.00    +0.008 A 
ATOM     10  C   UNL     1     -11.262   8.123  19.747  0.00  0.00    +0.065 C 
ATOM     11  C   UNL     1     -10.823   9.361  19.038  0.00  0.00    -0.020 A 
ATOM     13  C   UNL     1     -10.626  11.498  18.289  0.00  0.00    +0.047 A 
ATOM     14  C   UNL     1     -12.643  12.647  19.745  0.00  0.00    +0.006 A 
ATOM     15  C   UNL     1      -9.806   9.415  18.106  0.00  0.00    +0.087 A 
ATOM     19  C   UNL     1     -10.876  12.859  18.109  0.00  0.00    +0.026 A 
ATOM     20  C   UNL     1     -11.911  13.420  18.847  0.00  0.00    +0.002 A 
ATOM     24  H   UNL     1     -11.858   9.282  21.885  0.00  0.00    +0.123 HD
ATOM     25  H   UNL     1      -9.031  11.021  16.974  0.00  0.00    +0.165 HD
ENDROOT
BRANCH   6  16
ATOM      1  O   UNL     1     -12.161   6.065  21.239  0.00  0.00    -0.274 OA
ATOM      4  N   UNL     1     -14.378   6.776  21.201  0.00  0.00    -0.312 N 
ATOM     16  C   UNL     1     -13.018   6.905  20.975  0.00  0.00    +0.231 C 
ATOM     26  H   UNL     1     -14.988   7.564  21.002  0.00  0.00    +0.149 HD
BRANCH   4  21
ATOM     21  C   UNL     1     -14.974   5.600  21.793  0.00  0.00    +0.067 C 
ATOM     22  C   UNL     1     -15.129   5.779  23.298  0.00  0.00    +0.027 C 
ATOM     23  C   UNL     1     -16.311   5.293  21.132  0.00  0.00    +0.027 C 
ENDBRANCH   4  21
ENDBRANCH   6  16
BRANCH   5   7
ATOM      7  C   UNL     1     -13.443  11.290  22.297  0.00  0.00    +0.026 C 
BRANCH   7  12
ATOM     12  C   UNL     1     -12.728  10.642  23.486  0.00  0.00    -0.015 C 
ATOM     17  C   UNL     1     -13.758  10.282  24.559  0.00  0.00    +0.007 C 
ATOM     18  C   UNL     1     -11.649  11.544  24.087  0.00  0.00    +0.007 C 
ENDBRANCH   7  12
ENDBRANCH   5   7
TORSDOF 4
ENDMDL
MODEL 8
REMARK VINA RESULT:      -6.4     14.219     17.096
REMARK  Name = 51137960
REMARK  8 active torsions:
REMARK  status: ('A' for Active; 'I' for Inactive)
REMARK    1  A    between atoms: N_4  and  C_21
REMARK    2  A    between atoms: C_5  and  C_7
REMARK    3  A    between atoms: C_6  and  C_16
REMARK    4  A    between atoms: C_7  and  C_12
REMARK    5  A    between atoms: C_12  and  C_17
REMARK    6  A    between atoms: C_12  and  C_18
REMARK    7  A    between atoms: C_21  and  C_22
REMARK    8  A    between atoms: C_21  and  C_23
REMARK                            x       y       z     vdW  Elec       q    Type
REMARK                         _______ _______ _______ _____ _____    ______ ____
ROOT
ATOM      2  N   UNL     1      -4.358 -11.684  14.581  0.00  0.00    -0.299 NA
ATOM      3  N   UNL     1      -6.174  -8.847  10.818  0.00  0.00    -0.360 N 
ATOM      5  C   UNL     1      -3.182 -11.147  13.884  0.00  0.00    +0.085 C 
ATOM      6  C   UNL     1      -5.291 -10.677  15.063  0.00  0.00    +0.145 C 
ATOM      8  C   UNL     1      -3.462 -10.394  12.579  0.00  0.00    -0.021 A 
ATOM      9  C   UNL     1      -4.735  -9.891  12.180  0.00  0.00    +0.008 A 
ATOM     10  C   UNL     1      -6.451 -10.473  14.090  0.00  0.00    +0.065 C 
ATOM     11  C   UNL     1      -6.043  -9.892  12.777  0.00  0.00    -0.020 A 
ATOM     13  C   UNL     1      -4.855  -9.205  10.965  0.00  0.00    +0.047 A 
ATOM     14  C   UNL     1      -2.374 -10.093  11.721  0.00  0.00    +0.006 A 
ATOM     15  C   UNL     1      -6.895  -9.249  11.902  0.00  0.00    +0.087 A 
ATOM     19  C   UNL     1      -3.778  -8.960  10.112  0.00  0.00    +0.026 A 
ATOM     20  C   UNL     1      -2.527  -9.407  10.519  0.00  0.00    +0.002 A 
ATOM     24  H   UNL     1      -4.833 -12.383  14.009  0.00  0.00    +0.123 HD
ATOM     25  H   UNL     1      -6.549  -8.343  10.026  0.00  0.00    +0.165 HD
ENDROOT
BRANCH   6  16
ATOM      1  O   UNL     1      -6.996 -11.568  16.476  0.00  0.00    -0.274 OA
ATOM      4  N   UNL     1      -4.859 -11.255  17.346  0.00  0.00    -0.312 N 
ATOM     16  C   UNL     1      -5.824 -11.221  16.354  0.00  0.00    +0.231 C 
ATOM     26  H   UNL     1      -3.903 -11.003  17.113  0.00  0.00    +0.149 HD
BRANCH   4  21
ATOM     21  C   UNL     1      -5.123 -11.715  18.690  0.00  0.00    +0.067 C 
ATOM     22  C   UNL     1      -3.822 -12.086  19.393  0.00  0.00    +0.027 C 
ATOM     23  C   UNL     1      -5.892 -10.659  19.472  0.00  0.00    +0.027 C 
ENDBRANCH   4  21
ENDBRANCH   6  16
BRANCH   5   7
ATOM      7  C   UNL     1      -2.263 -12.365  13.676  0.00  0.00    +0.026 C 
BRANCH   7  12
ATOM     12  C   UNL     1      -3.034 -13.647  13.346  0.00  0.00    -0.015 C 
ATOM     17  C   UNL     1      -2.451 -14.808  14.153  0.00  0.00    +0.007 C 
ATOM     18  C   UNL     1      -3.002 -13.986  11.855  0.00  0.00    +0.007 C 
ENDBRANCH   7  12
ENDBRANCH   5   7
TORSDOF 4
ENDMDL
MODEL 9
REMARK VINA RESULT:      -6.4     21.019     24.242
REMARK  Name = 51137960
REMARK  8 active torsions:
REMARK  status: ('A' for Active; 'I' for Inactive)
REMARK    1  A    between atoms: N_4  and  C_21
REMARK    2  A    between atoms: C_5  and  C_7
REMARK    3  A    between atoms: C_6  and  C_16
REMARK    4  A    between atoms: C_7  and  C_12
REMARK    5  A    between atoms: C_12  and  C_17
REMARK    6  A    between atoms: C_12  and  C_18
REMARK    7  A    between atoms: C_21  and  C_22
REMARK    8  A    between atoms: C_21  and  C_23
REMARK                            x       y       z     vdW  Elec       q    Type
REMARK                         _______ _______ _______ _____ _____    ______ ____
ROOT
ATOM      2  N   UNL     1      10.307   6.730   3.324  0.00  0.00    -0.299 NA
ATOM      3  N   UNL     1       9.368   6.197   8.257  0.00  0.00    -0.360 N 
ATOM      5  C   UNL     1      10.570   8.045   3.923  0.00  0.00    +0.085 C 
ATOM      6  C   UNL     1      11.068   5.634   3.904  0.00  0.00    +0.145 C 
ATOM      8  C   UNL     1      10.180   8.199   5.397  0.00  0.00    -0.021 A 
ATOM      9  C   UNL     1       9.917   7.122   6.292  0.00  0.00    +0.008 A 
ATOM     10  C   UNL     1      10.254   4.880   4.955  0.00  0.00    +0.065 C 
ATOM     11  C   UNL     1       9.932   5.690   6.166  0.00  0.00    -0.020 A 
ATOM     13  C   UNL     1       9.583   7.398   7.624  0.00  0.00    +0.047 A 
ATOM     14  C   UNL     1      10.146   9.501   5.958  0.00  0.00    +0.006 A 
ATOM     15  C   UNL     1       9.580   5.164   7.393  0.00  0.00    +0.087 A 
ATOM     19  C   UNL     1       9.510   8.691   8.145  0.00  0.00    +0.026 A 
ATOM     20  C   UNL     1       9.811   9.742   7.288  0.00  0.00    +0.002 A 
ATOM     24  H   UNL     1       9.308   6.524   3.320  0.00  0.00    +0.123 HD
ATOM     25  H   UNL     1       9.107   6.096   9.228  0.00  0.00    +0.165 HD
ENDROOT
BRANCH   6  16
ATOM      1  O   UNL     1      10.485   4.061   2.207  0.00  0.00    -0.274 OA
ATOM      4  N   UNL     1      12.715   4.688   2.447  0.00  0.00    -0.312 N 
ATOM     16  C   UNL     1      11.367   4.714   2.761  0.00  0.00    +0.231 C 
ATOM     26  H   UNL     1      13.346   5.320   2.931  0.00  0.00    +0.149 HD
BRANCH   4  21
ATOM     21  C   UNL     1      13.267   3.863   1.397  0.00  0.00    +0.067 C 
ATOM     22  C   UNL     1      13.144   4.562   0.048  0.00  0.00    +0.027 C 
ATOM     23  C   UNL     1      14.715   3.509   1.706  0.00  0.00    +0.027 C 
ENDBRANCH   4  21
ENDBRANCH   6  16
BRANCH   5   7
ATOM      7  C   UNL     1       9.833   9.043   3.011  0.00  0.00    +0.026 C 
BRANCH   7  12
ATOM     12  C   UNL     1       8.436   8.564   2.605  0.00  0.00    -0.015 C 
ATOM     17  C   UNL     1       8.162   8.975   1.157  0.00  0.00    +0.007 C 
ATOM     18  C   UNL     1       7.336   9.114   3.516  0.00  0.00    +0.007 C 
ENDBRANCH   7  12
ENDBRANCH   5   7
TORSDOF 4
ENDMDL
MODEL 10
REMARK VINA RESULT:      -6.3     28.880     31.247
REMARK  Name = 51137960
REMARK  8 active torsions:
REMARK  status: ('A' for Active; 'I' for Inactive)
REMARK    1  A    between atoms: N_4  and  C_21
REMARK    2  A    between atoms: C_5  and  C_7
REMARK    3  A    between atoms: C_6  and  C_16
REMARK    4  A    between atoms: C_7  and  C_12
REMARK    5  A    between atoms: C_12  and  C_17
REMARK    6  A    between atoms: C_12  and  C_18
REMARK    7  A    between atoms: C_21  and  C_22
REMARK    8  A    between atoms: C_21  and  C_23
REMARK                            x       y       z     vdW  Elec       q    Type
REMARK                         _______ _______ _______ _____ _____    ______ ____
ROOT
ATOM      2  N   UNL     1       0.008 -13.264  -2.967  0.00  0.00    -0.299 NA
ATOM      3  N   UNL     1       2.070 -14.391   1.504  0.00  0.00    -0.360 N 
ATOM      5  C   UNL     1       1.298 -13.896  -3.272  0.00  0.00    +0.085 C 
ATOM      6  C   UNL     1      -0.885 -14.068  -2.146  0.00  0.00    +0.145 C 
ATOM      8  C   UNL     1       2.211 -14.170  -2.072  0.00  0.00    -0.021 A 
ATOM      9  C   UNL     1       1.792 -14.181  -0.709  0.00  0.00    +0.008 A 
ATOM     10  C   UNL     1      -0.793 -13.682  -0.671  0.00  0.00    +0.065 C 
ATOM     11  C   UNL     1       0.530 -13.981  -0.049  0.00  0.00    -0.020 A 
ATOM     13  C   UNL     1       2.725 -14.460   0.296  0.00  0.00    +0.047 A 
ATOM     14  C   UNL     1       3.564 -14.517  -2.312  0.00  0.00    +0.006 A 
ATOM     15  C   UNL     1       0.750 -14.111   1.308  0.00  0.00    +0.087 A 
ATOM     19  C   UNL     1       4.066 -14.754   0.041  0.00  0.00    +0.026 A 
ATOM     20  C   UNL     1       4.468 -14.791  -1.288  0.00  0.00    +0.002 A 
ATOM     24  H   UNL     1       0.143 -12.336  -2.565  0.00  0.00    +0.123 HD
ATOM     25  H   UNL     1       2.502 -14.545   2.404  0.00  0.00    +0.165 HD
ENDROOT
BRANCH   6  16
ATOM      1  O   UNL     1      -3.255 -13.890  -1.936  0.00  0.00    -0.274 OA
ATOM      4  N   UNL     1      -2.260 -13.358  -3.972  0.00  0.00    -0.312 N 
ATOM     16  C   UNL     1      -2.262 -13.763  -2.649  0.00  0.00    +0.231 C 
ATOM     26  H   UNL     1      -1.371 -13.225  -4.446  0.00  0.00    +0.149 HD
BRANCH   4  21
ATOM     21  C   UNL     1      -3.464 -13.026  -4.701  0.00  0.00    +0.067 C 
ATOM     22  C   UNL     1      -3.182 -11.938  -5.730  0.00  0.00    +0.027 C 
ATOM     23  C   UNL     1      -4.046 -14.270  -5.357  0.00  0.00    +0.027 C 
ENDBRANCH   4  21
ENDBRANCH   6  16
BRANCH   5   7
ATOM      7  C   UNL     1       1.952 -12.966  -4.310  0.00  0.00    +0.026 C 
BRANCH   7  12
ATOM     12  C   UNL     1       1.035 -11.821  -4.750  0.00  0.00    -0.015 C 
ATOM     17  C   UNL     1       0.716 -11.974  -6.239  0.00  0.00    +0.007 C 
ATOM     18  C   UNL     1       1.646 -10.443  -4.490  0.00  0.00    +0.007 C 
ENDBRANCH   7  12
ENDBRANCH   5   7
TORSDOF 4
ENDMDL
