REMARK  Name = 11867501
REMARK  9 active torsions:
REMARK  status: ('A' for Active; 'I' for Inactive)
REMARK    1  A    between atoms: O_6  and  C_17
REMARK    2  A    between atoms: O_6  and  C_21
REMARK    3  A    between atoms: N_8  and  C_16
REMARK    4  A    between atoms: N_12  and  C_28
REMARK    5  A    between atoms: N_13  and  C_27
REMARK    6  A    between atoms: N_13  and  C_32
REMARK    7  A    between atoms: N_13  and  C_33
REMARK    8  A    between atoms: C_20  and  C_22
REMARK    9  A    between atoms: C_31  and  C_36
REMARK                            x       y       z     vdW  Elec       q    Type
REMARK                         _______ _______ _______ _____ _____    ______ ____
ROOT
ATOM      4  O   UNL     1       0.156   0.316  -1.068  0.00  0.00    -0.368 OA
ATOM      5  O   UNL     1      -1.773  -1.823   0.055  0.00  0.00    -0.368 OA
ATOM     14  C   UNL     1      -1.644  -0.406   0.305  0.00  0.00    +0.177 C 
ATOM     15  C   UNL     1      -0.162  -0.088   0.273  0.00  0.00    +0.192 C 
ATOM     16  C   UNL     1      -2.224   0.370  -0.862  0.00  0.00    +0.168 C 
ATOM     17  C   UNL     1       0.470  -1.415   0.620  0.00  0.00    +0.235 C 
ATOM     18  C   UNL     1      -1.051   0.443  -1.833  0.00  0.00    +0.190 C 
ATOM     19  C   UNL     1      -0.462  -2.396  -0.052  0.00  0.00    +0.207 C 
ENDROOT
BRANCH  16   8
ATOM      8  N   UNL     1      -2.784   1.661  -0.454  0.00  0.00    -0.217 N 
ATOM      9  N   UNL     1      -2.010   2.750  -0.402  0.00  0.00    -0.043 NA
ATOM     10  N   UNL     1      -4.099   3.250   0.196  0.00  0.00    -0.108 NA
ATOM     11  N   UNL     1      -2.821   3.722  -0.003  0.00  0.00    -0.023 NA
ATOM     20  C   UNL     1      -4.051   1.969  -0.091  0.00  0.00    +0.182 A 
BRANCH  20  22
ATOM     22  C   UNL     1      -5.141   1.028  -0.037  0.00  0.00    +0.021 A 
ATOM     23  C   UNL     1      -5.399   0.324   1.141  0.00  0.00    +0.013 A 
ATOM     24  C   UNL     1      -5.941   0.819  -1.161  0.00  0.00    +0.013 A 
ATOM     25  C   UNL     1      -6.454  -0.587   1.193  0.00  0.00    +0.024 A 
ATOM     26  C   UNL     1      -6.995  -0.093  -1.109  0.00  0.00    +0.024 A 
ATOM     27  C   UNL     1      -7.252  -0.796   0.068  0.00  0.00    +0.029 A 
BRANCH  27  13
ATOM     13  N   UNL     1      -8.319  -1.717   0.122  0.00  0.00    -0.336 N 
ATOM     32  C   UNL     1      -9.006  -1.973   1.372  0.00  0.00    +0.129 C 
ATOM     33  C   UNL     1      -8.732  -2.431  -1.070  0.00  0.00    +0.129 C 
ENDBRANCH  27  13
ENDBRANCH  20  22
ENDBRANCH  16   8
BRANCH  17   6
ATOM      6  O   UNL     1       1.797  -1.544   0.163  0.00  0.00    -0.442 OA
BRANCH   6  21
ATOM      7  O   UNL     1       2.433   0.194   1.506  0.00  0.00    -0.226 OA
ATOM     12  N   UNL     1       3.966  -0.926   0.137  0.00  0.00    -0.251 N 
ATOM     21  C   UNL     1       2.725  -0.666   0.684  0.00  0.00    +0.405 C 
ATOM     37  H   UNL     1       4.009  -1.689  -0.535  0.00  0.00    +0.158 HD
BRANCH  12  28
ATOM     28  C   UNL     1       5.187  -0.264   0.395  0.00  0.00    +0.037 A 
ATOM     29  C   UNL     1       6.336  -0.677  -0.260  0.00  0.00    +0.035 A 
ATOM     30  C   UNL     1       5.212   0.786   1.299  0.00  0.00    +0.023 A 
ATOM     31  C   UNL     1       7.542  -0.022  -0.005  0.00  0.00    +0.057 A 
ATOM     34  C   UNL     1       6.417   1.441   1.554  0.00  0.00    +0.002 A 
ATOM     35  C   UNL     1       7.582   1.036   0.902  0.00  0.00    +0.012 A 
BRANCH  31  36
ATOM      1  F   UNL     1       9.129  -1.754  -0.457  0.00  0.00    -0.166 F 
ATOM      2  F   UNL     1       9.889   0.275  -0.356  0.00  0.00    -0.166 F 
ATOM      3  F   UNL     1       8.692  -0.351  -2.060  0.00  0.00    -0.166 F 
ATOM     36  C   UNL     1       8.787  -0.454  -0.702  0.00  0.00    +0.417 C 
ENDBRANCH  31  36
ENDBRANCH  12  28
ENDBRANCH   6  21
ENDBRANCH  17   6
TORSDOF 7
