MODEL 1
REMARK VINA RESULT:      -6.8      0.000      0.000
REMARK  Name = 45361032
REMARK  8 active torsions:
REMARK  status: ('A' for Active; 'I' for Inactive)
REMARK    1  A    between atoms: N_5  and  C_20
REMARK    2  A    between atoms: N_6  and  C_19
REMARK    3  A    between atoms: N_9  and  C_25
REMARK    4  A    between atoms: C_15  and  C_18
REMARK    5  A    between atoms: C_18  and  C_21
REMARK    6  A    between atoms: C_19  and  C_22
REMARK    7  A    between atoms: C_21  and  C_23
REMARK    8  A    between atoms: C_25  and  C_26
REMARK                            x       y       z     vdW  Elec       q    Type
REMARK                         _______ _______ _______ _____ _____    ______ ____
ROOT
ATOM      3  O   UNL     1      17.817   6.163  19.154  0.00  0.00    -0.274 OA
ATOM      5  N   UNL     1      15.350   9.036  19.960  0.00  0.00    -0.296 NA
ATOM      6  N   UNL     1      18.533   7.745  21.222  0.00  0.00    -0.284 NA
ATOM      7  N   UNL     1      15.584   6.177  19.653  0.00  0.00    -0.312 N 
ATOM     11  C   UNL     1      16.374   8.834  21.009  0.00  0.00    +0.084 C 
ATOM     12  C   UNL     1      17.093   7.455  21.085  0.00  0.00    +0.161 C 
ATOM     13  C   UNL     1      17.562   9.810  20.919  0.00  0.00    +0.036 C 
ATOM     14  C   UNL     1      18.650   9.115  21.710  0.00  0.00    +0.087 C 
ATOM     15  C   UNL     1      14.156   8.154  20.085  0.00  0.00    +0.074 C 
ATOM     16  C   UNL     1      16.896   6.554  19.869  0.00  0.00    +0.232 C 
ATOM     17  C   UNL     1      14.468   6.684  20.427  0.00  0.00    +0.123 C 
ATOM     20  C   UNL     1      14.937  10.449  19.897  0.00  0.00    +0.105 C 
ATOM     30  H   UNL     1      15.386   5.558  18.873  0.00  0.00    +0.149 HD
ENDROOT
BRANCH  15  18
ATOM     18  C   UNL     1      13.339   8.162  18.776  0.00  0.00    +0.029 C 
BRANCH  18  21
ATOM     21  C   UNL     1      12.026   8.898  18.968  0.00  0.00    +0.097 C 
BRANCH  21  23
ATOM      4  O   UNL     1      10.929   7.442  20.561  0.00  0.00    -0.276 OA
ATOM      9  N   UNL     1      11.367   9.642  21.157  0.00  0.00    -0.311 N 
ATOM     23  C   UNL     1      11.380   8.554  20.298  0.00  0.00    +0.213 C 
ATOM     31  H   UNL     1      11.780  10.522  20.858  0.00  0.00    +0.149 HD
BRANCH   9  25
ATOM     25  C   UNL     1      10.804   9.570  22.485  0.00  0.00    +0.146 C 
BRANCH  25  26
ATOM      2  S   UNL     1      11.203  12.322  22.399  0.00  0.00    -0.100 S 
ATOM     26  C   UNL     1      11.012  10.850  23.252  0.00  0.00    +0.007 A 
ATOM     27  C   UNL     1      11.078  11.030  24.615  0.00  0.00    +0.013 A 
ATOM     28  C   UNL     1      11.287  12.396  24.965  0.00  0.00    +0.008 A 
ATOM     29  C   UNL     1      11.373  13.206  23.855  0.00  0.00    +0.045 A 
ENDBRANCH  25  26
ENDBRANCH   9  25
ENDBRANCH  21  23
ENDBRANCH  18  21
ENDBRANCH  15  18
BRANCH   6  19
ATOM     19  C   UNL     1      19.236   6.797  22.077  0.00  0.00    +0.143 C 
BRANCH  19  22
ATOM      1  S   UNL     1      22.949   6.203  20.787  0.00  0.00    +0.028 S 
ATOM      8  N   UNL     1      20.637   5.238  20.743  0.00  0.00    -0.145 NA
ATOM     10  N   UNL     1      21.866   5.019  20.302  0.00  0.00    -0.110 NA
ATOM     22  C   UNL     1      20.566   6.398  21.497  0.00  0.00    +0.086 A 
ATOM     24  C   UNL     1      21.754   7.087  21.642  0.00  0.00    +0.093 A 
ENDBRANCH  19  22
ENDBRANCH   6  19
TORSDOF 7
ENDMDL
MODEL 2
REMARK VINA RESULT:      -6.6      2.236      9.386
REMARK  Name = 45361032
REMARK  8 active torsions:
REMARK  status: ('A' for Active; 'I' for Inactive)
REMARK    1  A    between atoms: N_5  and  C_20
REMARK    2  A    between atoms: N_6  and  C_19
REMARK    3  A    between atoms: N_9  and  C_25
REMARK    4  A    between atoms: C_15  and  C_18
REMARK    5  A    between atoms: C_18  and  C_21
REMARK    6  A    between atoms: C_19  and  C_22
REMARK    7  A    between atoms: C_21  and  C_23
REMARK    8  A    between atoms: C_25  and  C_26
REMARK                            x       y       z     vdW  Elec       q    Type
REMARK                         _______ _______ _______ _____ _____    ______ ____
ROOT
ATOM      3  O   UNL     1      14.409  10.229  22.251  0.00  0.00    -0.274 OA
ATOM      5  N   UNL     1      14.645   7.510  19.506  0.00  0.00    -0.296 NA
ATOM      6  N   UNL     1      12.040   9.253  21.395  0.00  0.00    -0.284 NA
ATOM      7  N   UNL     1      15.497   8.219  22.169  0.00  0.00    -0.312 N 
ATOM     11  C   UNL     1      13.292   7.631  20.093  0.00  0.00    +0.084 C 
ATOM     12  C   UNL     1      13.151   8.287  21.498  0.00  0.00    +0.161 C 
ATOM     13  C   UNL     1      12.318   8.472  19.247  0.00  0.00    +0.036 C 
ATOM     14  C   UNL     1      11.242   8.866  20.238  0.00  0.00    +0.087 C 
ATOM     15  C   UNL     1      15.573   6.630  20.270  0.00  0.00    +0.074 C 
ATOM     16  C   UNL     1      14.390   9.027  21.994  0.00  0.00    +0.232 C 
ATOM     17  C   UNL     1      15.532   6.817  21.800  0.00  0.00    +0.123 C 
ATOM     20  C   UNL     1      14.570   7.073  18.101  0.00  0.00    +0.105 C 
ATOM     30  H   UNL     1      16.350   8.645  22.520  0.00  0.00    +0.149 HD
ENDROOT
BRANCH  15  18
ATOM     18  C   UNL     1      17.030   6.854  19.815  0.00  0.00    +0.029 C 
BRANCH  18  21
ATOM     21  C   UNL     1      17.999   6.531  20.936  0.00  0.00    +0.097 C 
BRANCH  21  23
ATOM      4  O   UNL     1      19.199   4.775  19.780  0.00  0.00    -0.276 OA
ATOM      9  N   UNL     1      20.396   6.506  20.759  0.00  0.00    -0.311 N 
ATOM     23  C   UNL     1      19.238   5.824  20.419  0.00  0.00    +0.213 C 
ATOM     31  H   UNL     1      20.330   7.378  21.278  0.00  0.00    +0.149 HD
BRANCH   9  25
ATOM     25  C   UNL     1      21.709   6.035  20.384  0.00  0.00    +0.146 C 
BRANCH  25  26
ATOM      2  S   UNL     1      23.482   3.965  20.940  0.00  0.00    -0.100 S 
ATOM     26  C   UNL     1      22.277   5.087  21.408  0.00  0.00    +0.007 A 
ATOM     27  C   UNL     1      21.956   4.975  22.742  0.00  0.00    +0.013 A 
ATOM     28  C   UNL     1      22.711   3.955  23.390  0.00  0.00    +0.008 A 
ATOM     29  C   UNL     1      23.579   3.327  22.525  0.00  0.00    +0.045 A 
ENDBRANCH  25  26
ENDBRANCH   9  25
ENDBRANCH  21  23
ENDBRANCH  18  21
ENDBRANCH  15  18
BRANCH   6  19
ATOM     19  C   UNL     1      11.239   9.343  22.609  0.00  0.00    +0.143 C 
BRANCH  19  22
ATOM      1  S   UNL     1      10.784  13.251  23.187  0.00  0.00    +0.028 S 
ATOM      8  N   UNL     1      10.593  11.024  24.321  0.00  0.00    -0.145 NA
ATOM     10  N   UNL     1      10.434  12.321  24.537  0.00  0.00    -0.110 NA
ATOM     22  C   UNL     1      11.009  10.772  23.023  0.00  0.00    +0.086 A 
ATOM     24  C   UNL     1      11.176  11.886  22.225  0.00  0.00    +0.093 A 
ENDBRANCH  19  22
ENDBRANCH   6  19
TORSDOF 7
ENDMDL
MODEL 3
REMARK VINA RESULT:      -6.5      3.200      9.471
REMARK  Name = 45361032
REMARK  8 active torsions:
REMARK  status: ('A' for Active; 'I' for Inactive)
REMARK    1  A    between atoms: N_5  and  C_20
REMARK    2  A    between atoms: N_6  and  C_19
REMARK    3  A    between atoms: N_9  and  C_25
REMARK    4  A    between atoms: C_15  and  C_18
REMARK    5  A    between atoms: C_18  and  C_21
REMARK    6  A    between atoms: C_19  and  C_22
REMARK    7  A    between atoms: C_21  and  C_23
REMARK    8  A    between atoms: C_25  and  C_26
REMARK                            x       y       z     vdW  Elec       q    Type
REMARK                         _______ _______ _______ _____ _____    ______ ____
ROOT
ATOM      3  O   UNL     1      13.324   6.622  20.843  0.00  0.00    -0.274 OA
ATOM      5  N   UNL     1      16.829   8.258  20.985  0.00  0.00    -0.296 NA
ATOM      6  N   UNL     1      13.425   9.194  20.024  0.00  0.00    -0.284 NA
ATOM      7  N   UNL     1      15.332   6.036  19.916  0.00  0.00    -0.312 N 
ATOM     11  C   UNL     1      15.839   9.063  20.236  0.00  0.00    +0.084 C 
ATOM     12  C   UNL     1      14.578   8.345  19.669  0.00  0.00    +0.161 C 
ATOM     13  C   UNL     1      15.216  10.208  21.055  0.00  0.00    +0.036 C 
ATOM     14  C   UNL     1      13.943  10.529  20.300  0.00  0.00    +0.087 C 
ATOM     15  C   UNL     1      17.502   7.201  20.179  0.00  0.00    +0.074 C 
ATOM     16  C   UNL     1      14.332   6.942  20.216  0.00  0.00    +0.232 C 
ATOM     17  C   UNL     1      16.568   6.400  19.251  0.00  0.00    +0.123 C 
ATOM     20  C   UNL     1      17.832   9.126  21.626  0.00  0.00    +0.105 C 
ATOM     30  H   UNL     1      15.219   5.077  20.231  0.00  0.00    +0.149 HD
ENDROOT
BRANCH  15  18
ATOM     18  C   UNL     1      18.217   6.191  21.102  0.00  0.00    +0.029 C 
BRANCH  18  21
ATOM     21  C   UNL     1      19.406   5.568  20.396  0.00  0.00    +0.097 C 
BRANCH  21  23
ATOM      4  O   UNL     1      20.710   6.214  22.330  0.00  0.00    -0.276 OA
ATOM      9  N   UNL     1      21.737   5.023  20.622  0.00  0.00    -0.311 N 
ATOM     23  C   UNL     1      20.666   5.652  21.238  0.00  0.00    +0.213 C 
ATOM     31  H   UNL     1      21.602   4.569  19.723  0.00  0.00    +0.149 HD
BRANCH   9  25
ATOM     25  C   UNL     1      23.049   4.968  21.223  0.00  0.00    +0.146 C 
BRANCH  25  26
ATOM      2  S   UNL     1      23.573   2.995  23.112  0.00  0.00    -0.100 S 
ATOM     26  C   UNL     1      23.481   3.551  21.496  0.00  0.00    +0.007 A 
ATOM     27  C   UNL     1      23.836   2.575  20.592  0.00  0.00    +0.013 A 
ATOM     28  C   UNL     1      24.188   1.353  21.235  0.00  0.00    +0.008 A 
ATOM     29  C   UNL     1      24.088   1.443  22.605  0.00  0.00    +0.045 A 
ENDBRANCH  25  26
ENDBRANCH   9  25
ENDBRANCH  21  23
ENDBRANCH  18  21
ENDBRANCH  15  18
BRANCH   6  19
ATOM     19  C   UNL     1      12.384   9.210  19.004  0.00  0.00    +0.143 C 
BRANCH  19  22
ATOM      1  S   UNL     1      14.038  10.189  15.523  0.00  0.00    +0.028 S 
ATOM      8  N   UNL     1      12.849   8.337  16.725  0.00  0.00    -0.145 NA
ATOM     10  N   UNL     1      13.395   8.641  15.557  0.00  0.00    -0.110 NA
ATOM     22  C   UNL     1      12.955   9.388  17.623  0.00  0.00    +0.086 A 
ATOM     24  C   UNL     1      13.587  10.518  17.146  0.00  0.00    +0.093 A 
ENDBRANCH  19  22
ENDBRANCH   6  19
TORSDOF 7
ENDMDL
MODEL 4
REMARK VINA RESULT:      -6.4      2.939      4.641
REMARK  Name = 45361032
REMARK  8 active torsions:
REMARK  status: ('A' for Active; 'I' for Inactive)
REMARK    1  A    between atoms: N_5  and  C_20
REMARK    2  A    between atoms: N_6  and  C_19
REMARK    3  A    between atoms: N_9  and  C_25
REMARK    4  A    between atoms: C_15  and  C_18
REMARK    5  A    between atoms: C_18  and  C_21
REMARK    6  A    between atoms: C_19  and  C_22
REMARK    7  A    between atoms: C_21  and  C_23
REMARK    8  A    between atoms: C_25  and  C_26
REMARK                            x       y       z     vdW  Elec       q    Type
REMARK                         _______ _______ _______ _____ _____    ______ ____
ROOT
ATOM      3  O   UNL     1      20.112   6.310  24.033  0.00  0.00    -0.274 OA
ATOM      5  N   UNL     1      18.120   6.928  20.771  0.00  0.00    -0.296 NA
ATOM      6  N   UNL     1      21.262   5.349  21.786  0.00  0.00    -0.284 NA
ATOM      7  N   UNL     1      19.321   8.220  23.054  0.00  0.00    -0.312 N 
ATOM     11  C   UNL     1      19.501   6.452  20.532  0.00  0.00    +0.084 C 
ATOM     12  C   UNL     1      20.555   6.638  21.663  0.00  0.00    +0.161 C 
ATOM     13  C   UNL     1      19.601   4.943  20.245  0.00  0.00    +0.036 C 
ATOM     14  C   UNL     1      21.052   4.624  20.538  0.00  0.00    +0.087 C 
ATOM     15  C   UNL     1      18.000   8.400  20.966  0.00  0.00    +0.074 C 
ATOM     16  C   UNL     1      19.980   7.006  23.028  0.00  0.00    +0.232 C 
ATOM     17  C   UNL     1      19.079   9.025  21.872  0.00  0.00    +0.123 C 
ATOM     20  C   UNL     1      17.218   6.480  19.696  0.00  0.00    +0.105 C 
ATOM     30  H   UNL     1      18.935   8.537  23.938  0.00  0.00    +0.149 HD
ENDROOT
BRANCH  15  18
ATOM     18  C   UNL     1      16.625   8.754  21.571  0.00  0.00    +0.029 C 
BRANCH  18  21
ATOM     21  C   UNL     1      16.189  10.141  21.138  0.00  0.00    +0.097 C 
BRANCH  21  23
ATOM      4  O   UNL     1      14.013  10.864  21.913  0.00  0.00    -0.276 OA
ATOM      9  N   UNL     1      14.159   9.607  19.967  0.00  0.00    -0.311 N 
ATOM     23  C   UNL     1      14.677  10.259  21.074  0.00  0.00    +0.213 C 
ATOM     31  H   UNL     1      14.789   9.145  19.316  0.00  0.00    +0.149 HD
BRANCH   9  25
ATOM     25  C   UNL     1      12.743   9.572  19.684  0.00  0.00    +0.146 C 
BRANCH  25  26
ATOM      2  S   UNL     1      12.672   6.889  20.416  0.00  0.00    -0.100 S 
ATOM     26  C   UNL     1      12.044   8.482  20.454  0.00  0.00    +0.007 A 
ATOM     27  C   UNL     1      10.910   8.572  21.229  0.00  0.00    +0.013 A 
ATOM     28  C   UNL     1      10.550   7.318  21.801  0.00  0.00    +0.008 A 
ATOM     29  C   UNL     1      11.425   6.317  21.440  0.00  0.00    +0.045 A 
ENDBRANCH  25  26
ENDBRANCH   9  25
ENDBRANCH  21  23
ENDBRANCH  18  21
ENDBRANCH  15  18
BRANCH   6  19
ATOM     19  C   UNL     1      22.676   5.493  22.105  0.00  0.00    +0.143 C 
BRANCH  19  22
ATOM      1  S   UNL     1      24.482   2.431  23.885  0.00  0.00    +0.028 S 
ATOM      8  N   UNL     1      22.416   3.847  23.948  0.00  0.00    -0.145 NA
ATOM     10  N   UNL     1      22.999   2.826  24.557  0.00  0.00    -0.110 NA
ATOM     22  C   UNL     1      23.193   4.328  22.906  0.00  0.00    +0.086 A 
ATOM     24  C   UNL     1      24.390   3.672  22.704  0.00  0.00    +0.093 A 
ENDBRANCH  19  22
ENDBRANCH   6  19
TORSDOF 7
ENDMDL
MODEL 5
REMARK VINA RESULT:      -6.4     27.541     29.873
REMARK  Name = 45361032
REMARK  8 active torsions:
REMARK  status: ('A' for Active; 'I' for Inactive)
REMARK    1  A    between atoms: N_5  and  C_20
REMARK    2  A    between atoms: N_6  and  C_19
REMARK    3  A    between atoms: N_9  and  C_25
REMARK    4  A    between atoms: C_15  and  C_18
REMARK    5  A    between atoms: C_18  and  C_21
REMARK    6  A    between atoms: C_19  and  C_22
REMARK    7  A    between atoms: C_21  and  C_23
REMARK    8  A    between atoms: C_25  and  C_26
REMARK                            x       y       z     vdW  Elec       q    Type
REMARK                         _______ _______ _______ _____ _____    ______ ____
ROOT
ATOM      3  O   UNL     1      -6.036  -9.457  13.291  0.00  0.00    -0.274 OA
ATOM      5  N   UNL     1      -3.240 -10.808  15.604  0.00  0.00    -0.296 NA
ATOM      6  N   UNL     1      -3.933 -10.578  12.018  0.00  0.00    -0.284 NA
ATOM      7  N   UNL     1      -6.059 -10.967  15.010  0.00  0.00    -0.312 N 
ATOM     11  C   UNL     1      -3.095 -11.242  14.197  0.00  0.00    +0.084 C 
ATOM     12  C   UNL     1      -4.353 -11.216  13.280  0.00  0.00    +0.161 C 
ATOM     13  C   UNL     1      -2.089 -10.406  13.385  0.00  0.00    +0.036 C 
ATOM     14  C   UNL     1      -2.480 -10.681  11.948  0.00  0.00    +0.087 C 
ATOM     15  C   UNL     1      -4.146 -11.661  16.423  0.00  0.00    +0.074 C 
ATOM     16  C   UNL     1      -5.545 -10.443  13.839  0.00  0.00    +0.232 C 
ATOM     17  C   UNL     1      -5.455 -12.076  15.723  0.00  0.00    +0.123 C 
ATOM     20  C   UNL     1      -1.923 -10.691  16.254  0.00  0.00    +0.105 C 
ATOM     30  H   UNL     1      -6.868 -10.513  15.423  0.00  0.00    +0.149 HD
ENDROOT
BRANCH  15  18
ATOM     18  C   UNL     1      -4.529 -10.940  17.733  0.00  0.00    +0.029 C 
BRANCH  18  21
ATOM     21  C   UNL     1      -4.601 -11.924  18.885  0.00  0.00    +0.097 C 
BRANCH  21  23
ATOM      4  O   UNL     1      -6.071 -11.002  20.573  0.00  0.00    -0.276 OA
ATOM      9  N   UNL     1      -6.864 -12.679  19.178  0.00  0.00    -0.311 N 
ATOM     23  C   UNL     1      -5.905 -11.796  19.650  0.00  0.00    +0.213 C 
ATOM     31  H   UNL     1      -6.642 -13.289  18.396  0.00  0.00    +0.149 HD
BRANCH   9  25
ATOM     25  C   UNL     1      -8.191 -12.753  19.743  0.00  0.00    +0.146 C 
BRANCH  25  26
ATOM      2  S   UNL     1      -9.073 -11.295  17.545  0.00  0.00    -0.100 S 
ATOM     26  C   UNL     1      -9.086 -11.662  19.217  0.00  0.00    +0.007 A 
ATOM     27  C   UNL     1      -9.966 -10.865  19.914  0.00  0.00    +0.013 A 
ATOM     28  C   UNL     1     -10.640  -9.940  19.064  0.00  0.00    +0.008 A 
ATOM     29  C   UNL     1     -10.247 -10.067  17.750  0.00  0.00    +0.045 A 
ENDBRANCH  25  26
ENDBRANCH   9  25
ENDBRANCH  21  23
ENDBRANCH  18  21
ENDBRANCH  15  18
BRANCH   6  19
ATOM     19  C   UNL     1      -4.581 -11.143  10.841  0.00  0.00    +0.143 C 
BRANCH  19  22
ATOM      1  S   UNL     1      -7.038  -8.840   8.727  0.00  0.00    +0.028 S 
ATOM      8  N   UNL     1      -4.950  -8.796  10.113  0.00  0.00    -0.145 NA
ATOM     10  N   UNL     1      -5.755  -8.010   9.415  0.00  0.00    -0.110 NA
ATOM     22  C   UNL     1      -5.383 -10.113  10.094  0.00  0.00    +0.086 A 
ATOM     24  C   UNL     1      -6.536 -10.349   9.372  0.00  0.00    +0.093 A 
ENDBRANCH  19  22
ENDBRANCH   6  19
TORSDOF 7
ENDMDL
MODEL 6
REMARK VINA RESULT:      -6.2     27.296     30.783
REMARK  Name = 45361032
REMARK  8 active torsions:
REMARK  status: ('A' for Active; 'I' for Inactive)
REMARK    1  A    between atoms: N_5  and  C_20
REMARK    2  A    between atoms: N_6  and  C_19
REMARK    3  A    between atoms: N_9  and  C_25
REMARK    4  A    between atoms: C_15  and  C_18
REMARK    5  A    between atoms: C_18  and  C_21
REMARK    6  A    between atoms: C_19  and  C_22
REMARK    7  A    between atoms: C_21  and  C_23
REMARK    8  A    between atoms: C_25  and  C_26
REMARK                            x       y       z     vdW  Elec       q    Type
REMARK                         _______ _______ _______ _____ _____    ______ ____
ROOT
ATOM      3  O   UNL     1      -8.614 -11.656  15.741  0.00  0.00    -0.274 OA
ATOM      5  N   UNL     1      -5.408 -11.422  17.899  0.00  0.00    -0.296 NA
ATOM      6  N   UNL     1      -9.010 -10.923  18.311  0.00  0.00    -0.284 NA
ATOM      7  N   UNL     1      -6.675 -10.467  15.490  0.00  0.00    -0.312 N 
ATOM     11  C   UNL     1      -6.597 -10.830  18.553  0.00  0.00    +0.084 C 
ATOM     12  C   UNL     1      -7.795 -10.398  17.658  0.00  0.00    +0.161 C 
ATOM     13  C   UNL     1      -7.277 -11.761  19.574  0.00  0.00    +0.036 C 
ATOM     14  C   UNL     1      -8.669 -11.180  19.705  0.00  0.00    +0.087 C 
ATOM     15  C   UNL     1      -4.691 -10.502  16.973  0.00  0.00    +0.074 C 
ATOM     16  C   UNL     1      -7.753 -10.921  16.224  0.00  0.00    +0.232 C 
ATOM     17  C   UNL     1      -5.603  -9.668  16.052  0.00  0.00    +0.123 C 
ATOM     20  C   UNL     1      -4.475 -11.965  18.902  0.00  0.00    +0.105 C 
ATOM     30  H   UNL     1      -6.599 -10.759  14.520  0.00  0.00    +0.149 HD
ENDROOT
BRANCH  15  18
ATOM     18  C   UNL     1      -3.719 -11.292  16.071  0.00  0.00    +0.029 C 
BRANCH  18  21
ATOM     21  C   UNL     1      -2.319 -10.715  16.156  0.00  0.00    +0.097 C 
BRANCH  21  23
ATOM      4  O   UNL     1      -0.977  -9.441  14.595  0.00  0.00    -0.276 OA
ATOM      9  N   UNL     1      -2.298 -11.175  13.797  0.00  0.00    -0.311 N 
ATOM     23  C   UNL     1      -1.777 -10.354  14.785  0.00  0.00    +0.213 C 
ATOM     31  H   UNL     1      -2.945 -11.917  14.050  0.00  0.00    +0.149 HD
BRANCH   9  25
ATOM     25  C   UNL     1      -1.940 -11.030  12.405  0.00  0.00    +0.146 C 
BRANCH  25  26
ATOM      2  S   UNL     1      -4.593 -10.228  12.177  0.00  0.00    -0.100 S 
ATOM     26  C   UNL     1      -2.968 -10.238  11.641  0.00  0.00    +0.007 A 
ATOM     27  C   UNL     1      -2.792  -9.476  10.507  0.00  0.00    +0.013 A 
ATOM     28  C   UNL     1      -4.009  -8.874  10.073  0.00  0.00    +0.008 A 
ATOM     29  C   UNL     1      -5.067  -9.201  10.892  0.00  0.00    +0.045 A 
ENDBRANCH  25  26
ENDBRANCH   9  25
ENDBRANCH  21  23
ENDBRANCH  18  21
ENDBRANCH  15  18
BRANCH   6  19
ATOM     19  C   UNL     1     -10.163 -10.041  18.182  0.00  0.00    +0.143 C 
BRANCH  19  22
ATOM      1  S   UNL     1     -13.384 -11.123  20.246  0.00  0.00    +0.028 S 
ATOM      8  N   UNL     1     -11.884 -11.823  18.364  0.00  0.00    -0.145 NA
ATOM     10  N   UNL     1     -12.959 -12.204  19.037  0.00  0.00    -0.110 NA
ATOM     22  C   UNL     1     -11.387 -10.619  18.838  0.00  0.00    +0.086 A 
ATOM     24  C   UNL     1     -12.085 -10.061  19.890  0.00  0.00    +0.093 A 
ENDBRANCH  19  22
ENDBRANCH   6  19
TORSDOF 7
ENDMDL
MODEL 7
REMARK VINA RESULT:      -6.2     27.406     31.263
REMARK  Name = 45361032
REMARK  8 active torsions:
REMARK  status: ('A' for Active; 'I' for Inactive)
REMARK    1  A    between atoms: N_5  and  C_20
REMARK    2  A    between atoms: N_6  and  C_19
REMARK    3  A    between atoms: N_9  and  C_25
REMARK    4  A    between atoms: C_15  and  C_18
REMARK    5  A    between atoms: C_18  and  C_21
REMARK    6  A    between atoms: C_19  and  C_22
REMARK    7  A    between atoms: C_21  and  C_23
REMARK    8  A    between atoms: C_25  and  C_26
REMARK                            x       y       z     vdW  Elec       q    Type
REMARK                         _______ _______ _______ _____ _____    ______ ____
ROOT
ATOM      3  O   UNL     1     -12.691   5.036  22.270  0.00  0.00    -0.274 OA
ATOM      5  N   UNL     1     -16.514   4.570  21.878  0.00  0.00    -0.296 NA
ATOM      6  N   UNL     1     -14.002   7.144  21.206  0.00  0.00    -0.284 NA
ATOM      7  N   UNL     1     -14.337   4.511  23.770  0.00  0.00    -0.312 N 
ATOM     11  C   UNL     1     -16.072   5.967  21.675  0.00  0.00    +0.084 C 
ATOM     12  C   UNL     1     -14.703   6.405  22.273  0.00  0.00    +0.161 C 
ATOM     13  C   UNL     1     -15.918   6.365  20.195  0.00  0.00    +0.036 C 
ATOM     14  C   UNL     1     -15.014   7.579  20.250  0.00  0.00    +0.087 C 
ATOM     15  C   UNL     1     -16.749   4.197  23.301  0.00  0.00    +0.074 C 
ATOM     16  C   UNL     1     -13.805   5.262  22.739  0.00  0.00    +0.232 C 
ATOM     17  C   UNL     1     -15.678   4.700  24.289  0.00  0.00    +0.123 C 
ATOM     20  C   UNL     1     -17.710   4.276  21.070  0.00  0.00    +0.105 C 
ATOM     30  H   UNL     1     -13.780   3.748  24.143  0.00  0.00    +0.149 HD
ENDROOT
BRANCH  15  18
ATOM     18  C   UNL     1     -16.835   2.664  23.451  0.00  0.00    +0.029 C 
BRANCH  18  21
ATOM     21  C   UNL     1     -17.776   2.287  24.580  0.00  0.00    +0.097 C 
BRANCH  21  23
ATOM      4  O   UNL     1     -16.815   0.135  25.136  0.00  0.00    -0.276 OA
ATOM      9  N   UNL     1     -17.029   1.740  26.799  0.00  0.00    -0.311 N 
ATOM     23  C   UNL     1     -17.155   1.256  25.506  0.00  0.00    +0.213 C 
ATOM     31  H   UNL     1     -17.324   2.690  27.010  0.00  0.00    +0.149 HD
BRANCH   9  25
ATOM     25  C   UNL     1     -16.468   0.948  27.868  0.00  0.00    +0.146 C 
BRANCH  25  26
ATOM      2  S   UNL     1     -14.602   1.016  29.931  0.00  0.00    -0.100 S 
ATOM     26  C   UNL     1     -15.649   1.785  28.816  0.00  0.00    +0.007 A 
ATOM     27  C   UNL     1     -15.611   3.157  28.932  0.00  0.00    +0.013 A 
ATOM     28  C   UNL     1     -14.709   3.583  29.950  0.00  0.00    +0.008 A 
ATOM     29  C   UNL     1     -14.094   2.520  30.572  0.00  0.00    +0.045 A 
ENDBRANCH  25  26
ENDBRANCH   9  25
ENDBRANCH  21  23
ENDBRANCH  18  21
ENDBRANCH  15  18
BRANCH   6  19
ATOM     19  C   UNL     1     -13.203   8.257  21.702  0.00  0.00    +0.143 C 
BRANCH  19  22
ATOM      1  S   UNL     1     -10.536   9.103  18.877  0.00  0.00    +0.028 S 
ATOM      8  N   UNL     1     -12.244  10.138  20.391  0.00  0.00    -0.145 NA
ATOM     10  N   UNL     1     -11.363  10.443  19.452  0.00  0.00    -0.110 NA
ATOM     22  C   UNL     1     -12.255   8.777  20.656  0.00  0.00    +0.086 A 
ATOM     24  C   UNL     1     -11.370   8.020  19.913  0.00  0.00    +0.093 A 
ENDBRANCH  19  22
ENDBRANCH   6  19
TORSDOF 7
ENDMDL
MODEL 8
REMARK VINA RESULT:      -6.2     27.911     30.750
REMARK  Name = 45361032
REMARK  8 active torsions:
REMARK  status: ('A' for Active; 'I' for Inactive)
REMARK    1  A    between atoms: N_5  and  C_20
REMARK    2  A    between atoms: N_6  and  C_19
REMARK    3  A    between atoms: N_9  and  C_25
REMARK    4  A    between atoms: C_15  and  C_18
REMARK    5  A    between atoms: C_18  and  C_21
REMARK    6  A    between atoms: C_19  and  C_22
REMARK    7  A    between atoms: C_21  and  C_23
REMARK    8  A    between atoms: C_25  and  C_26
REMARK                            x       y       z     vdW  Elec       q    Type
REMARK                         _______ _______ _______ _____ _____    ______ ____
ROOT
ATOM      3  O   UNL     1      -8.649  -9.678  14.923  0.00  0.00    -0.274 OA
ATOM      5  N   UNL     1      -6.525 -11.495  17.601  0.00  0.00    -0.296 NA
ATOM      6  N   UNL     1      -9.530  -9.413  17.463  0.00  0.00    -0.284 NA
ATOM      7  N   UNL     1      -6.430  -9.557  15.466  0.00  0.00    -0.312 N 
ATOM     11  C   UNL     1      -7.512 -10.556  18.177  0.00  0.00    +0.084 C 
ATOM     12  C   UNL     1      -8.067  -9.418  17.272  0.00  0.00    +0.161 C 
ATOM     13  C   UNL     1      -8.804 -11.233  18.670  0.00  0.00    +0.036 C 
ATOM     14  C   UNL     1      -9.800 -10.094  18.723  0.00  0.00    +0.087 C 
ATOM     15  C   UNL     1      -5.236 -10.866  17.198  0.00  0.00    +0.074 C 
ATOM     16  C   UNL     1      -7.775  -9.575  15.782  0.00  0.00    +0.232 C 
ATOM     17  C   UNL     1      -5.375  -9.519  16.460  0.00  0.00    +0.123 C 
ATOM     20  C   UNL     1      -6.277 -12.623  18.516  0.00  0.00    +0.105 C 
ATOM     30  H   UNL     1      -6.167  -9.634  14.488  0.00  0.00    +0.149 HD
ENDROOT
BRANCH  15  18
ATOM     18  C   UNL     1      -4.433 -11.815  16.284  0.00  0.00    +0.029 C 
BRANCH  18  21
ATOM     21  C   UNL     1      -3.022 -11.295  16.078  0.00  0.00    +0.097 C 
BRANCH  21  23
ATOM      4  O   UNL     1      -2.024 -12.747  14.417  0.00  0.00    -0.276 OA
ATOM      9  N   UNL     1      -2.604 -10.580  13.821  0.00  0.00    -0.311 N 
ATOM     23  C   UNL     1      -2.492 -11.646  14.700  0.00  0.00    +0.213 C 
ATOM     31  H   UNL     1      -3.021  -9.709  14.140  0.00  0.00    +0.149 HD
BRANCH   9  25
ATOM     25  C   UNL     1      -2.166 -10.662  12.448  0.00  0.00    +0.146 C 
BRANCH  25  26
ATOM      2  S   UNL     1      -4.818 -10.040  11.884  0.00  0.00    -0.100 S 
ATOM     26  C   UNL     1      -3.148 -10.015  11.507  0.00  0.00    +0.007 A 
ATOM     27  C   UNL     1      -2.896  -9.369  10.317  0.00  0.00    +0.013 A 
ATOM     28  C   UNL     1      -4.090  -8.886   9.707  0.00  0.00    +0.008 A 
ATOM     29  C   UNL     1      -5.208  -9.183  10.454  0.00  0.00    +0.045 A 
ENDBRANCH  25  26
ENDBRANCH   9  25
ENDBRANCH  21  23
ENDBRANCH  18  21
ENDBRANCH  15  18
BRANCH   6  19
ATOM     19  C   UNL     1     -10.114  -8.078  17.424  0.00  0.00    +0.143 C 
BRANCH  19  22
ATOM      1  S   UNL     1     -13.210  -8.436  14.956  0.00  0.00    +0.028 S 
ATOM      8  N   UNL     1     -11.706  -6.756  16.050  0.00  0.00    -0.145 NA
ATOM     10  N   UNL     1     -12.738  -6.850  15.226  0.00  0.00    -0.110 NA
ATOM     22  C   UNL     1     -11.282  -8.003  16.479  0.00  0.00    +0.086 A 
ATOM     24  C   UNL     1     -11.993  -9.077  15.981  0.00  0.00    +0.093 A 
ENDBRANCH  19  22
ENDBRANCH   6  19
TORSDOF 7
ENDMDL
MODEL 9
REMARK VINA RESULT:      -6.1      3.146      9.847
REMARK  Name = 45361032
REMARK  8 active torsions:
REMARK  status: ('A' for Active; 'I' for Inactive)
REMARK    1  A    between atoms: N_5  and  C_20
REMARK    2  A    between atoms: N_6  and  C_19
REMARK    3  A    between atoms: N_9  and  C_25
REMARK    4  A    between atoms: C_15  and  C_18
REMARK    5  A    between atoms: C_18  and  C_21
REMARK    6  A    between atoms: C_19  and  C_22
REMARK    7  A    between atoms: C_21  and  C_23
REMARK    8  A    between atoms: C_25  and  C_26
REMARK                            x       y       z     vdW  Elec       q    Type
REMARK                         _______ _______ _______ _____ _____    ______ ____
ROOT
ATOM      3  O   UNL     1      14.772   7.369  22.357  0.00  0.00    -0.274 OA
ATOM      5  N   UNL     1      18.146   9.025  21.427  0.00  0.00    -0.296 NA
ATOM      6  N   UNL     1      14.628   9.274  20.448  0.00  0.00    -0.284 NA
ATOM      7  N   UNL     1      16.760   6.502  21.627  0.00  0.00    -0.312 N 
ATOM     11  C   UNL     1      17.054   9.353  20.483  0.00  0.00    +0.084 C 
ATOM     12  C   UNL     1      15.820   8.405  20.420  0.00  0.00    +0.161 C 
ATOM     13  C   UNL     1      16.395  10.721  20.740  0.00  0.00    +0.036 C 
ATOM     14  C   UNL     1      15.059  10.605  20.037  0.00  0.00    +0.087 C 
ATOM     15  C   UNL     1      18.848   7.744  21.138  0.00  0.00    +0.074 C 
ATOM     16  C   UNL     1      15.715   7.404  21.567  0.00  0.00    +0.232 C 
ATOM     17  C   UNL     1      17.924   6.568  20.764  0.00  0.00    +0.123 C 
ATOM     20  C   UNL     1      19.116  10.131  21.510  0.00  0.00    +0.105 C 
ATOM     30  H   UNL     1      16.740   5.793  22.354  0.00  0.00    +0.149 HD
ENDROOT
BRANCH  15  18
ATOM     18  C   UNL     1      19.691   7.303  22.353  0.00  0.00    +0.029 C 
BRANCH  18  21
ATOM     21  C   UNL     1      21.021   6.729  21.903  0.00  0.00    +0.097 C 
BRANCH  21  23
ATOM      4  O   UNL     1      21.540   5.680  24.023  0.00  0.00    -0.276 OA
ATOM      9  N   UNL     1      21.787   4.456  22.066  0.00  0.00    -0.311 N 
ATOM     23  C   UNL     1      21.471   5.589  22.799  0.00  0.00    +0.213 C 
ATOM     31  H   UNL     1      21.683   4.468  21.055  0.00  0.00    +0.149 HD
BRANCH   9  25
ATOM     25  C   UNL     1      22.244   3.236  22.689  0.00  0.00    +0.146 C 
BRANCH  25  26
ATOM      2  S   UNL     1      24.954   3.845  22.554  0.00  0.00    -0.100 S 
ATOM     26  C   UNL     1      23.614   2.839  22.206  0.00  0.00    +0.007 A 
ATOM     27  C   UNL     1      23.977   1.724  21.483  0.00  0.00    +0.013 A 
ATOM     28  C   UNL     1      25.376   1.696  21.211  0.00  0.00    +0.008 A 
ATOM     29  C   UNL     1      26.026   2.790  21.737  0.00  0.00    +0.045 A 
ENDBRANCH  25  26
ENDBRANCH   9  25
ENDBRANCH  21  23
ENDBRANCH  18  21
ENDBRANCH  15  18
BRANCH   6  19
ATOM     19  C   UNL     1      13.530   8.776  19.629  0.00  0.00    +0.143 C 
BRANCH  19  22
ATOM      1  S   UNL     1      10.605   7.728  22.110  0.00  0.00    +0.028 S 
ATOM      8  N   UNL     1      12.013   6.896  20.211  0.00  0.00    -0.145 NA
ATOM     10  N   UNL     1      11.038   6.525  21.026  0.00  0.00    -0.110 NA
ATOM     22  C   UNL     1      12.425   8.194  20.468  0.00  0.00    +0.086 A 
ATOM     24  C   UNL     1      11.762   8.836  21.495  0.00  0.00    +0.093 A 
ENDBRANCH  19  22
ENDBRANCH   6  19
TORSDOF 7
ENDMDL
MODEL 10
REMARK VINA RESULT:      -6.0     27.917     31.826
REMARK  Name = 45361032
REMARK  8 active torsions:
REMARK  status: ('A' for Active; 'I' for Inactive)
REMARK    1  A    between atoms: N_5  and  C_20
REMARK    2  A    between atoms: N_6  and  C_19
REMARK    3  A    between atoms: N_9  and  C_25
REMARK    4  A    between atoms: C_15  and  C_18
REMARK    5  A    between atoms: C_18  and  C_21
REMARK    6  A    between atoms: C_19  and  C_22
REMARK    7  A    between atoms: C_21  and  C_23
REMARK    8  A    between atoms: C_25  and  C_26
REMARK                            x       y       z     vdW  Elec       q    Type
REMARK                         _______ _______ _______ _____ _____    ______ ____
ROOT
ATOM      3  O   UNL     1     -10.638  -5.865  15.574  0.00  0.00    -0.274 OA
ATOM      5  N   UNL     1      -9.232  -9.450  15.175  0.00  0.00    -0.296 NA
ATOM      6  N   UNL     1     -12.225  -7.576  14.214  0.00  0.00    -0.284 NA
ATOM      7  N   UNL     1      -9.928  -7.416  17.098  0.00  0.00    -0.312 N 
ATOM     11  C   UNL     1     -10.658  -9.336  14.796  0.00  0.00    +0.084 C 
ATOM     12  C   UNL     1     -11.480  -8.138  15.357  0.00  0.00    +0.161 C 
ATOM     13  C   UNL     1     -10.894  -9.205  13.280  0.00  0.00    +0.036 C 
ATOM     14  C   UNL     1     -12.284  -8.612  13.190  0.00  0.00    +0.087 C 
ATOM     15  C   UNL     1      -8.995  -9.663  16.630  0.00  0.00    +0.074 C 
ATOM     16  C   UNL     1     -10.649  -7.023  15.987  0.00  0.00    +0.232 C 
ATOM     17  C   UNL     1      -9.857  -8.789  17.562  0.00  0.00    +0.123 C 
ATOM     20  C   UNL     1      -8.565 -10.504  14.390  0.00  0.00    +0.105 C 
ATOM     30  H   UNL     1      -9.372  -6.716  17.580  0.00  0.00    +0.149 HD
ENDROOT
BRANCH  15  18
ATOM     18  C   UNL     1      -7.516  -9.397  16.981  0.00  0.00    +0.029 C 
BRANCH  18  21
ATOM     21  C   UNL     1      -7.124 -10.136  18.246  0.00  0.00    +0.097 C 
BRANCH  21  23
ATOM      4  O   UNL     1      -5.973 -12.216  18.706  0.00  0.00    -0.276 OA
ATOM      9  N   UNL     1      -5.464 -11.049  16.765  0.00  0.00    -0.311 N 
ATOM     23  C   UNL     1      -6.139 -11.255  17.959  0.00  0.00    +0.213 C 
ATOM     31  H   UNL     1      -5.679 -10.230  16.203  0.00  0.00    +0.149 HD
BRANCH   9  25
ATOM     25  C   UNL     1      -4.470 -11.973  16.271  0.00  0.00    +0.146 C 
BRANCH  25  26
ATOM      2  S   UNL     1      -3.218 -10.933  14.016  0.00  0.00    -0.100 S 
ATOM     26  C   UNL     1      -3.277 -11.257  15.696  0.00  0.00    +0.007 A 
ATOM     27  C   UNL     1      -2.157 -10.796  16.351  0.00  0.00    +0.013 A 
ATOM     28  C   UNL     1      -1.238 -10.166  15.462  0.00  0.00    +0.008 A 
ATOM     29  C   UNL     1      -1.691 -10.172  14.162  0.00  0.00    +0.045 A 
ENDBRANCH  25  26
ENDBRANCH   9  25
ENDBRANCH  21  23
ENDBRANCH  18  21
ENDBRANCH  15  18
BRANCH   6  19
ATOM     19  C   UNL     1     -13.549  -7.084  14.573  0.00  0.00    +0.143 C 
BRANCH  19  22
ATOM      1  S   UNL     1     -14.240  -3.782  12.470  0.00  0.00    +0.028 S 
ATOM      8  N   UNL     1     -15.107  -6.091  12.912  0.00  0.00    -0.145 NA
ATOM     10  N   UNL     1     -15.357  -5.002  12.201  0.00  0.00    -0.110 NA
ATOM     22  C   UNL     1     -13.977  -5.936  13.699  0.00  0.00    +0.086 A 
ATOM     24  C   UNL     1     -13.344  -4.714  13.597  0.00  0.00    +0.093 A 
ENDBRANCH  19  22
ENDBRANCH   6  19
TORSDOF 7
ENDMDL
