MODEL 1
REMARK VINA RESULT:      -6.5      0.000      0.000
REMARK  Name = 28959913
REMARK  10 active torsions:
REMARK  status: ('A' for Active; 'I' for Inactive)
REMARK    1  A    between atoms: O_3  and  C_22
REMARK    2  A    between atoms: O_5  and  C_23
REMARK    3  A    between atoms: O_5  and  C_29
REMARK    4  A    between atoms: N_7  and  C_15
REMARK    5  A    between atoms: N_8  and  C_24
REMARK    6  A    between atoms: C_9  and  C_13
REMARK    7  A    between atoms: C_10  and  C_16
REMARK    8  A    between atoms: C_13  and  C_15
REMARK    9  A    between atoms: C_16  and  C_22
REMARK   10  A    between atoms: C_19  and  C_23
REMARK                            x       y       z     vdW  Elec       q    Type
REMARK                         _______ _______ _______ _____ _____    ______ ____
ROOT
ATOM      2  O   UNL     1      -1.928 -10.431  14.214  0.00  0.00    -0.272 OA
ATOM      6  N   UNL     1      -3.699 -11.456  15.316  0.00  0.00    -0.298 N 
ATOM      9  C   UNL     1      -6.094 -11.569  15.967  0.00  0.00    +0.011 C 
ATOM     10  C   UNL     1      -5.697 -11.057  17.375  0.00  0.00    +0.006 C 
ATOM     11  C   UNL     1      -4.902 -12.298  15.320  0.00  0.00    +0.111 C 
ATOM     12  C   UNL     1      -4.405 -10.224  17.331  0.00  0.00    +0.023 C 
ATOM     14  C   UNL     1      -3.278 -10.983  16.635  0.00  0.00    +0.108 C 
ATOM     19  C   UNL     1      -2.952 -11.120  14.187  0.00  0.00    +0.253 C 
ENDROOT
BRANCH   9  13
ATOM     13  C   UNL     1      -6.620 -10.473  15.031  0.00  0.00    +0.020 C 
BRANCH  13  15
ATOM     15  C   UNL     1      -7.745 -11.001  14.155  0.00  0.00    +0.085 C 
BRANCH  15   7
ATOM      7  N   UNL     1      -7.968 -10.092  13.030  0.00  0.00    -0.299 NA
ATOM      8  N   UNL     1      -8.096  -9.328  10.281  0.00  0.00    -0.327 N 
ATOM     17  C   UNL     1      -9.046 -10.593  12.169  0.00  0.00    +0.103 C 
ATOM     18  C   UNL     1      -6.737  -9.931  12.248  0.00  0.00    +0.103 C 
ATOM     20  C   UNL     1      -9.328  -9.622  11.019  0.00  0.00    +0.120 C 
ATOM     21  C   UNL     1      -6.941  -8.937  11.101  0.00  0.00    +0.120 C 
BRANCH   8  24
ATOM      1  F   UNL     1      -8.390  -7.373   5.118  0.00  0.00    -0.205 F 
ATOM     24  C   UNL     1      -8.171  -8.834   8.974  0.00  0.00    +0.030 A 
ATOM     25  C   UNL     1      -8.139  -7.457   8.747  0.00  0.00    +0.026 A 
ATOM     26  C   UNL     1      -8.274  -9.716   7.900  0.00  0.00    +0.026 A 
ATOM     27  C   UNL     1      -8.213  -6.964   7.444  0.00  0.00    +0.040 A 
ATOM     28  C   UNL     1      -8.349  -9.223   6.597  0.00  0.00    +0.040 A 
ATOM     30  C   UNL     1      -8.319  -7.847   6.369  0.00  0.00    +0.124 A 
ENDBRANCH   8  24
ENDBRANCH  15   7
ENDBRANCH  13  15
ENDBRANCH   9  13
BRANCH  10  16
ATOM     16  C   UNL     1      -6.815 -10.282  18.070  0.00  0.00    +0.124 C 
BRANCH  16  22
ATOM      4  O   UNL     1      -6.092 -11.102  20.249  0.00  0.00    -0.251 OA
ATOM     22  C   UNL     1      -6.976 -10.705  19.504  0.00  0.00    +0.305 C 
BRANCH  22   3
ATOM      3  O   UNL     1      -8.276 -10.580  19.875  0.00  0.00    -0.481 OA
ATOM     36  H   UNL     1      -8.378 -10.558  20.851  0.00  0.00    +0.295 HD
ENDBRANCH  22   3
ENDBRANCH  16  22
ENDBRANCH  10  16
BRANCH  19  23
ATOM     23  C   UNL     1      -3.453 -11.643  12.865  0.00  0.00    +0.324 C 
BRANCH  23   5
ATOM      5  O   UNL     1      -2.678 -11.023  11.867  0.00  0.00    -0.483 OA
BRANCH   5  29
ATOM     29  C   UNL     1      -3.327 -10.624  10.720  0.00  0.00    +0.121 A 
ATOM     31  C   UNL     1      -4.040 -11.553   9.962  0.00  0.00    +0.045 A 
ATOM     32  C   UNL     1      -3.271  -9.290  10.316  0.00  0.00    +0.045 A 
ATOM     33  C   UNL     1      -4.697 -11.148   8.800  0.00  0.00    +0.004 A 
ATOM     34  C   UNL     1      -3.929  -8.885   9.154  0.00  0.00    +0.004 A 
ATOM     35  C   UNL     1      -4.642  -9.814   8.397  0.00  0.00    +0.000 A 
ENDBRANCH   5  29
ENDBRANCH  23   5
ENDBRANCH  19  23
TORSDOF 10
ENDMDL
MODEL 2
REMARK VINA RESULT:      -6.2      3.138      4.598
REMARK  Name = 28959913
REMARK  10 active torsions:
REMARK  status: ('A' for Active; 'I' for Inactive)
REMARK    1  A    between atoms: O_3  and  C_22
REMARK    2  A    between atoms: O_5  and  C_23
REMARK    3  A    between atoms: O_5  and  C_29
REMARK    4  A    between atoms: N_7  and  C_15
REMARK    5  A    between atoms: N_8  and  C_24
REMARK    6  A    between atoms: C_9  and  C_13
REMARK    7  A    between atoms: C_10  and  C_16
REMARK    8  A    between atoms: C_13  and  C_15
REMARK    9  A    between atoms: C_16  and  C_22
REMARK   10  A    between atoms: C_19  and  C_23
REMARK                            x       y       z     vdW  Elec       q    Type
REMARK                         _______ _______ _______ _____ _____    ______ ____
ROOT
ATOM      2  O   UNL     1      -1.622 -10.434  12.075  0.00  0.00    -0.272 OA
ATOM      6  N   UNL     1      -2.254 -11.693  13.923  0.00  0.00    -0.298 N 
ATOM      9  C   UNL     1      -3.927 -12.392  15.621  0.00  0.00    +0.011 C 
ATOM     10  C   UNL     1      -3.195 -11.499  16.655  0.00  0.00    +0.006 C 
ATOM     11  C   UNL     1      -2.941 -12.841  14.527  0.00  0.00    +0.111 C 
ATOM     12  C   UNL     1      -2.448 -10.340  15.975  0.00  0.00    +0.023 C 
ATOM     14  C   UNL     1      -1.525 -10.848  14.869  0.00  0.00    +0.108 C 
ATOM     19  C   UNL     1      -2.231 -11.391  12.561  0.00  0.00    +0.253 C 
ENDROOT
BRANCH   9  13
ATOM     13  C   UNL     1      -5.159 -11.731  14.989  0.00  0.00    +0.020 C 
BRANCH  13  15
ATOM     15  C   UNL     1      -6.414 -12.544  15.267  0.00  0.00    +0.085 C 
BRANCH  15   7
ATOM      7  N   UNL     1      -7.524 -11.649  15.596  0.00  0.00    -0.299 NA
ATOM      8  N   UNL     1      -9.310  -9.456  15.198  0.00  0.00    -0.327 N 
ATOM     17  C   UNL     1      -8.562 -11.715  14.561  0.00  0.00    +0.103 C 
ATOM     18  C   UNL     1      -7.046 -10.268  15.737  0.00  0.00    +0.103 C 
ATOM     20  C   UNL     1      -9.755 -10.825  14.921  0.00  0.00    +0.120 C 
ATOM     21  C   UNL     1      -8.187  -9.331  16.138  0.00  0.00    +0.120 C 
BRANCH   8  24
ATOM      1  F   UNL     1     -12.922  -5.281  14.902  0.00  0.00    -0.205 F 
ATOM     24  C   UNL     1     -10.225  -8.400  15.123  0.00  0.00    +0.030 A 
ATOM     25  C   UNL     1     -10.121  -7.323  16.006  0.00  0.00    +0.026 A 
ATOM     26  C   UNL     1     -11.238  -8.422  14.166  0.00  0.00    +0.026 A 
ATOM     27  C   UNL     1     -11.032  -6.271  15.931  0.00  0.00    +0.040 A 
ATOM     28  C   UNL     1     -12.150  -7.368  14.091  0.00  0.00    +0.040 A 
ATOM     30  C   UNL     1     -12.047  -6.293  14.973  0.00  0.00    +0.124 A 
ENDBRANCH   8  24
ENDBRANCH  15   7
ENDBRANCH  13  15
ENDBRANCH   9  13
BRANCH  10  16
ATOM     16  C   UNL     1      -4.117 -10.974  17.755  0.00  0.00    +0.124 C 
BRANCH  16  22
ATOM      4  O   UNL     1      -5.459 -12.624  18.946  0.00  0.00    -0.251 OA
ATOM     22  C   UNL     1      -4.404 -12.027  18.790  0.00  0.00    +0.305 C 
BRANCH  22   3
ATOM      3  O   UNL     1      -3.298 -12.235  19.550  0.00  0.00    -0.481 OA
ATOM     36  H   UNL     1      -3.160 -11.513  20.200  0.00  0.00    +0.295 HD
ENDBRANCH  22   3
ENDBRANCH  16  22
ENDBRANCH  10  16
BRANCH  19  23
ATOM     23  C   UNL     1      -3.009 -12.308  11.652  0.00  0.00    +0.324 C 
BRANCH  23   5
ATOM      5  O   UNL     1      -4.338 -11.849  11.660  0.00  0.00    -0.483 OA
BRANCH   5  29
ATOM     29  C   UNL     1      -4.603 -10.665  11.007  0.00  0.00    +0.121 A 
ATOM     31  C   UNL     1      -4.226 -10.505   9.674  0.00  0.00    +0.045 A 
ATOM     32  C   UNL     1      -5.247  -9.628  11.680  0.00  0.00    +0.045 A 
ATOM     33  C   UNL     1      -4.495  -9.306   9.013  0.00  0.00    +0.004 A 
ATOM     34  C   UNL     1      -5.516  -8.428  11.019  0.00  0.00    +0.004 A 
ATOM     35  C   UNL     1      -5.139  -8.268   9.686  0.00  0.00    +0.000 A 
ENDBRANCH   5  29
ENDBRANCH  23   5
ENDBRANCH  19  23
TORSDOF 10
ENDMDL
MODEL 3
REMARK VINA RESULT:      -6.1      3.877      6.375
REMARK  Name = 28959913
REMARK  10 active torsions:
REMARK  status: ('A' for Active; 'I' for Inactive)
REMARK    1  A    between atoms: O_3  and  C_22
REMARK    2  A    between atoms: O_5  and  C_23
REMARK    3  A    between atoms: O_5  and  C_29
REMARK    4  A    between atoms: N_7  and  C_15
REMARK    5  A    between atoms: N_8  and  C_24
REMARK    6  A    between atoms: C_9  and  C_13
REMARK    7  A    between atoms: C_10  and  C_16
REMARK    8  A    between atoms: C_13  and  C_15
REMARK    9  A    between atoms: C_16  and  C_22
REMARK   10  A    between atoms: C_19  and  C_23
REMARK                            x       y       z     vdW  Elec       q    Type
REMARK                         _______ _______ _______ _____ _____    ______ ____
ROOT
ATOM      2  O   UNL     1      -1.427 -10.053  12.523  0.00  0.00    -0.272 OA
ATOM      6  N   UNL     1      -2.727 -11.310  13.982  0.00  0.00    -0.298 N 
ATOM      9  C   UNL     1      -4.664 -11.562  15.517  0.00  0.00    +0.011 C 
ATOM     10  C   UNL     1      -3.685 -11.445  16.712  0.00  0.00    +0.006 C 
ATOM     11  C   UNL     1      -3.922 -12.108  14.284  0.00  0.00    +0.111 C 
ATOM     12  C   UNL     1      -2.427 -10.645  16.337  0.00  0.00    +0.023 C 
ATOM     14  C   UNL     1      -1.766 -11.207  15.081  0.00  0.00    +0.108 C 
ATOM     19  C   UNL     1      -2.453 -10.698  12.760  0.00  0.00    +0.253 C 
ENDROOT
BRANCH   9  13
ATOM     13  C   UNL     1      -5.382 -10.252  15.169  0.00  0.00    +0.020 C 
BRANCH  13  15
ATOM     15  C   UNL     1      -6.588 -10.513  14.279  0.00  0.00    +0.085 C 
BRANCH  15   7
ATOM      7  N   UNL     1      -7.808 -10.068  14.952  0.00  0.00    -0.299 NA
ATOM      8  N   UNL     1      -9.774 -10.019  17.024  0.00  0.00    -0.327 N 
ATOM     17  C   UNL     1      -7.492  -9.488  16.262  0.00  0.00    +0.103 C 
ATOM     18  C   UNL     1      -8.744 -11.188  15.113  0.00  0.00    +0.103 C 
ATOM     20  C   UNL     1      -8.755  -8.967  16.953  0.00  0.00    +0.120 C 
ATOM     21  C   UNL     1     -10.049 -10.723  15.765  0.00  0.00    +0.120 C 
BRANCH   8  24
ATOM      1  F   UNL     1     -13.858  -9.639  20.730  0.00  0.00    -0.205 F 
ATOM     24  C   UNL     1     -10.807  -9.923  17.963  0.00  0.00    +0.030 A 
ATOM     25  C   UNL     1     -12.089  -9.551  17.553  0.00  0.00    +0.026 A 
ATOM     26  C   UNL     1     -10.557 -10.199  19.306  0.00  0.00    +0.026 A 
ATOM     27  C   UNL     1     -13.118  -9.455  18.488  0.00  0.00    +0.040 A 
ATOM     28  C   UNL     1     -11.588 -10.103  20.241  0.00  0.00    +0.040 A 
ATOM     30  C   UNL     1     -12.868  -9.731  19.832  0.00  0.00    +0.124 A 
ENDBRANCH   8  24
ENDBRANCH  15   7
ENDBRANCH  13  15
ENDBRANCH   9  13
BRANCH  10  16
ATOM     16  C   UNL     1      -4.337 -10.867  17.968  0.00  0.00    +0.124 C 
BRANCH  16  22
ATOM      4  O   UNL     1      -3.344 -12.166  19.777  0.00  0.00    -0.251 OA
ATOM     22  C   UNL     1      -4.316 -11.849  19.107  0.00  0.00    +0.305 C 
BRANCH  22   3
ATOM      3  O   UNL     1      -5.563 -12.350  19.301  0.00  0.00    -0.481 OA
ATOM     36  H   UNL     1      -6.040 -11.878  20.017  0.00  0.00    +0.295 HD
ENDBRANCH  22   3
ENDBRANCH  16  22
ENDBRANCH  10  16
BRANCH  19  23
ATOM     23  C   UNL     1      -3.494 -10.847  11.680  0.00  0.00    +0.324 C 
BRANCH  23   5
ATOM      5  O   UNL     1      -4.212  -9.638  11.643  0.00  0.00    -0.483 OA
BRANCH   5  29
ATOM     29  C   UNL     1      -5.029  -9.421  10.555  0.00  0.00    +0.121 A 
ATOM     31  C   UNL     1      -4.561  -9.685   9.268  0.00  0.00    +0.045 A 
ATOM     32  C   UNL     1      -6.323  -8.937  10.742  0.00  0.00    +0.045 A 
ATOM     33  C   UNL     1      -5.389  -9.465   8.167  0.00  0.00    +0.004 A 
ATOM     34  C   UNL     1      -7.151  -8.717   9.641  0.00  0.00    +0.004 A 
ATOM     35  C   UNL     1      -6.683  -8.981   8.353  0.00  0.00    +0.000 A 
ENDBRANCH   5  29
ENDBRANCH  23   5
ENDBRANCH  19  23
TORSDOF 10
ENDMDL
MODEL 4
REMARK VINA RESULT:      -6.1      4.406      6.792
REMARK  Name = 28959913
REMARK  10 active torsions:
REMARK  status: ('A' for Active; 'I' for Inactive)
REMARK    1  A    between atoms: O_3  and  C_22
REMARK    2  A    between atoms: O_5  and  C_23
REMARK    3  A    between atoms: O_5  and  C_29
REMARK    4  A    between atoms: N_7  and  C_15
REMARK    5  A    between atoms: N_8  and  C_24
REMARK    6  A    between atoms: C_9  and  C_13
REMARK    7  A    between atoms: C_10  and  C_16
REMARK    8  A    between atoms: C_13  and  C_15
REMARK    9  A    between atoms: C_16  and  C_22
REMARK   10  A    between atoms: C_19  and  C_23
REMARK                            x       y       z     vdW  Elec       q    Type
REMARK                         _______ _______ _______ _____ _____    ______ ____
ROOT
ATOM      2  O   UNL     1      -2.325 -10.288  14.471  0.00  0.00    -0.272 OA
ATOM      6  N   UNL     1      -4.062 -11.338  15.603  0.00  0.00    -0.298 N 
ATOM      9  C   UNL     1      -6.260 -11.288  16.759  0.00  0.00    +0.011 C 
ATOM     10  C   UNL     1      -5.510 -11.379  18.111  0.00  0.00    +0.006 C 
ATOM     11  C   UNL     1      -5.408 -11.921  15.644  0.00  0.00    +0.111 C 
ATOM     12  C   UNL     1      -4.088 -10.803  18.010  0.00  0.00    +0.023 C 
ATOM     14  C   UNL     1      -3.314 -11.436  16.857  0.00  0.00    +0.108 C 
ATOM     19  C   UNL     1      -3.470 -10.748  14.486  0.00  0.00    +0.253 C 
ENDROOT
BRANCH   9  13
ATOM     13  C   UNL     1      -6.672  -9.863  16.369  0.00  0.00    +0.020 C 
BRANCH  13  15
ATOM     15  C   UNL     1      -7.698  -9.881  15.246  0.00  0.00    +0.085 C 
BRANCH  15   7
ATOM      7  N   UNL     1      -9.031  -9.610  15.784  0.00  0.00    -0.299 NA
ATOM      8  N   UNL     1     -11.110  -9.655  17.741  0.00  0.00    -0.327 N 
ATOM     17  C   UNL     1      -8.941  -8.768  16.982  0.00  0.00    +0.103 C 
ATOM     18  C   UNL     1      -9.720 -10.866  16.105  0.00  0.00    +0.103 C 
ATOM     20  C   UNL     1     -10.333  -8.431  17.524  0.00  0.00    +0.120 C 
ATOM     21  C   UNL     1     -11.138 -10.599  16.616  0.00  0.00    +0.120 C 
BRANCH   8  24
ATOM      1  F   UNL     1     -15.447  -9.578  21.169  0.00  0.00    -0.205 F 
ATOM     24  C   UNL     1     -12.208  -9.635  18.609  0.00  0.00    +0.030 A 
ATOM     25  C   UNL     1     -13.494  -9.443  18.103  0.00  0.00    +0.026 A 
ATOM     26  C   UNL     1     -12.016  -9.809  19.979  0.00  0.00    +0.026 A 
ATOM     27  C   UNL     1     -14.588  -9.424  18.968  0.00  0.00    +0.040 A 
ATOM     28  C   UNL     1     -13.110  -9.790  20.845  0.00  0.00    +0.040 A 
ATOM     30  C   UNL     1     -14.396  -9.597  20.339  0.00  0.00    +0.124 A 
ENDBRANCH   8  24
ENDBRANCH  15   7
ENDBRANCH  13  15
ENDBRANCH   9  13
BRANCH  10  16
ATOM     16  C   UNL     1      -6.273 -10.731  19.267  0.00  0.00    +0.124 C 
BRANCH  16  22
ATOM      4  O   UNL     1      -8.651 -11.000  19.731  0.00  0.00    -0.251 OA
ATOM     22  C   UNL     1      -7.537 -11.480  19.587  0.00  0.00    +0.305 C 
BRANCH  22   3
ATOM      3  O   UNL     1      -7.267 -12.807  19.698  0.00  0.00    -0.481 OA
ATOM     36  H   UNL     1      -8.044 -13.359  19.463  0.00  0.00    +0.295 HD
ENDBRANCH  22   3
ENDBRANCH  16  22
ENDBRANCH  10  16
BRANCH  19  23
ATOM     23  C   UNL     1      -4.307 -10.682  13.234  0.00  0.00    +0.324 C 
BRANCH  23   5
ATOM      5  O   UNL     1      -3.413 -10.720  12.149  0.00  0.00    -0.483 OA
BRANCH   5  29
ATOM     29  C   UNL     1      -3.909 -10.386  10.908  0.00  0.00    +0.121 A 
ATOM     31  C   UNL     1      -3.563  -9.168  10.324  0.00  0.00    +0.045 A 
ATOM     32  C   UNL     1      -4.756 -11.267  10.237  0.00  0.00    +0.045 A 
ATOM     33  C   UNL     1      -4.065  -8.831   9.066  0.00  0.00    +0.004 A 
ATOM     34  C   UNL     1      -5.258 -10.930   8.980  0.00  0.00    +0.004 A 
ATOM     35  C   UNL     1      -4.913  -9.712   8.395  0.00  0.00    +0.000 A 
ENDBRANCH   5  29
ENDBRANCH  23   5
ENDBRANCH  19  23
TORSDOF 10
ENDMDL
MODEL 5
REMARK VINA RESULT:      -6.1      5.002      8.846
REMARK  Name = 28959913
REMARK  10 active torsions:
REMARK  status: ('A' for Active; 'I' for Inactive)
REMARK    1  A    between atoms: O_3  and  C_22
REMARK    2  A    between atoms: O_5  and  C_23
REMARK    3  A    between atoms: O_5  and  C_29
REMARK    4  A    between atoms: N_7  and  C_15
REMARK    5  A    between atoms: N_8  and  C_24
REMARK    6  A    between atoms: C_9  and  C_13
REMARK    7  A    between atoms: C_10  and  C_16
REMARK    8  A    between atoms: C_13  and  C_15
REMARK    9  A    between atoms: C_16  and  C_22
REMARK   10  A    between atoms: C_19  and  C_23
REMARK                            x       y       z     vdW  Elec       q    Type
REMARK                         _______ _______ _______ _____ _____    ______ ____
ROOT
ATOM      2  O   UNL     1      -7.464 -12.181  20.153  0.00  0.00    -0.272 OA
ATOM      6  N   UNL     1      -6.376 -10.809  18.626  0.00  0.00    -0.298 N 
ATOM      9  C   UNL     1      -5.640 -10.265  16.316  0.00  0.00    +0.011 C 
ATOM     10  C   UNL     1      -4.214 -10.732  16.700  0.00  0.00    +0.006 C 
ATOM     11  C   UNL     1      -6.390  -9.786  17.572  0.00  0.00    +0.111 C 
ATOM     12  C   UNL     1      -4.244 -11.764  17.840  0.00  0.00    +0.023 C 
ATOM     14  C   UNL     1      -5.042 -11.248  19.034  0.00  0.00    +0.108 C 
ATOM     19  C   UNL     1      -7.505 -11.340  19.250  0.00  0.00    +0.253 C 
ENDROOT
BRANCH   9  13
ATOM     13  C   UNL     1      -6.466 -11.325  15.576  0.00  0.00    +0.020 C 
BRANCH  13  15
ATOM     15  C   UNL     1      -7.095 -10.744  14.318  0.00  0.00    +0.085 C 
BRANCH  15   7
ATOM      7  N   UNL     1      -8.550 -10.707  14.461  0.00  0.00    -0.299 NA
ATOM      8  N   UNL     1     -11.027 -10.469  15.864  0.00  0.00    -0.327 N 
ATOM     17  C   UNL     1      -8.983  -9.408  14.989  0.00  0.00    +0.103 C 
ATOM     18  C   UNL     1      -9.007 -11.785  15.348  0.00  0.00    +0.103 C 
ATOM     20  C   UNL     1     -10.509  -9.336  15.091  0.00  0.00    +0.120 C 
ATOM     21  C   UNL     1     -10.533 -11.793  15.461  0.00  0.00    +0.120 C 
BRANCH   8  24
ATOM      1  F   UNL     1     -16.047 -10.157  18.159  0.00  0.00    -0.205 F 
ATOM     24  C   UNL     1     -12.297 -10.391  16.445  0.00  0.00    +0.030 A 
ATOM     25  C   UNL     1     -12.846  -9.146  16.756  0.00  0.00    +0.026 A 
ATOM     26  C   UNL     1     -13.015 -11.556  16.712  0.00  0.00    +0.026 A 
ATOM     27  C   UNL     1     -14.113  -9.067  17.334  0.00  0.00    +0.040 A 
ATOM     28  C   UNL     1     -14.282 -11.477  17.291  0.00  0.00    +0.040 A 
ATOM     30  C   UNL     1     -14.831 -10.233  17.602  0.00  0.00    +0.124 A 
ENDBRANCH   8  24
ENDBRANCH  15   7
ENDBRANCH  13  15
ENDBRANCH   9  13
BRANCH  10  16
ATOM     16  C   UNL     1      -3.416 -11.266  15.511  0.00  0.00    +0.124 C 
BRANCH  16  22
ATOM      4  O   UNL     1      -1.583  -9.961  14.573  0.00  0.00    -0.251 OA
ATOM     22  C   UNL     1      -2.035 -10.672  15.457  0.00  0.00    +0.305 C 
BRANCH  22   3
ATOM      3  O   UNL     1      -1.335 -11.043  16.561  0.00  0.00    -0.481 OA
ATOM     36  H   UNL     1      -1.707 -11.851  16.975  0.00  0.00    +0.295 HD
ENDBRANCH  22   3
ENDBRANCH  16  22
ENDBRANCH  10  16
BRANCH  19  23
ATOM     23  C   UNL     1      -8.842 -10.838  18.770  0.00  0.00    +0.324 C 
BRANCH  23   5
ATOM      5  O   UNL     1      -9.781 -11.842  19.073  0.00  0.00    -0.483 OA
BRANCH   5  29
ATOM     29  C   UNL     1     -10.941 -11.453  19.704  0.00  0.00    +0.121 A 
ATOM     31  C   UNL     1     -11.194 -10.099  19.928  0.00  0.00    +0.045 A 
ATOM     32  C   UNL     1     -11.864 -12.412  20.120  0.00  0.00    +0.045 A 
ATOM     33  C   UNL     1     -12.370  -9.706  20.568  0.00  0.00    +0.004 A 
ATOM     34  C   UNL     1     -13.040 -12.019  20.759  0.00  0.00    +0.004 A 
ATOM     35  C   UNL     1     -13.292 -10.665  20.983  0.00  0.00    +0.000 A 
ENDBRANCH   5  29
ENDBRANCH  23   5
ENDBRANCH  19  23
TORSDOF 10
ENDMDL
MODEL 6
REMARK VINA RESULT:      -6.1     23.071     26.616
REMARK  Name = 28959913
REMARK  10 active torsions:
REMARK  status: ('A' for Active; 'I' for Inactive)
REMARK    1  A    between atoms: O_3  and  C_22
REMARK    2  A    between atoms: O_5  and  C_23
REMARK    3  A    between atoms: O_5  and  C_29
REMARK    4  A    between atoms: N_7  and  C_15
REMARK    5  A    between atoms: N_8  and  C_24
REMARK    6  A    between atoms: C_9  and  C_13
REMARK    7  A    between atoms: C_10  and  C_16
REMARK    8  A    between atoms: C_13  and  C_15
REMARK    9  A    between atoms: C_16  and  C_22
REMARK   10  A    between atoms: C_19  and  C_23
REMARK                            x       y       z     vdW  Elec       q    Type
REMARK                         _______ _______ _______ _____ _____    ______ ____
ROOT
ATOM      2  O   UNL     1      15.052   5.223   2.150  0.00  0.00    -0.272 OA
ATOM      6  N   UNL     1      13.725   5.577   0.275  0.00  0.00    -0.298 N 
ATOM      9  C   UNL     1      11.550   5.444  -0.918  0.00  0.00    +0.011 C 
ATOM     10  C   UNL     1      12.100   4.231  -1.709  0.00  0.00    +0.006 C 
ATOM     11  C   UNL     1      12.714   6.343  -0.463  0.00  0.00    +0.111 C 
ATOM     12  C   UNL     1      13.191   3.488  -0.920  0.00  0.00    +0.023 C 
ATOM     14  C   UNL     1      14.289   4.443  -0.457  0.00  0.00    +0.108 C 
ATOM     19  C   UNL     1      14.180   5.869   1.561  0.00  0.00    +0.253 C 
ENDROOT
BRANCH   9  13
ATOM     13  C   UNL     1      10.674   5.060   0.282  0.00  0.00    +0.020 C 
BRANCH  13  15
ATOM     15  C   UNL     1      10.318   6.286   1.109  0.00  0.00    +0.085 C 
BRANCH  15   7
ATOM      7  N   UNL     1       9.781   5.872   2.405  0.00  0.00    -0.299 NA
ATOM      8  N   UNL     1       9.723   5.649   5.253  0.00  0.00    -0.327 N 
ATOM     17  C   UNL     1       9.482   7.045   3.237  0.00  0.00    +0.103 C 
ATOM     18  C   UNL     1      10.732   4.996   3.100  0.00  0.00    +0.103 C 
ATOM     20  C   UNL     1       8.866   6.627   4.575  0.00  0.00    +0.120 C 
ATOM     21  C   UNL     1      10.158   4.510   4.433  0.00  0.00    +0.120 C 
BRANCH   8  24
ATOM      1  F   UNL     1       9.239   4.886  10.707  0.00  0.00    -0.205 F 
ATOM     24  C   UNL     1       9.600   5.457   6.633  0.00  0.00    +0.030 A 
ATOM     25  C   UNL     1       9.915   4.218   7.195  0.00  0.00    +0.026 A 
ATOM     26  C   UNL     1       9.165   6.501   7.447  0.00  0.00    +0.026 A 
ATOM     27  C   UNL     1       9.792   4.026   8.570  0.00  0.00    +0.040 A 
ATOM     28  C   UNL     1       9.043   6.309   8.823  0.00  0.00    +0.040 A 
ATOM     30  C   UNL     1       9.356   5.072   9.385  0.00  0.00    +0.124 A 
ENDBRANCH   8  24
ENDBRANCH  15   7
ENDBRANCH  13  15
ENDBRANCH   9  13
BRANCH  10  16
ATOM     16  C   UNL     1      11.008   3.262  -2.160  0.00  0.00    +0.124 C 
BRANCH  16  22
ATOM      4  O   UNL     1      10.734   4.574  -4.197  0.00  0.00    -0.251 OA
ATOM     22  C   UNL     1      10.310   3.750  -3.400  0.00  0.00    +0.305 C 
BRANCH  22   3
ATOM      3  O   UNL     1       9.108   3.130  -3.522  0.00  0.00    -0.481 OA
ATOM     36  H   UNL     1       8.616   3.439  -4.313  0.00  0.00    +0.295 HD
ENDBRANCH  22   3
ENDBRANCH  16  22
ENDBRANCH  10  16
BRANCH  19  23
ATOM     23  C   UNL     1      13.547   7.050   2.250  0.00  0.00    +0.324 C 
BRANCH  23   5
ATOM      5  O   UNL     1      13.738   6.861   3.631  0.00  0.00    -0.483 OA
BRANCH   5  29
ATOM     29  C   UNL     1      13.023   7.671   4.486  0.00  0.00    +0.121 A 
ATOM     31  C   UNL     1      12.400   8.820   3.999  0.00  0.00    +0.045 A 
ATOM     32  C   UNL     1      12.922   7.341   5.836  0.00  0.00    +0.045 A 
ATOM     33  C   UNL     1      11.675   9.640   4.865  0.00  0.00    +0.004 A 
ATOM     34  C   UNL     1      12.197   8.161   6.702  0.00  0.00    +0.004 A 
ATOM     35  C   UNL     1      11.575   9.311   6.216  0.00  0.00    +0.000 A 
ENDBRANCH   5  29
ENDBRANCH  23   5
ENDBRANCH  19  23
TORSDOF 10
ENDMDL
MODEL 7
REMARK VINA RESULT:      -6.0      2.885      5.908
REMARK  Name = 28959913
REMARK  10 active torsions:
REMARK  status: ('A' for Active; 'I' for Inactive)
REMARK    1  A    between atoms: O_3  and  C_22
REMARK    2  A    between atoms: O_5  and  C_23
REMARK    3  A    between atoms: O_5  and  C_29
REMARK    4  A    between atoms: N_7  and  C_15
REMARK    5  A    between atoms: N_8  and  C_24
REMARK    6  A    between atoms: C_9  and  C_13
REMARK    7  A    between atoms: C_10  and  C_16
REMARK    8  A    between atoms: C_13  and  C_15
REMARK    9  A    between atoms: C_16  and  C_22
REMARK   10  A    between atoms: C_19  and  C_23
REMARK                            x       y       z     vdW  Elec       q    Type
REMARK                         _______ _______ _______ _____ _____    ______ ____
ROOT
ATOM      2  O   UNL     1      -8.798 -12.000  18.034  0.00  0.00    -0.272 OA
ATOM      6  N   UNL     1      -7.033 -10.676  17.303  0.00  0.00    -0.298 N 
ATOM      9  C   UNL     1      -5.410  -9.969  15.561  0.00  0.00    +0.011 C 
ATOM     10  C   UNL     1      -4.315 -10.771  16.308  0.00  0.00    +0.006 C 
ATOM     11  C   UNL     1      -6.505  -9.532  16.549  0.00  0.00    +0.111 C 
ATOM     12  C   UNL     1      -4.917 -11.928  17.124  0.00  0.00    +0.023 C 
ATOM     14  C   UNL     1      -6.029 -11.436  18.047  0.00  0.00    +0.108 C 
ATOM     19  C   UNL     1      -8.376 -11.048  17.372  0.00  0.00    +0.253 C 
ENDROOT
BRANCH   9  13
ATOM     13  C   UNL     1      -6.031 -10.719  14.375  0.00  0.00    +0.020 C 
BRANCH  13  15
ATOM     15  C   UNL     1      -7.128  -9.891  13.724  0.00  0.00    +0.085 C 
BRANCH  15   7
ATOM      7  N   UNL     1      -7.060 -10.032  12.269  0.00  0.00    -0.299 NA
ATOM      8  N   UNL     1      -7.211  -9.155   9.555  0.00  0.00    -0.327 N 
ATOM     17  C   UNL     1      -6.025  -9.152  11.714  0.00  0.00    +0.103 C 
ATOM     18  C   UNL     1      -8.360  -9.721  11.661  0.00  0.00    +0.103 C 
ATOM     20  C   UNL     1      -5.905  -9.331  10.198  0.00  0.00    +0.120 C 
ATOM     21  C   UNL     1      -8.319  -9.920  10.144  0.00  0.00    +0.120 C 
BRANCH   8  24
ATOM      1  F   UNL     1      -7.473  -7.942   4.167  0.00  0.00    -0.205 F 
ATOM     24  C   UNL     1      -7.278  -8.848   8.191  0.00  0.00    +0.030 A 
ATOM     25  C   UNL     1      -6.558  -9.609   7.269  0.00  0.00    +0.026 A 
ATOM     26  C   UNL     1      -8.064  -7.783   7.754  0.00  0.00    +0.026 A 
ATOM     27  C   UNL     1      -6.624  -9.303   5.910  0.00  0.00    +0.040 A 
ATOM     28  C   UNL     1      -8.130  -7.476   6.395  0.00  0.00    +0.040 A 
ATOM     30  C   UNL     1      -7.410  -8.236   5.473  0.00  0.00    +0.124 A 
ENDBRANCH   8  24
ENDBRANCH  15   7
ENDBRANCH  13  15
ENDBRANCH   9  13
BRANCH  10  16
ATOM     16  C   UNL     1      -3.208 -11.281  15.386  0.00  0.00    +0.124 C 
BRANCH  16  22
ATOM      4  O   UNL     1      -1.269  -9.863  14.972  0.00  0.00    -0.251 OA
ATOM     22  C   UNL     1      -1.886 -10.633  15.693  0.00  0.00    +0.305 C 
BRANCH  22   3
ATOM      3  O   UNL     1      -1.457 -11.027  16.919  0.00  0.00    -0.481 OA
ATOM     36  H   UNL     1      -1.338 -10.266  17.528  0.00  0.00    +0.295 HD
ENDBRANCH  22   3
ENDBRANCH  16  22
ENDBRANCH  10  16
BRANCH  19  23
ATOM     23  C   UNL     1      -9.349 -10.217  16.574  0.00  0.00    +0.324 C 
BRANCH  23   5
ATOM      5  O   UNL     1      -9.927  -9.301  17.472  0.00  0.00    -0.483 OA
BRANCH   5  29
ATOM     29  C   UNL     1     -10.842  -8.407  16.962  0.00  0.00    +0.121 A 
ATOM     31  C   UNL     1     -12.153  -8.816  16.715  0.00  0.00    +0.045 A 
ATOM     32  C   UNL     1     -10.458  -7.094  16.693  0.00  0.00    +0.045 A 
ATOM     33  C   UNL     1     -13.080  -7.909  16.199  0.00  0.00    +0.004 A 
ATOM     34  C   UNL     1     -11.385  -6.188  16.177  0.00  0.00    +0.004 A 
ATOM     35  C   UNL     1     -12.696  -6.596  15.930  0.00  0.00    +0.000 A 
ENDBRANCH   5  29
ENDBRANCH  23   5
ENDBRANCH  19  23
TORSDOF 10
ENDMDL
MODEL 8
REMARK VINA RESULT:      -6.0     25.324     28.799
REMARK  Name = 28959913
REMARK  10 active torsions:
REMARK  status: ('A' for Active; 'I' for Inactive)
REMARK    1  A    between atoms: O_3  and  C_22
REMARK    2  A    between atoms: O_5  and  C_23
REMARK    3  A    between atoms: O_5  and  C_29
REMARK    4  A    between atoms: N_7  and  C_15
REMARK    5  A    between atoms: N_8  and  C_24
REMARK    6  A    between atoms: C_9  and  C_13
REMARK    7  A    between atoms: C_10  and  C_16
REMARK    8  A    between atoms: C_13  and  C_15
REMARK    9  A    between atoms: C_16  and  C_22
REMARK   10  A    between atoms: C_19  and  C_23
REMARK                            x       y       z     vdW  Elec       q    Type
REMARK                         _______ _______ _______ _____ _____    ______ ____
ROOT
ATOM      2  O   UNL     1       8.614   7.917   1.822  0.00  0.00    -0.272 OA
ATOM      6  N   UNL     1      10.204   6.262   2.183  0.00  0.00    -0.298 N 
ATOM      9  C   UNL     1      12.555   5.525   2.507  0.00  0.00    +0.011 C 
ATOM     10  C   UNL     1      12.557   5.012   1.045  0.00  0.00    +0.006 C 
ATOM     11  C   UNL     1      11.119   5.521   3.061  0.00  0.00    +0.111 C 
ATOM     12  C   UNL     1      11.549   5.781   0.174  0.00  0.00    +0.023 C 
ATOM     14  C   UNL     1      10.158   5.781   0.802  0.00  0.00    +0.108 C 
ATOM     19  C   UNL     1       9.394   7.328   2.575  0.00  0.00    +0.253 C 
ENDROOT
BRANCH   9  13
ATOM     13  C   UNL     1      13.189   6.911   2.682  0.00  0.00    +0.020 C 
BRANCH  13  15
ATOM     15  C   UNL     1      13.244   7.302   4.151  0.00  0.00    +0.085 C 
BRANCH  15   7
ATOM      7  N   UNL     1      14.501   7.996   4.434  0.00  0.00    -0.299 NA
ATOM      8  N   UNL     1      17.291   8.208   5.005  0.00  0.00    -0.327 N 
ATOM     17  C   UNL     1      15.495   7.705   3.395  0.00  0.00    +0.103 C 
ATOM     18  C   UNL     1      15.021   7.602   5.749  0.00  0.00    +0.103 C 
ATOM     20  C   UNL     1      16.797   8.470   3.649  0.00  0.00    +0.120 C 
ATOM     21  C   UNL     1      16.306   8.364   6.083  0.00  0.00    +0.120 C 
BRANCH   8  24
ATOM      1  F   UNL     1      22.613   9.102   6.207  0.00  0.00    -0.205 F 
ATOM     24  C   UNL     1      18.638   8.434   5.308  0.00  0.00    +0.030 A 
ATOM     25  C   UNL     1      19.032   8.621   6.635  0.00  0.00    +0.026 A 
ATOM     26  C   UNL     1      19.587   8.472   4.288  0.00  0.00    +0.026 A 
ATOM     27  C   UNL     1      20.374   8.847   6.937  0.00  0.00    +0.040 A 
ATOM     28  C   UNL     1      20.930   8.698   4.591  0.00  0.00    +0.040 A 
ATOM     30  C   UNL     1      21.323   8.885   5.916  0.00  0.00    +0.124 A 
ENDBRANCH   8  24
ENDBRANCH  15   7
ENDBRANCH  13  15
ENDBRANCH   9  13
BRANCH  10  16
ATOM     16  C   UNL     1      13.944   5.026   0.404  0.00  0.00    +0.124 C 
BRANCH  16  22
ATOM      4  O   UNL     1      14.518   3.073   1.745  0.00  0.00    -0.251 OA
ATOM     22  C   UNL     1      14.853   4.000   1.024  0.00  0.00    +0.305 C 
BRANCH  22   3
ATOM      3  O   UNL     1      16.137   4.249   0.662  0.00  0.00    -0.481 OA
ATOM     36  H   UNL     1      16.397   5.178   0.847  0.00  0.00    +0.295 HD
ENDBRANCH  22   3
ENDBRANCH  16  22
ENDBRANCH  10  16
BRANCH  19  23
ATOM     23  C   UNL     1       9.503   7.766   4.013  0.00  0.00    +0.324 C 
BRANCH  23   5
ATOM      5  O   UNL     1       8.524   7.051   4.727  0.00  0.00    -0.483 OA
BRANCH   5  29
ATOM     29  C   UNL     1       8.835   6.660   6.010  0.00  0.00    +0.121 A 
ATOM     31  C   UNL     1       8.591   7.522   7.080  0.00  0.00    +0.045 A 
ATOM     32  C   UNL     1       9.393   5.403   6.240  0.00  0.00    +0.045 A 
ATOM     33  C   UNL     1       8.907   7.125   8.380  0.00  0.00    +0.004 A 
ATOM     34  C   UNL     1       9.708   5.007   7.540  0.00  0.00    +0.004 A 
ATOM     35  C   UNL     1       9.465   5.868   8.610  0.00  0.00    +0.000 A 
ENDBRANCH   5  29
ENDBRANCH  23   5
ENDBRANCH  19  23
TORSDOF 10
ENDMDL
MODEL 9
REMARK VINA RESULT:      -6.0     20.205     22.425
REMARK  Name = 28959913
REMARK  10 active torsions:
REMARK  status: ('A' for Active; 'I' for Inactive)
REMARK    1  A    between atoms: O_3  and  C_22
REMARK    2  A    between atoms: O_5  and  C_23
REMARK    3  A    between atoms: O_5  and  C_29
REMARK    4  A    between atoms: N_7  and  C_15
REMARK    5  A    between atoms: N_8  and  C_24
REMARK    6  A    between atoms: C_9  and  C_13
REMARK    7  A    between atoms: C_10  and  C_16
REMARK    8  A    between atoms: C_13  and  C_15
REMARK    9  A    between atoms: C_16  and  C_22
REMARK   10  A    between atoms: C_19  and  C_23
REMARK                            x       y       z     vdW  Elec       q    Type
REMARK                         _______ _______ _______ _____ _____    ______ ____
ROOT
ATOM      2  O   UNL     1     -18.258   4.270  27.398  0.00  0.00    -0.272 OA
ATOM      6  N   UNL     1     -17.752   3.714  25.199  0.00  0.00    -0.298 N 
ATOM      9  C   UNL     1     -16.624   4.176  23.034  0.00  0.00    +0.011 C 
ATOM     10  C   UNL     1     -17.992   4.623  22.459  0.00  0.00    +0.006 C 
ATOM     11  C   UNL     1     -16.842   3.173  24.182  0.00  0.00    +0.111 C 
ATOM     12  C   UNL     1     -18.931   5.134  23.564  0.00  0.00    +0.023 C 
ATOM     14  C   UNL     1     -19.065   4.116  24.694  0.00  0.00    +0.108 C 
ATOM     19  C   UNL     1     -17.464   3.835  26.558  0.00  0.00    +0.253 C 
ENDROOT
BRANCH   9  13
ATOM     13  C   UNL     1     -15.735   5.335  23.501  0.00  0.00    +0.020 C 
BRANCH  13  15
ATOM     15  C   UNL     1     -14.287   5.108  23.094  0.00  0.00    +0.085 C 
BRANCH  15   7
ATOM      7  N   UNL     1     -13.930   6.012  22.001  0.00  0.00    -0.299 NA
ATOM      8  N   UNL     1     -12.492   8.128  20.732  0.00  0.00    -0.327 N 
ATOM     17  C   UNL     1     -12.523   5.832  21.623  0.00  0.00    +0.103 C 
ATOM     18  C   UNL     1     -14.169   7.408  22.389  0.00  0.00    +0.103 C 
ATOM     20  C   UNL     1     -12.152   6.732  20.441  0.00  0.00    +0.120 C 
ATOM     21  C   UNL     1     -13.853   8.360  21.233  0.00  0.00    +0.120 C 
BRANCH   8  24
ATOM      1  F   UNL     1     -10.038  12.194  17.901  0.00  0.00    -0.205 F 
ATOM     24  C   UNL     1     -11.871   9.158  20.016  0.00  0.00    +0.030 A 
ATOM     25  C   UNL     1     -10.700   8.902  19.300  0.00  0.00    +0.026 A 
ATOM     26  C   UNL     1     -12.422  10.438  20.016  0.00  0.00    +0.026 A 
ATOM     27  C   UNL     1     -10.082   9.927  18.586  0.00  0.00    +0.040 A 
ATOM     28  C   UNL     1     -11.804  11.464  19.301  0.00  0.00    +0.040 A 
ATOM     30  C   UNL     1     -10.633  11.209  18.587  0.00  0.00    +0.124 A 
ENDBRANCH   8  24
ENDBRANCH  15   7
ENDBRANCH  13  15
ENDBRANCH   9  13
BRANCH  10  16
ATOM     16  C   UNL     1     -17.865   5.655  21.339  0.00  0.00    +0.124 C 
BRANCH  16  22
ATOM      4  O   UNL     1     -17.498   4.097  19.501  0.00  0.00    -0.251 OA
ATOM     22  C   UNL     1     -17.166   5.087  20.136  0.00  0.00    +0.305 C 
BRANCH  22   3
ATOM      3  O   UNL     1     -16.081   5.847  19.835  0.00  0.00    -0.481 OA
ATOM     36  H   UNL     1     -15.277   5.538  20.306  0.00  0.00    +0.295 HD
ENDBRANCH  22   3
ENDBRANCH  16  22
ENDBRANCH  10  16
BRANCH  19  23
ATOM     23  C   UNL     1     -16.089   3.403  26.999  0.00  0.00    +0.324 C 
BRANCH  23   5
ATOM      5  O   UNL     1     -16.026   3.617  28.388  0.00  0.00    -0.483 OA
BRANCH   5  29
ATOM     29  C   UNL     1     -15.478   2.615  29.158  0.00  0.00    +0.121 A 
ATOM     31  C   UNL     1     -14.355   2.875  29.944  0.00  0.00    +0.045 A 
ATOM     32  C   UNL     1     -16.045   1.342  29.151  0.00  0.00    +0.045 A 
ATOM     33  C   UNL     1     -13.801   1.860  30.725  0.00  0.00    +0.004 A 
ATOM     34  C   UNL     1     -15.491   0.326  29.931  0.00  0.00    +0.004 A 
ATOM     35  C   UNL     1     -14.368   0.586  30.718  0.00  0.00    +0.000 A 
ENDBRANCH   5  29
ENDBRANCH  23   5
ENDBRANCH  19  23
TORSDOF 10
ENDMDL
MODEL 10
REMARK VINA RESULT:      -5.9      4.968      7.760
REMARK  Name = 28959913
REMARK  10 active torsions:
REMARK  status: ('A' for Active; 'I' for Inactive)
REMARK    1  A    between atoms: O_3  and  C_22
REMARK    2  A    between atoms: O_5  and  C_23
REMARK    3  A    between atoms: O_5  and  C_29
REMARK    4  A    between atoms: N_7  and  C_15
REMARK    5  A    between atoms: N_8  and  C_24
REMARK    6  A    between atoms: C_9  and  C_13
REMARK    7  A    between atoms: C_10  and  C_16
REMARK    8  A    between atoms: C_13  and  C_15
REMARK    9  A    between atoms: C_16  and  C_22
REMARK   10  A    between atoms: C_19  and  C_23
REMARK                            x       y       z     vdW  Elec       q    Type
REMARK                         _______ _______ _______ _____ _____    ______ ____
ROOT
ATOM      2  O   UNL     1      -8.042 -14.440  17.757  0.00  0.00    -0.272 OA
ATOM      6  N   UNL     1      -6.389 -12.854  18.146  0.00  0.00    -0.298 N 
ATOM      9  C   UNL     1      -5.294 -10.677  17.662  0.00  0.00    +0.011 C 
ATOM     10  C   UNL     1      -4.182 -11.447  16.907  0.00  0.00    +0.006 C 
ATOM     11  C   UNL     1      -5.929 -11.587  18.729  0.00  0.00    +0.111 C 
ATOM     12  C   UNL     1      -4.694 -12.788  16.357  0.00  0.00    +0.023 C 
ATOM     14  C   UNL     1      -5.354 -13.621  17.454  0.00  0.00    +0.108 C 
ATOM     19  C   UNL     1      -7.687 -13.358  18.234  0.00  0.00    +0.253 C 
ENDROOT
BRANCH   9  13
ATOM     13  C   UNL     1      -6.379 -10.093  16.747  0.00  0.00    +0.020 C 
BRANCH  13  15
ATOM     15  C   UNL     1      -7.534  -9.533  17.563  0.00  0.00    +0.085 C 
BRANCH  15   7
ATOM      7  N   UNL     1      -8.432  -8.771  16.695  0.00  0.00    -0.299 NA
ATOM      8  N   UNL     1     -10.924  -8.092  15.475  0.00  0.00    -0.327 N 
ATOM     17  C   UNL     1      -9.498  -8.141  17.484  0.00  0.00    +0.103 C 
ATOM     18  C   UNL     1      -9.018  -9.643  15.669  0.00  0.00    +0.103 C 
ATOM     20  C   UNL     1     -10.413  -7.294  16.594  0.00  0.00    +0.120 C 
ATOM     21  C   UNL     1      -9.915  -8.846  14.719  0.00  0.00    +0.120 C 
BRANCH   8  24
ATOM      1  F   UNL     1     -15.489  -6.473  12.810  0.00  0.00    -0.205 F 
ATOM     24  C   UNL     1     -12.080  -7.682  14.801  0.00  0.00    +0.030 A 
ATOM     25  C   UNL     1     -12.214  -7.929  13.434  0.00  0.00    +0.026 A 
ATOM     26  C   UNL     1     -13.097  -7.028  15.495  0.00  0.00    +0.026 A 
ATOM     27  C   UNL     1     -13.365  -7.521  12.762  0.00  0.00    +0.040 A 
ATOM     28  C   UNL     1     -14.249  -6.620  14.822  0.00  0.00    +0.040 A 
ATOM     30  C   UNL     1     -14.383  -6.866  13.456  0.00  0.00    +0.124 A 
ENDBRANCH   8  24
ENDBRANCH  15   7
ENDBRANCH  13  15
ENDBRANCH   9  13
BRANCH  10  16
ATOM     16  C   UNL     1      -3.528 -10.624  15.797  0.00  0.00    +0.124 C 
BRANCH  16  22
ATOM      4  O   UNL     1      -1.622 -11.368  14.471  0.00  0.00    -0.251 OA
ATOM     22  C   UNL     1      -2.109 -11.055  15.548  0.00  0.00    +0.305 C 
BRANCH  22   3
ATOM      3  O   UNL     1      -1.417 -11.046  16.716  0.00  0.00    -0.481 OA
ATOM     36  H   UNL     1      -0.454 -11.172  16.571  0.00  0.00    +0.295 HD
ENDBRANCH  22   3
ENDBRANCH  16  22
ENDBRANCH  10  16
BRANCH  19  23
ATOM     23  C   UNL     1      -8.696 -12.506  18.960  0.00  0.00    +0.324 C 
BRANCH  23   5
ATOM      5  O   UNL     1      -9.765 -12.302  18.070  0.00  0.00    -0.483 OA
BRANCH   5  29
ATOM     29  C   UNL     1     -10.737 -11.400  18.444  0.00  0.00    +0.121 A 
ATOM     31  C   UNL     1     -10.712 -10.838  19.720  0.00  0.00    +0.045 A 
ATOM     32  C   UNL     1     -11.745 -11.050  17.547  0.00  0.00    +0.045 A 
ATOM     33  C   UNL     1     -11.696  -9.924  20.099  0.00  0.00    +0.004 A 
ATOM     34  C   UNL     1     -12.730 -10.136  17.926  0.00  0.00    +0.004 A 
ATOM     35  C   UNL     1     -12.704  -9.574  19.202  0.00  0.00    +0.000 A 
ENDBRANCH   5  29
ENDBRANCH  23   5
ENDBRANCH  19  23
TORSDOF 10
ENDMDL
