MODEL 1
REMARK VINA RESULT:      -6.8      0.000      0.000
REMARK  Name = 40780422
REMARK  9 active torsions:
REMARK  status: ('A' for Active; 'I' for Inactive)
REMARK    1  A    between atoms: N_4  and  C_11
REMARK    2  A    between atoms: N_5  and  C_20
REMARK    3  A    between atoms: N_7  and  C_21
REMARK    4  A    between atoms: N_8  and  C_22
REMARK    5  A    between atoms: C_9  and  C_12
REMARK    6  A    between atoms: C_15  and  C_17
REMARK    7  A    between atoms: C_16  and  C_18
REMARK    8  A    between atoms: C_21  and  C_25
REMARK    9  A    between atoms: C_21  and  C_26
REMARK                            x       y       z     vdW  Elec       q    Type
REMARK                         _______ _______ _______ _____ _____    ______ ____
ROOT
ATOM      5  N   UNL     1      22.400   5.345  20.965  0.00  0.00    -0.234 N 
ATOM      6  N   UNL     1      22.390   6.687  20.888  0.00  0.00    -0.171 NA
ATOM     12  C   UNL     1      20.275   5.829  20.831  0.00  0.00    +0.003 A 
ATOM     15  C   UNL     1      21.159   4.782  20.934  0.00  0.00    +0.046 A 
ATOM     16  C   UNL     1      21.089   6.976  20.807  0.00  0.00    +0.064 A 
ATOM     17  C   UNL     1      20.927   3.325  21.003  0.00  0.00    +0.066 C 
ATOM     18  C   UNL     1      20.664   8.383  20.705  0.00  0.00    +0.068 C 
ENDROOT
BRANCH   5  20
ATOM     20  C   UNL     1      23.616   4.667  21.065  0.00  0.00    +0.096 A 
ATOM     22  C   UNL     1      24.146   4.308  22.304  0.00  0.00    +0.151 A 
ATOM     23  C   UNL     1      24.304   4.351  19.893  0.00  0.00    +0.030 A 
ATOM     24  C   UNL     1      25.365   3.633  22.371  0.00  0.00    +0.035 A 
ATOM     27  C   UNL     1      25.522   3.676  19.961  0.00  0.00    +0.002 A 
ATOM     28  C   UNL     1      26.053   3.317  21.200  0.00  0.00    +0.002 A 
BRANCH  22   8
ATOM      2  O   UNL     1      23.714   5.708  24.084  0.00  0.00    -0.126 OA
ATOM      3  O   UNL     1      22.650   3.790  23.980  0.00  0.00    -0.126 OA
ATOM      8  N   UNL     1      23.470   4.618  23.518  0.00  0.00    +0.059 N 
ENDBRANCH  22   8
ENDBRANCH   5  20
BRANCH  12   9
ATOM      9  C   UNL     1      18.766   5.759  20.758  0.00  0.00    +0.047 C 
ATOM     10  C   UNL     1      18.077   7.101  21.080  0.00  0.00    +0.039 C 
ATOM     11  C   UNL     1      16.830   7.156  20.189  0.00  0.00    +0.098 C 
ATOM     13  C   UNL     1      18.217   5.432  19.399  0.00  0.00    -0.021 C 
ATOM     14  C   UNL     1      17.161   6.193  19.096  0.00  0.00    -0.009 C 
BRANCH  11   4
ATOM      1  O   UNL     1      14.098   7.802  19.517  0.00  0.00    -0.253 OA
ATOM      4  N   UNL     1      15.642   6.711  20.867  0.00  0.00    -0.293 N 
ATOM      7  N   UNL     1      13.388   6.502  21.304  0.00  0.00    -0.297 N 
ATOM     19  C   UNL     1      14.352   7.073  20.475  0.00  0.00    +0.300 C 
ATOM     29  H   UNL     1      15.740   6.142  21.703  0.00  0.00    +0.151 HD
ATOM     30  H   UNL     1      13.693   5.851  22.021  0.00  0.00    +0.150 HD
BRANCH   7  21
ATOM     21  C   UNL     1      11.972   6.716  21.119  0.00  0.00    +0.068 C 
ATOM     25  C   UNL     1      11.508   7.916  21.934  0.00  0.00    +0.027 C 
ATOM     26  C   UNL     1      11.190   5.461  21.488  0.00  0.00    +0.027 C 
ENDBRANCH   7  21
ENDBRANCH  11   4
ENDBRANCH  12   9
TORSDOF 5
ENDMDL
MODEL 2
REMARK VINA RESULT:      -6.7     31.087     34.190
REMARK  Name = 40780422
REMARK  9 active torsions:
REMARK  status: ('A' for Active; 'I' for Inactive)
REMARK    1  A    between atoms: N_4  and  C_11
REMARK    2  A    between atoms: N_5  and  C_20
REMARK    3  A    between atoms: N_7  and  C_21
REMARK    4  A    between atoms: N_8  and  C_22
REMARK    5  A    between atoms: C_9  and  C_12
REMARK    6  A    between atoms: C_15  and  C_17
REMARK    7  A    between atoms: C_16  and  C_18
REMARK    8  A    between atoms: C_21  and  C_25
REMARK    9  A    between atoms: C_21  and  C_26
REMARK                            x       y       z     vdW  Elec       q    Type
REMARK                         _______ _______ _______ _____ _____    ______ ____
ROOT
ATOM      5  N   UNL     1     -13.062   8.225  19.264  0.00  0.00    -0.234 N 
ATOM      6  N   UNL     1     -14.341   8.435  18.911  0.00  0.00    -0.171 NA
ATOM     12  C   UNL     1     -14.182   6.963  20.650  0.00  0.00    +0.003 A 
ATOM     15  C   UNL     1     -12.912   7.352  20.300  0.00  0.00    +0.046 A 
ATOM     16  C   UNL     1     -15.021   7.661  19.761  0.00  0.00    +0.064 A 
ATOM     17  C   UNL     1     -11.597   6.970  20.856  0.00  0.00    +0.066 C 
ATOM     18  C   UNL     1     -16.492   7.619  19.686  0.00  0.00    +0.068 C 
ENDROOT
BRANCH   5  20
ATOM     20  C   UNL     1     -12.038   8.884  18.580  0.00  0.00    +0.096 A 
ATOM     22  C   UNL     1     -11.615  10.157  18.959  0.00  0.00    +0.151 A 
ATOM     23  C   UNL     1     -11.438   8.242  17.496  0.00  0.00    +0.030 A 
ATOM     24  C   UNL     1     -10.592  10.790  18.254  0.00  0.00    +0.035 A 
ATOM     27  C   UNL     1     -10.415   8.875  16.791  0.00  0.00    +0.002 A 
ATOM     28  C   UNL     1      -9.991  10.149  17.169  0.00  0.00    +0.002 A 
BRANCH  22   8
ATOM      2  O   UNL     1     -11.695  10.712  21.195  0.00  0.00    -0.126 OA
ATOM      3  O   UNL     1     -13.222  11.545  19.857  0.00  0.00    -0.126 OA
ATOM      8  N   UNL     1     -12.208  10.839  20.060  0.00  0.00    +0.059 N 
ENDBRANCH  22   8
ENDBRANCH   5  20
BRANCH  12   9
ATOM      9  C   UNL     1     -14.584   6.000  21.744  0.00  0.00    +0.047 C 
ATOM     10  C   UNL     1     -15.109   6.702  23.013  0.00  0.00    +0.039 C 
ATOM     11  C   UNL     1     -16.199   5.784  23.580  0.00  0.00    +0.098 C 
ATOM     13  C   UNL     1     -15.721   5.085  21.388  0.00  0.00    -0.021 C 
ATOM     14  C   UNL     1     -16.595   4.968  22.393  0.00  0.00    -0.009 C 
BRANCH  11   4
ATOM      1  O   UNL     1     -17.703   4.679  25.781  0.00  0.00    -0.253 OA
ATOM      4  N   UNL     1     -15.710   4.911  24.612  0.00  0.00    -0.293 N 
ATOM      7  N   UNL     1     -15.782   3.598  26.505  0.00  0.00    -0.297 N 
ATOM     19  C   UNL     1     -16.508   4.420  25.647  0.00  0.00    +0.300 C 
ATOM     29  H   UNL     1     -14.722   4.672  24.623  0.00  0.00    +0.151 HD
ATOM     30  H   UNL     1     -14.819   3.381  26.266  0.00  0.00    +0.150 HD
BRANCH   7  21
ATOM     21  C   UNL     1     -16.369   2.959  27.659  0.00  0.00    +0.068 C 
ATOM     25  C   UNL     1     -15.476   3.146  28.879  0.00  0.00    +0.027 C 
ATOM     26  C   UNL     1     -16.624   1.483  27.382  0.00  0.00    +0.027 C 
ENDBRANCH   7  21
ENDBRANCH  11   4
ENDBRANCH  12   9
TORSDOF 5
ENDMDL
MODEL 3
REMARK VINA RESULT:      -6.7      2.123      9.614
REMARK  Name = 40780422
REMARK  9 active torsions:
REMARK  status: ('A' for Active; 'I' for Inactive)
REMARK    1  A    between atoms: N_4  and  C_11
REMARK    2  A    between atoms: N_5  and  C_20
REMARK    3  A    between atoms: N_7  and  C_21
REMARK    4  A    between atoms: N_8  and  C_22
REMARK    5  A    between atoms: C_9  and  C_12
REMARK    6  A    between atoms: C_15  and  C_17
REMARK    7  A    between atoms: C_16  and  C_18
REMARK    8  A    between atoms: C_21  and  C_25
REMARK    9  A    between atoms: C_21  and  C_26
REMARK                            x       y       z     vdW  Elec       q    Type
REMARK                         _______ _______ _______ _____ _____    ______ ____
ROOT
ATOM      5  N   UNL     1      15.196   8.701  20.741  0.00  0.00    -0.234 N 
ATOM      6  N   UNL     1      15.911   9.838  20.692  0.00  0.00    -0.171 NA
ATOM     12  C   UNL     1      17.224   8.044  21.212  0.00  0.00    +0.003 A 
ATOM     15  C   UNL     1      15.935   7.598  21.049  0.00  0.00    +0.046 A 
ATOM     16  C   UNL     1      17.149   9.430  20.981  0.00  0.00    +0.064 A 
ATOM     17  C   UNL     1      15.361   6.241  21.158  0.00  0.00    +0.066 C 
ATOM     18  C   UNL     1      18.244  10.414  21.027  0.00  0.00    +0.068 C 
ENDROOT
BRANCH   5  20
ATOM     20  C   UNL     1      13.824   8.735  20.485  0.00  0.00    +0.096 A 
ATOM     22  C   UNL     1      13.325   8.637  19.187  0.00  0.00    +0.151 A 
ATOM     23  C   UNL     1      12.947   8.872  21.561  0.00  0.00    +0.030 A 
ATOM     24  C   UNL     1      11.949   8.677  18.964  0.00  0.00    +0.035 A 
ATOM     27  C   UNL     1      11.571   8.912  21.339  0.00  0.00    +0.002 A 
ATOM     28  C   UNL     1      11.071   8.815  20.039  0.00  0.00    +0.002 A 
BRANCH  22   8
ATOM      2  O   UNL     1      14.572   9.529  17.465  0.00  0.00    -0.126 OA
ATOM      3  O   UNL     1      14.554   7.349  17.722  0.00  0.00    -0.126 OA
ATOM      8  N   UNL     1      14.194   8.498  18.067  0.00  0.00    +0.059 N 
ENDBRANCH  22   8
ENDBRANCH   5  20
BRANCH  12   9
ATOM      9  C   UNL     1      18.446   7.226  21.563  0.00  0.00    +0.047 C 
ATOM     10  C   UNL     1      18.974   6.381  20.385  0.00  0.00    +0.039 C 
ATOM     11  C   UNL     1      20.500   6.352  20.541  0.00  0.00    +0.098 C 
ATOM     13  C   UNL     1      19.653   8.032  21.948  0.00  0.00    -0.021 C 
ATOM     14  C   UNL     1      20.769   7.550  21.391  0.00  0.00    -0.009 C 
BRANCH  11   4
ATOM      1  O   UNL     1      23.162   5.241  20.466  0.00  0.00    -0.253 OA
ATOM      4  N   UNL     1      20.967   5.174  21.221  0.00  0.00    -0.293 N 
ATOM      7  N   UNL     1      22.458   3.548  21.888  0.00  0.00    -0.297 N 
ATOM     19  C   UNL     1      22.278   4.703  21.130  0.00  0.00    +0.300 C 
ATOM     29  H   UNL     1      20.303   4.624  21.760  0.00  0.00    +0.151 HD
ATOM     30  H   UNL     1      21.688   3.223  22.464  0.00  0.00    +0.150 HD
BRANCH   7  21
ATOM     21  C   UNL     1      23.723   2.855  21.969  0.00  0.00    +0.068 C 
ATOM     25  C   UNL     1      23.825   1.811  20.865  0.00  0.00    +0.027 C 
ATOM     26  C   UNL     1      23.899   2.224  23.344  0.00  0.00    +0.027 C 
ENDBRANCH   7  21
ENDBRANCH  11   4
ENDBRANCH  12   9
TORSDOF 5
ENDMDL
MODEL 4
REMARK VINA RESULT:      -6.7      2.382      9.460
REMARK  Name = 40780422
REMARK  9 active torsions:
REMARK  status: ('A' for Active; 'I' for Inactive)
REMARK    1  A    between atoms: N_4  and  C_11
REMARK    2  A    between atoms: N_5  and  C_20
REMARK    3  A    between atoms: N_7  and  C_21
REMARK    4  A    between atoms: N_8  and  C_22
REMARK    5  A    between atoms: C_9  and  C_12
REMARK    6  A    between atoms: C_15  and  C_17
REMARK    7  A    between atoms: C_16  and  C_18
REMARK    8  A    between atoms: C_21  and  C_25
REMARK    9  A    between atoms: C_21  and  C_26
REMARK                            x       y       z     vdW  Elec       q    Type
REMARK                         _______ _______ _______ _____ _____    ______ ____
ROOT
ATOM      5  N   UNL     1      15.395   8.636  19.854  0.00  0.00    -0.234 N 
ATOM      6  N   UNL     1      15.833   9.721  20.515  0.00  0.00    -0.171 NA
ATOM     12  C   UNL     1      17.203   7.926  20.850  0.00  0.00    +0.003 A 
ATOM     15  C   UNL     1      16.180   7.534  20.022  0.00  0.00    +0.046 A 
ATOM     16  C   UNL     1      16.938   9.281  21.121  0.00  0.00    +0.064 A 
ATOM     17  C   UNL     1      15.892   6.229  19.392  0.00  0.00    +0.066 C 
ATOM     18  C   UNL     1      17.719  10.204  21.963  0.00  0.00    +0.068 C 
ENDROOT
BRANCH   5  20
ATOM     20  C   UNL     1      14.232   8.716  19.086  0.00  0.00    +0.096 A 
ATOM     22  C   UNL     1      12.985   8.391  19.621  0.00  0.00    +0.151 A 
ATOM     23  C   UNL     1      14.335   9.128  17.758  0.00  0.00    +0.030 A 
ATOM     24  C   UNL     1      11.842   8.478  18.828  0.00  0.00    +0.035 A 
ATOM     27  C   UNL     1      13.191   9.216  16.964  0.00  0.00    +0.002 A 
ATOM     28  C   UNL     1      11.944   8.891  17.499  0.00  0.00    +0.002 A 
BRANCH  22   8
ATOM      2  O   UNL     1      12.818   6.738  21.219  0.00  0.00    -0.126 OA
ATOM      3  O   UNL     1      12.761   8.832  21.873  0.00  0.00    -0.126 OA
ATOM      8  N   UNL     1      12.847   7.965  20.973  0.00  0.00    +0.059 N 
ENDBRANCH  22   8
ENDBRANCH   5  20
BRANCH  12   9
ATOM      9  C   UNL     1      18.354   7.086  21.356  0.00  0.00    +0.047 C 
ATOM     10  C   UNL     1      19.136   6.380  20.229  0.00  0.00    +0.039 C 
ATOM     11  C   UNL     1      20.599   6.349  20.689  0.00  0.00    +0.098 C 
ATOM     13  C   UNL     1      19.432   7.856  22.062  0.00  0.00    -0.021 C 
ATOM     14  C   UNL     1      20.652   7.448  21.698  0.00  0.00    -0.009 C 
BRANCH  11   4
ATOM      1  O   UNL     1      23.233   5.185  20.874  0.00  0.00    -0.253 OA
ATOM      4  N   UNL     1      20.956   5.108  21.323  0.00  0.00    -0.293 N 
ATOM      7  N   UNL     1      22.323   3.397  22.041  0.00  0.00    -0.297 N 
ATOM     19  C   UNL     1      22.261   4.614  21.367  0.00  0.00    +0.300 C 
ATOM     29  H   UNL     1      20.219   4.532  21.720  0.00  0.00    +0.151 HD
ATOM     30  H   UNL     1      21.478   3.044  22.480  0.00  0.00    +0.150 HD
BRANCH   7  21
ATOM     21  C   UNL     1      23.557   2.669  22.229  0.00  0.00    +0.068 C 
ATOM     25  C   UNL     1      23.809   1.742  21.047  0.00  0.00    +0.027 C 
ATOM     26  C   UNL     1      23.526   1.896  23.541  0.00  0.00    +0.027 C 
ENDBRANCH   7  21
ENDBRANCH  11   4
ENDBRANCH  12   9
TORSDOF 5
ENDMDL
MODEL 5
REMARK VINA RESULT:      -6.4     29.856     33.538
REMARK  Name = 40780422
REMARK  9 active torsions:
REMARK  status: ('A' for Active; 'I' for Inactive)
REMARK    1  A    between atoms: N_4  and  C_11
REMARK    2  A    between atoms: N_5  and  C_20
REMARK    3  A    between atoms: N_7  and  C_21
REMARK    4  A    between atoms: N_8  and  C_22
REMARK    5  A    between atoms: C_9  and  C_12
REMARK    6  A    between atoms: C_15  and  C_17
REMARK    7  A    between atoms: C_16  and  C_18
REMARK    8  A    between atoms: C_21  and  C_25
REMARK    9  A    between atoms: C_21  and  C_26
REMARK                            x       y       z     vdW  Elec       q    Type
REMARK                         _______ _______ _______ _____ _____    ______ ____
ROOT
ATOM      5  N   UNL     1      -9.533 -11.097  19.312  0.00  0.00    -0.234 N 
ATOM      6  N   UNL     1      -8.428 -10.967  20.067  0.00  0.00    -0.171 NA
ATOM     12  C   UNL     1      -7.912 -11.148  17.850  0.00  0.00    +0.003 A 
ATOM     15  C   UNL     1      -9.278 -11.209  17.978  0.00  0.00    +0.046 A 
ATOM     16  C   UNL     1      -7.442 -10.998  19.168  0.00  0.00    +0.064 A 
ATOM     17  C   UNL     1     -10.338 -11.363  16.960  0.00  0.00    +0.066 C 
ATOM     18  C   UNL     1      -6.044 -10.882  19.621  0.00  0.00    +0.068 C 
ENDROOT
BRANCH   5  20
ATOM     20  C   UNL     1     -10.789 -11.106  19.920  0.00  0.00    +0.096 A 
ATOM     22  C   UNL     1     -11.371 -12.293  20.365  0.00  0.00    +0.151 A 
ATOM     23  C   UNL     1     -11.465  -9.896  20.077  0.00  0.00    +0.030 A 
ATOM     24  C   UNL     1     -12.629 -12.269  20.966  0.00  0.00    +0.035 A 
ATOM     27  C   UNL     1     -12.723  -9.872  20.678  0.00  0.00    +0.002 A 
ATOM     28  C   UNL     1     -13.306 -11.059  21.123  0.00  0.00    +0.002 A 
BRANCH  22   8
ATOM      2  O   UNL     1     -10.870 -14.192  19.159  0.00  0.00    -0.126 OA
ATOM      3  O   UNL     1      -9.984 -13.956  21.153  0.00  0.00    -0.126 OA
ATOM      8  N   UNL     1     -10.709 -13.544  20.218  0.00  0.00    +0.059 N 
ENDBRANCH  22   8
ENDBRANCH   5  20
BRANCH  12   9
ATOM      9  C   UNL     1      -7.100 -11.225  16.577  0.00  0.00    +0.047 C 
ATOM     10  C   UNL     1      -6.290  -9.944  16.291  0.00  0.00    +0.039 C 
ATOM     11  C   UNL     1      -4.990 -10.409  15.623  0.00  0.00    +0.098 C 
ATOM     13  C   UNL     1      -6.036 -12.285  16.574  0.00  0.00    -0.021 C 
ATOM     14  C   UNL     1      -4.891 -11.837  16.049  0.00  0.00    -0.009 C 
BRANCH  11   4
ATOM      1  O   UNL     1      -2.793 -10.704  13.775  0.00  0.00    -0.253 OA
ATOM      4  N   UNL     1      -5.050 -10.348  14.187  0.00  0.00    -0.293 N 
ATOM      7  N   UNL     1      -4.276 -10.398  12.017  0.00  0.00    -0.297 N 
ATOM     19  C   UNL     1      -3.934 -10.501  13.363  0.00  0.00    +0.300 C 
ATOM     29  H   UNL     1      -5.940 -10.135  13.743  0.00  0.00    +0.151 HD
ATOM     30  H   UNL     1      -5.257 -10.307  11.773  0.00  0.00    +0.150 HD
BRANCH   7  21
ATOM     21  C   UNL     1      -3.307 -10.518  10.952  0.00  0.00    +0.068 C 
ATOM     25  C   UNL     1      -3.259  -9.235  10.133  0.00  0.00    +0.027 C 
ATOM     26  C   UNL     1      -3.624 -11.723  10.075  0.00  0.00    +0.027 C 
ENDBRANCH   7  21
ENDBRANCH  11   4
ENDBRANCH  12   9
TORSDOF 5
ENDMDL
MODEL 6
REMARK VINA RESULT:      -6.2     29.116     31.393
REMARK  Name = 40780422
REMARK  9 active torsions:
REMARK  status: ('A' for Active; 'I' for Inactive)
REMARK    1  A    between atoms: N_4  and  C_11
REMARK    2  A    between atoms: N_5  and  C_20
REMARK    3  A    between atoms: N_7  and  C_21
REMARK    4  A    between atoms: N_8  and  C_22
REMARK    5  A    between atoms: C_9  and  C_12
REMARK    6  A    between atoms: C_15  and  C_17
REMARK    7  A    between atoms: C_16  and  C_18
REMARK    8  A    between atoms: C_21  and  C_25
REMARK    9  A    between atoms: C_21  and  C_26
REMARK                            x       y       z     vdW  Elec       q    Type
REMARK                         _______ _______ _______ _____ _____    ______ ____
ROOT
ATOM      5  N   UNL     1      -4.262 -10.955  14.448  0.00  0.00    -0.234 N 
ATOM      6  N   UNL     1      -3.000 -10.810  14.011  0.00  0.00    -0.171 NA
ATOM     12  C   UNL     1      -4.514 -10.395  12.353  0.00  0.00    +0.003 A 
ATOM     15  C   UNL     1      -5.207 -10.719  13.494  0.00  0.00    +0.046 A 
ATOM     16  C   UNL     1      -3.160 -10.468  12.731  0.00  0.00    +0.064 A 
ATOM     17  C   UNL     1      -6.659 -10.819  13.747  0.00  0.00    +0.066 C 
ATOM     18  C   UNL     1      -1.974 -10.217  11.893  0.00  0.00    +0.068 C 
ENDROOT
BRANCH   5  20
ATOM     20  C   UNL     1      -4.498 -11.317  15.776  0.00  0.00    +0.096 A 
ATOM     22  C   UNL     1      -4.658 -12.652  16.146  0.00  0.00    +0.151 A 
ATOM     23  C   UNL     1      -4.575 -10.311  16.739  0.00  0.00    +0.030 A 
ATOM     24  C   UNL     1      -4.894 -12.981  17.481  0.00  0.00    +0.035 A 
ATOM     27  C   UNL     1      -4.811 -10.640  18.074  0.00  0.00    +0.002 A 
ATOM     28  C   UNL     1      -4.972 -11.976  18.445  0.00  0.00    +0.002 A 
BRANCH  22   8
ATOM      2  O   UNL     1      -5.649 -14.134  14.686  0.00  0.00    -0.126 OA
ATOM      3  O   UNL     1      -3.462 -14.157  14.874  0.00  0.00    -0.126 OA
ATOM      8  N   UNL     1      -4.586 -13.701  15.187  0.00  0.00    +0.059 N 
ENDBRANCH  22   8
ENDBRANCH   5  20
BRANCH  12   9
ATOM      9  C   UNL     1      -5.082 -10.043  10.996  0.00  0.00    +0.047 C 
ATOM     10  C   UNL     1      -5.761  -8.659  10.960  0.00  0.00    +0.039 C 
ATOM     11  C   UNL     1      -5.489  -8.094   9.560  0.00  0.00    +0.098 C 
ATOM     13  C   UNL     1      -4.064  -9.931   9.898  0.00  0.00    -0.021 C 
ATOM     14  C   UNL     1      -4.292  -8.871   9.117  0.00  0.00    -0.009 C 
BRANCH  11   4
ATOM      1  O   UNL     1      -7.270  -6.128   8.426  0.00  0.00    -0.253 OA
ATOM      4  N   UNL     1      -6.572  -8.331   8.644  0.00  0.00    -0.293 N 
ATOM      7  N   UNL     1      -8.357  -7.826   7.277  0.00  0.00    -0.297 N 
ATOM     19  C   UNL     1      -7.390  -7.319   8.142  0.00  0.00    +0.300 C 
ATOM     29  H   UNL     1      -6.789  -9.289   8.382  0.00  0.00    +0.151 HD
ATOM     30  H   UNL     1      -8.326  -8.814   7.044  0.00  0.00    +0.150 HD
BRANCH   7  21
ATOM     21  C   UNL     1      -9.333  -6.990   6.618  0.00  0.00    +0.068 C 
ATOM     25  C   UNL     1     -10.583  -6.858   7.478  0.00  0.00    +0.027 C 
ATOM     26  C   UNL     1      -9.666  -7.544   5.238  0.00  0.00    +0.027 C 
ENDBRANCH   7  21
ENDBRANCH  11   4
ENDBRANCH  12   9
TORSDOF 5
ENDMDL
MODEL 7
REMARK VINA RESULT:      -6.2     28.283     31.659
REMARK  Name = 40780422
REMARK  9 active torsions:
REMARK  status: ('A' for Active; 'I' for Inactive)
REMARK    1  A    between atoms: N_4  and  C_11
REMARK    2  A    between atoms: N_5  and  C_20
REMARK    3  A    between atoms: N_7  and  C_21
REMARK    4  A    between atoms: N_8  and  C_22
REMARK    5  A    between atoms: C_9  and  C_12
REMARK    6  A    between atoms: C_15  and  C_17
REMARK    7  A    between atoms: C_16  and  C_18
REMARK    8  A    between atoms: C_21  and  C_25
REMARK    9  A    between atoms: C_21  and  C_26
REMARK                            x       y       z     vdW  Elec       q    Type
REMARK                         _______ _______ _______ _____ _____    ______ ____
ROOT
ATOM      5  N   UNL     1      -3.662 -10.748  13.508  0.00  0.00    -0.234 N 
ATOM      6  N   UNL     1      -2.394 -10.330  13.356  0.00  0.00    -0.171 NA
ATOM     12  C   UNL     1      -3.518 -10.339  11.368  0.00  0.00    +0.003 A 
ATOM     15  C   UNL     1      -4.378 -10.772  12.348  0.00  0.00    +0.046 A 
ATOM     16  C   UNL     1      -2.312 -10.082  12.047  0.00  0.00    +0.064 A 
ATOM     17  C   UNL     1      -5.791 -11.197  12.276  0.00  0.00    +0.066 C 
ATOM     18  C   UNL     1      -1.043  -9.594  11.479  0.00  0.00    +0.068 C 
ENDROOT
BRANCH   5  20
ATOM     20  C   UNL     1      -4.125 -11.105  14.776  0.00  0.00    +0.096 A 
ATOM     22  C   UNL     1      -4.073 -12.425  15.222  0.00  0.00    +0.151 A 
ATOM     23  C   UNL     1      -4.651 -10.110  15.601  0.00  0.00    +0.030 A 
ATOM     24  C   UNL     1      -4.546 -12.751  16.493  0.00  0.00    +0.035 A 
ATOM     27  C   UNL     1      -5.124 -10.436  16.871  0.00  0.00    +0.002 A 
ATOM     28  C   UNL     1      -5.072 -11.757  17.318  0.00  0.00    +0.002 A 
BRANCH  22   8
ATOM      2  O   UNL     1      -4.333 -14.157  13.722  0.00  0.00    -0.126 OA
ATOM      3  O   UNL     1      -2.305 -13.650  14.391  0.00  0.00    -0.126 OA
ATOM      8  N   UNL     1      -3.543 -13.463  14.404  0.00  0.00    +0.059 N 
ENDBRANCH  22   8
ENDBRANCH   5  20
BRANCH  12   9
ATOM      9  C   UNL     1      -3.807 -10.179   9.893  0.00  0.00    +0.047 C 
ATOM     10  C   UNL     1      -4.497 -11.409   9.269  0.00  0.00    +0.039 C 
ATOM     11  C   UNL     1      -5.447 -10.859   8.198  0.00  0.00    +0.098 C 
ATOM     13  C   UNL     1      -4.760  -9.069   9.556  0.00  0.00    -0.021 C 
ATOM     14  C   UNL     1      -5.649  -9.443   8.630  0.00  0.00    -0.009 C 
BRANCH  11   4
ATOM      1  O   UNL     1      -5.327 -13.093   6.375  0.00  0.00    -0.253 OA
ATOM      4  N   UNL     1      -4.869 -10.873   6.881  0.00  0.00    -0.293 N 
ATOM      7  N   UNL     1      -4.233 -11.737   4.841  0.00  0.00    -0.297 N 
ATOM     19  C   UNL     1      -4.852 -12.002   6.060  0.00  0.00    +0.300 C 
ATOM     29  H   UNL     1      -4.405 -10.035   6.542  0.00  0.00    +0.151 HD
ATOM     30  H   UNL     1      -3.942 -10.785   4.644  0.00  0.00    +0.150 HD
BRANCH   7  21
ATOM     21  C   UNL     1      -4.082 -12.735   3.808  0.00  0.00    +0.068 C 
ATOM     25  C   UNL     1      -2.757 -12.545   3.080  0.00  0.00    +0.027 C 
ATOM     26  C   UNL     1      -5.257 -12.684   2.840  0.00  0.00    +0.027 C 
ENDBRANCH   7  21
ENDBRANCH  11   4
ENDBRANCH  12   9
TORSDOF 5
ENDMDL
MODEL 8
REMARK VINA RESULT:      -6.1     19.839     22.550
REMARK  Name = 40780422
REMARK  9 active torsions:
REMARK  status: ('A' for Active; 'I' for Inactive)
REMARK    1  A    between atoms: N_4  and  C_11
REMARK    2  A    between atoms: N_5  and  C_20
REMARK    3  A    between atoms: N_7  and  C_21
REMARK    4  A    between atoms: N_8  and  C_22
REMARK    5  A    between atoms: C_9  and  C_12
REMARK    6  A    between atoms: C_15  and  C_17
REMARK    7  A    between atoms: C_16  and  C_18
REMARK    8  A    between atoms: C_21  and  C_25
REMARK    9  A    between atoms: C_21  and  C_26
REMARK                            x       y       z     vdW  Elec       q    Type
REMARK                         _______ _______ _______ _____ _____    ______ ____
ROOT
ATOM      5  N   UNL     1      13.291   4.181  -1.694  0.00  0.00    -0.234 N 
ATOM      6  N   UNL     1      14.562   4.001  -1.297  0.00  0.00    -0.171 NA
ATOM     12  C   UNL     1      13.148   4.204   0.485  0.00  0.00    +0.003 A 
ATOM     15  C   UNL     1      12.405   4.308  -0.666  0.00  0.00    +0.046 A 
ATOM     16  C   UNL     1      14.468   4.017   0.034  0.00  0.00    +0.064 A 
ATOM     17  C   UNL     1      10.955   4.515  -0.865  0.00  0.00    +0.066 C 
ATOM     18  C   UNL     1      15.684   3.847   0.849  0.00  0.00    +0.068 C 
ENDROOT
BRANCH   5  20
ATOM     20  C   UNL     1      12.990   4.220  -3.057  0.00  0.00    +0.096 A 
ATOM     22  C   UNL     1      12.993   5.421  -3.766  0.00  0.00    +0.151 A 
ATOM     23  C   UNL     1      12.681   3.026  -3.708  0.00  0.00    +0.030 A 
ATOM     24  C   UNL     1      12.686   5.427  -5.126  0.00  0.00    +0.035 A 
ATOM     27  C   UNL     1      12.374   3.032  -5.068  0.00  0.00    +0.002 A 
ATOM     28  C   UNL     1      12.376   4.234  -5.778  0.00  0.00    +0.002 A 
BRANCH  22   8
ATOM      2  O   UNL     1      12.372   7.327  -2.628  0.00  0.00    -0.126 OA
ATOM      3  O   UNL     1      14.497   7.033  -3.093  0.00  0.00    -0.126 OA
ATOM      8  N   UNL     1      13.303   6.657  -3.131  0.00  0.00    +0.059 N 
ENDBRANCH  22   8
ENDBRANCH   5  20
BRANCH  12   9
ATOM      9  C   UNL     1      12.655   4.278   1.912  0.00  0.00    +0.047 C 
ATOM     10  C   UNL     1      12.096   5.664   2.293  0.00  0.00    +0.039 C 
ATOM     11  C   UNL     1      10.943   5.397   3.270  0.00  0.00    +0.098 C 
ATOM     13  C   UNL     1      11.502   3.368   2.226  0.00  0.00    -0.021 C 
ATOM     14  C   UNL     1      10.575   3.982   2.969  0.00  0.00    -0.009 C 
BRANCH  11   4
ATOM      1  O   UNL     1       9.220   5.592   5.577  0.00  0.00    -0.253 OA
ATOM      4  N   UNL     1      11.346   5.498   4.647  0.00  0.00    -0.293 N 
ATOM      7  N   UNL     1      11.103   5.675   6.932  0.00  0.00    -0.297 N 
ATOM     19  C   UNL     1      10.444   5.590   5.708  0.00  0.00    +0.300 C 
ATOM     29  H   UNL     1      12.338   5.554   4.863  0.00  0.00    +0.151 HD
ATOM     30  H   UNL     1      12.114   5.587   6.943  0.00  0.00    +0.150 HD
BRANCH   7  21
ATOM     21  C   UNL     1      10.403   5.780   8.191  0.00  0.00    +0.068 C 
ATOM     25  C   UNL     1       9.737   4.455   8.538  0.00  0.00    +0.027 C 
ATOM     26  C   UNL     1       9.387   6.914   8.145  0.00  0.00    +0.027 C 
ENDBRANCH   7  21
ENDBRANCH  11   4
ENDBRANCH  12   9
TORSDOF 5
ENDMDL
MODEL 9
REMARK VINA RESULT:      -6.1     29.421     32.397
REMARK  Name = 40780422
REMARK  9 active torsions:
REMARK  status: ('A' for Active; 'I' for Inactive)
REMARK    1  A    between atoms: N_4  and  C_11
REMARK    2  A    between atoms: N_5  and  C_20
REMARK    3  A    between atoms: N_7  and  C_21
REMARK    4  A    between atoms: N_8  and  C_22
REMARK    5  A    between atoms: C_9  and  C_12
REMARK    6  A    between atoms: C_15  and  C_17
REMARK    7  A    between atoms: C_16  and  C_18
REMARK    8  A    between atoms: C_21  and  C_25
REMARK    9  A    between atoms: C_21  and  C_26
REMARK                            x       y       z     vdW  Elec       q    Type
REMARK                         _______ _______ _______ _____ _____    ______ ____
ROOT
ATOM      5  N   UNL     1      -4.701  -9.944   9.527  0.00  0.00    -0.234 N 
ATOM      6  N   UNL     1      -4.583 -10.228   8.219  0.00  0.00    -0.171 NA
ATOM     12  C   UNL     1      -6.563  -9.185   8.675  0.00  0.00    +0.003 A 
ATOM     15  C   UNL     1      -5.868  -9.319   9.853  0.00  0.00    +0.046 A 
ATOM     16  C   UNL     1      -5.724  -9.763   7.704  0.00  0.00    +0.064 A 
ATOM     17  C   UNL     1      -6.214  -8.913  11.230  0.00  0.00    +0.066 C 
ATOM     18  C   UNL     1      -5.973  -9.894   6.258  0.00  0.00    +0.068 C 
ENDROOT
BRANCH   5  20
ATOM     20  C   UNL     1      -3.673 -10.290  10.405  0.00  0.00    +0.096 A 
ATOM     22  C   UNL     1      -3.675 -11.511  11.079  0.00  0.00    +0.151 A 
ATOM     23  C   UNL     1      -2.630  -9.385  10.605  0.00  0.00    +0.030 A 
ATOM     24  C   UNL     1      -2.634 -11.827  11.952  0.00  0.00    +0.035 A 
ATOM     27  C   UNL     1      -1.590  -9.700  11.479  0.00  0.00    +0.002 A 
ATOM     28  C   UNL     1      -1.592 -10.922  12.153  0.00  0.00    +0.002 A 
BRANCH  22   8
ATOM      2  O   UNL     1      -5.698 -12.435  11.686  0.00  0.00    -0.126 OA
ATOM      3  O   UNL     1      -4.642 -13.277   9.956  0.00  0.00    -0.126 OA
ATOM      8  N   UNL     1      -4.724 -12.456  10.898  0.00  0.00    +0.059 N 
ENDBRANCH  22   8
ENDBRANCH   5  20
BRANCH  12   9
ATOM      9  C   UNL     1      -7.924  -8.559   8.473  0.00  0.00    +0.047 C 
ATOM     10  C   UNL     1      -7.878  -7.021   8.364  0.00  0.00    +0.039 C 
ATOM     11  C   UNL     1      -8.981  -6.638   7.370  0.00  0.00    +0.098 C 
ATOM     13  C   UNL     1      -8.613  -8.952   7.198  0.00  0.00    -0.021 C 
ATOM     14  C   UNL     1      -9.190  -7.902   6.603  0.00  0.00    -0.009 C 
BRANCH  11   4
ATOM      1  O   UNL     1      -9.546  -4.170   8.756  0.00  0.00    -0.253 OA
ATOM      4  N   UNL     1     -10.211  -6.269   8.018  0.00  0.00    -0.293 N 
ATOM      7  N   UNL     1     -11.683  -4.954   9.208  0.00  0.00    -0.297 N 
ATOM     19  C   UNL     1     -10.402  -5.050   8.670  0.00  0.00    +0.300 C 
ATOM     29  H   UNL     1     -10.969  -6.945   8.048  0.00  0.00    +0.151 HD
ATOM     30  H   UNL     1     -12.344  -5.700   9.017  0.00  0.00    +0.150 HD
BRANCH   7  21
ATOM     21  C   UNL     1     -12.141  -3.793   9.934  0.00  0.00    +0.068 C 
ATOM     25  C   UNL     1     -12.179  -4.085  11.428  0.00  0.00    +0.027 C 
ATOM     26  C   UNL     1     -13.505  -3.347   9.424  0.00  0.00    +0.027 C 
ENDBRANCH   7  21
ENDBRANCH  11   4
ENDBRANCH  12   9
TORSDOF 5
ENDMDL
MODEL 10
REMARK VINA RESULT:      -6.1     19.769     22.561
REMARK  Name = 40780422
REMARK  9 active torsions:
REMARK  status: ('A' for Active; 'I' for Inactive)
REMARK    1  A    between atoms: N_4  and  C_11
REMARK    2  A    between atoms: N_5  and  C_20
REMARK    3  A    between atoms: N_7  and  C_21
REMARK    4  A    between atoms: N_8  and  C_22
REMARK    5  A    between atoms: C_9  and  C_12
REMARK    6  A    between atoms: C_15  and  C_17
REMARK    7  A    between atoms: C_16  and  C_18
REMARK    8  A    between atoms: C_21  and  C_25
REMARK    9  A    between atoms: C_21  and  C_26
REMARK                            x       y       z     vdW  Elec       q    Type
REMARK                         _______ _______ _______ _____ _____    ______ ____
ROOT
ATOM      5  N   UNL     1      12.944   4.510  -1.511  0.00  0.00    -0.234 N 
ATOM      6  N   UNL     1      14.177   4.098  -1.171  0.00  0.00    -0.171 NA
ATOM     12  C   UNL     1      12.848   4.371   0.666  0.00  0.00    +0.003 A 
ATOM     15  C   UNL     1      12.109   4.689  -0.448  0.00  0.00    +0.046 A 
ATOM     16  C   UNL     1      14.112   4.015   0.160  0.00  0.00    +0.064 A 
ATOM     17  C   UNL     1      10.708   5.138  -0.582  0.00  0.00    +0.066 C 
ATOM     18  C   UNL     1      15.300   3.586   0.918  0.00  0.00    +0.068 C 
ENDROOT
BRANCH   5  20
ATOM     20  C   UNL     1      12.628   4.712  -2.856  0.00  0.00    +0.096 A 
ATOM     22  C   UNL     1      11.888   3.774  -3.576  0.00  0.00    +0.151 A 
ATOM     23  C   UNL     1      13.071   5.878  -3.479  0.00  0.00    +0.030 A 
ATOM     24  C   UNL     1      11.591   4.003  -4.919  0.00  0.00    +0.035 A 
ATOM     27  C   UNL     1      12.774   6.108  -4.822  0.00  0.00    +0.002 A 
ATOM     28  C   UNL     1      12.034   5.170  -5.543  0.00  0.00    +0.002 A 
BRANCH  22   8
ATOM      2  O   UNL     1      12.259   1.708  -2.623  0.00  0.00    -0.126 OA
ATOM      3  O   UNL     1      10.191   2.420  -2.800  0.00  0.00    -0.126 OA
ATOM      8  N   UNL     1      11.422   2.573  -2.969  0.00  0.00    +0.059 N 
ENDBRANCH  22   8
ENDBRANCH   5  20
BRANCH  12   9
ATOM      9  C   UNL     1      12.400   4.400   2.110  0.00  0.00    +0.047 C 
ATOM     10  C   UNL     1      11.805   5.758   2.536  0.00  0.00    +0.039 C 
ATOM     11  C   UNL     1      10.696   5.432   3.544  0.00  0.00    +0.098 C 
ATOM     13  C   UNL     1      11.291   3.444   2.443  0.00  0.00    -0.021 C 
ATOM     14  C   UNL     1      10.368   4.010   3.227  0.00  0.00    -0.009 C 
BRANCH  11   4
ATOM      1  O   UNL     1       9.044   5.531   5.909  0.00  0.00    -0.253 OA
ATOM      4  N   UNL     1      11.140   5.522   4.909  0.00  0.00    -0.293 N 
ATOM      7  N   UNL     1      10.966   5.652   7.204  0.00  0.00    -0.297 N 
ATOM     19  C   UNL     1      10.271   5.566   6.000  0.00  0.00    +0.300 C 
ATOM     29  H   UNL     1      12.136   5.607   5.094  0.00  0.00    +0.151 HD
ATOM     30  H   UNL     1      11.980   5.597   7.180  0.00  0.00    +0.150 HD
BRANCH   7  21
ATOM     21  C   UNL     1      10.305   5.712   8.486  0.00  0.00    +0.068 C 
ATOM     25  C   UNL     1       9.767   4.340   8.868  0.00  0.00    +0.027 C 
ATOM     26  C   UNL     1       9.195   6.756   8.467  0.00  0.00    +0.027 C 
ENDBRANCH   7  21
ENDBRANCH  11   4
ENDBRANCH  12   9
TORSDOF 5
ENDMDL
