MODEL 1
REMARK VINA RESULT:      -6.9      0.000      0.000
REMARK  Name = 40777129
REMARK  8 active torsions:
REMARK  status: ('A' for Active; 'I' for Inactive)
REMARK    1  A    between atoms: S_2  and  N_6
REMARK    2  A    between atoms: S_2  and  C_21
REMARK    3  A    between atoms: N_6  and  C_16
REMARK    4  A    between atoms: C_10  and  C_17
REMARK    5  A    between atoms: C_11  and  C_16
REMARK    6  A    between atoms: C_19  and  C_22
REMARK    7  A    between atoms: C_20  and  C_23
REMARK    8  A    between atoms: C_30  and  C_34
REMARK                            x       y       z     vdW  Elec       q    Type
REMARK                         _______ _______ _______ _____ _____    ______ ____
ROOT
ATOM      5  N   UNL     1       9.916   7.048   7.403  0.00  0.00    -0.297 NA
ATOM      9  C   UNL     1       9.793   5.146   5.628  0.00  0.00    +0.002 C 
ATOM     10  C   UNL     1      11.137   5.916   5.507  0.00  0.00    +0.055 C 
ATOM     11  C   UNL     1       8.626   7.122   6.667  0.00  0.00    +0.072 C 
ATOM     12  C   UNL     1       8.621   6.139   5.476  0.00  0.00    +0.024 C 
ATOM     13  C   UNL     1       9.729   4.585   7.064  0.00  0.00    +0.019 C 
ATOM     14  C   UNL     1      11.051   7.149   6.451  0.00  0.00    +0.094 C 
ATOM     15  C   UNL     1       9.985   5.724   8.065  0.00  0.00    +0.085 C 
ENDROOT
BRANCH  10  17
ATOM      7  N   UNL     1      12.150   7.524   3.967  0.00  0.00    -0.237 NA
ATOM      8  N   UNL     1      12.526   7.012   1.642  0.00  0.00    -0.232 NA
ATOM     17  C   UNL     1      11.630   6.288   4.115  0.00  0.00    +0.050 A 
ATOM     18  C   UNL     1      11.525   5.371   3.090  0.00  0.00    +0.052 A 
ATOM     19  C   UNL     1      11.995   5.792   1.863  0.00  0.00    +0.076 A 
ATOM     20  C   UNL     1      12.572   7.817   2.722  0.00  0.00    +0.127 A 
ATOM     23  C   UNL     1      13.152   9.174   2.517  0.00  0.00    +0.088 C 
BRANCH  19  22
ATOM      1 BR   UNL     1      14.441   3.753   1.577  0.00  0.00    -0.050 Br
ATOM     22  C   UNL     1      11.941   4.929   0.707  0.00  0.00    +0.014 A 
ATOM     26  C   UNL     1      12.934   3.985   0.443  0.00  0.00    +0.027 A 
ATOM     27  C   UNL     1      10.855   5.059  -0.157  0.00  0.00    +0.011 A 
ATOM     31  C   UNL     1      12.839   3.171  -0.687  0.00  0.00    +0.016 A 
ATOM     32  C   UNL     1      10.760   4.245  -1.286  0.00  0.00    +0.001 A 
ATOM     33  C   UNL     1      11.752   3.301  -1.551  0.00  0.00    +0.001 A 
ENDBRANCH  19  22
ENDBRANCH  10  17
BRANCH  11  16
ATOM     16  C   UNL     1       8.286   8.549   6.229  0.00  0.00    +0.124 C 
BRANCH  16   6
ATOM      6  N   UNL     1       7.471   8.497   5.005  0.00  0.00    -0.188 NA
ATOM     35  H   UNL     1       7.467   7.602   4.502  0.00  0.00    +0.148 HD
BRANCH   6   2
ATOM      2  S   UNL     1       7.208   9.911   4.091  0.00  0.00    +0.058 S 
ATOM      3  O   UNL     1       8.097  10.957   4.561  0.00  0.00    -0.153 OA
ATOM      4  O   UNL     1       5.783  10.155   3.992  0.00  0.00    -0.153 OA
BRANCH   2  21
ATOM     21  C   UNL     1       7.759   9.409   2.487  0.00  0.00    +0.105 A 
ATOM     24  C   UNL     1       8.826   8.520   2.364  0.00  0.00    +0.029 A 
ATOM     25  C   UNL     1       7.126   9.903   1.346  0.00  0.00    +0.029 A 
ATOM     28  C   UNL     1       9.261   8.124   1.099  0.00  0.00    +0.005 A 
ATOM     29  C   UNL     1       7.561   9.507   0.081  0.00  0.00    +0.005 A 
ATOM     30  C   UNL     1       8.629   8.617  -0.042  0.00  0.00    -0.050 A 
ATOM     34  C   UNL     1       9.094   8.194  -1.394  0.00  0.00    +0.044 C 
ENDBRANCH   2  21
ENDBRANCH   6   2
ENDBRANCH  16   6
ENDBRANCH  11  16
TORSDOF 6
ENDMDL
MODEL 2
REMARK VINA RESULT:      -6.8     24.530     27.596
REMARK  Name = 40777129
REMARK  8 active torsions:
REMARK  status: ('A' for Active; 'I' for Inactive)
REMARK    1  A    between atoms: S_2  and  N_6
REMARK    2  A    between atoms: S_2  and  C_21
REMARK    3  A    between atoms: N_6  and  C_16
REMARK    4  A    between atoms: C_10  and  C_17
REMARK    5  A    between atoms: C_11  and  C_16
REMARK    6  A    between atoms: C_19  and  C_22
REMARK    7  A    between atoms: C_20  and  C_23
REMARK    8  A    between atoms: C_30  and  C_34
REMARK                            x       y       z     vdW  Elec       q    Type
REMARK                         _______ _______ _______ _____ _____    ______ ____
ROOT
ATOM      5  N   UNL     1      -4.573 -12.432  16.900  0.00  0.00    -0.297 NA
ATOM      9  C   UNL     1      -5.999 -10.451  17.807  0.00  0.00    +0.002 C 
ATOM     10  C   UNL     1      -6.829 -11.306  16.808  0.00  0.00    +0.055 C 
ATOM     11  C   UNL     1      -3.815 -11.160  16.771  0.00  0.00    +0.072 C 
ATOM     12  C   UNL     1      -4.716  -9.952  17.107  0.00  0.00    +0.024 C 
ATOM     13  C   UNL     1      -5.558 -11.397  18.943  0.00  0.00    +0.019 C 
ATOM     14  C   UNL     1      -5.858 -12.336  16.163  0.00  0.00    +0.094 C 
ATOM     15  C   UNL     1      -4.877 -12.636  18.336  0.00  0.00    +0.085 C 
ENDROOT
BRANCH  10  17
ATOM      7  N   UNL     1      -7.355 -10.789  14.476  0.00  0.00    -0.237 NA
ATOM      8  N   UNL     1      -9.152  -9.304  13.865  0.00  0.00    -0.232 NA
ATOM     17  C   UNL     1      -7.674 -10.581  15.770  0.00  0.00    +0.050 A 
ATOM     18  C   UNL     1      -8.703  -9.760  16.185  0.00  0.00    +0.052 A 
ATOM     19  C   UNL     1      -9.415  -9.142  15.178  0.00  0.00    +0.076 A 
ATOM     20  C   UNL     1      -8.124 -10.129  13.589  0.00  0.00    +0.127 A 
ATOM     23  C   UNL     1      -7.802 -10.333  12.147  0.00  0.00    +0.088 C 
BRANCH  19  22
ATOM      1 BR   UNL     1     -12.307 -10.507  15.145  0.00  0.00    -0.050 Br
ATOM     22  C   UNL     1     -10.515  -8.256  15.478  0.00  0.00    +0.014 A 
ATOM     26  C   UNL     1     -11.837  -8.702  15.503  0.00  0.00    +0.027 A 
ATOM     27  C   UNL     1     -10.224  -6.920  15.748  0.00  0.00    +0.011 A 
ATOM     31  C   UNL     1     -12.868  -7.809  15.799  0.00  0.00    +0.016 A 
ATOM     32  C   UNL     1     -11.254  -6.027  16.045  0.00  0.00    +0.001 A 
ATOM     33  C   UNL     1     -12.577  -6.471  16.070  0.00  0.00    +0.001 A 
ENDBRANCH  19  22
ENDBRANCH  10  17
BRANCH  11  16
ATOM     16  C   UNL     1      -3.153 -11.011  15.398  0.00  0.00    +0.124 C 
BRANCH  16   6
ATOM      6  N   UNL     1      -2.170 -12.090  15.216  0.00  0.00    -0.188 NA
ATOM     35  H   UNL     1      -1.251 -11.943  15.652  0.00  0.00    +0.148 HD
BRANCH   6   2
ATOM      2  S   UNL     1      -2.230 -13.080  13.830  0.00  0.00    +0.058 S 
ATOM      3  O   UNL     1      -3.319 -14.029  13.967  0.00  0.00    -0.153 OA
ATOM      4  O   UNL     1      -0.893 -13.545  13.520  0.00  0.00    -0.153 OA
BRANCH   2  21
ATOM     21  C   UNL     1      -2.676 -11.916  12.577  0.00  0.00    +0.105 A 
ATOM     24  C   UNL     1      -1.807 -10.873  12.253  0.00  0.00    +0.029 A 
ATOM     25  C   UNL     1      -3.897 -12.039  11.912  0.00  0.00    +0.029 A 
ATOM     28  C   UNL     1      -2.159  -9.954  11.264  0.00  0.00    +0.005 A 
ATOM     29  C   UNL     1      -4.248 -11.120  10.923  0.00  0.00    +0.005 A 
ATOM     30  C   UNL     1      -3.379 -10.077  10.599  0.00  0.00    -0.050 A 
ATOM     34  C   UNL     1      -3.754  -9.095   9.542  0.00  0.00    +0.044 C 
ENDBRANCH   2  21
ENDBRANCH   6   2
ENDBRANCH  16   6
ENDBRANCH  11  16
TORSDOF 6
ENDMDL
MODEL 3
REMARK VINA RESULT:      -6.7     23.439     26.428
REMARK  Name = 40777129
REMARK  8 active torsions:
REMARK  status: ('A' for Active; 'I' for Inactive)
REMARK    1  A    between atoms: S_2  and  N_6
REMARK    2  A    between atoms: S_2  and  C_21
REMARK    3  A    between atoms: N_6  and  C_16
REMARK    4  A    between atoms: C_10  and  C_17
REMARK    5  A    between atoms: C_11  and  C_16
REMARK    6  A    between atoms: C_19  and  C_22
REMARK    7  A    between atoms: C_20  and  C_23
REMARK    8  A    between atoms: C_30  and  C_34
REMARK                            x       y       z     vdW  Elec       q    Type
REMARK                         _______ _______ _______ _____ _____    ______ ____
ROOT
ATOM      5  N   UNL     1      -5.729 -10.673   9.712  0.00  0.00    -0.297 NA
ATOM      9  C   UNL     1      -3.785  -9.242  10.688  0.00  0.00    +0.002 C 
ATOM     10  C   UNL     1      -3.447 -10.756  10.784  0.00  0.00    +0.055 C 
ATOM     11  C   UNL     1      -6.265  -9.682  10.682  0.00  0.00    +0.072 C 
ATOM     12  C   UNL     1      -5.114  -8.968  11.423  0.00  0.00    +0.024 C 
ATOM     13  C   UNL     1      -4.020  -8.933   9.194  0.00  0.00    +0.019 C 
ATOM     14  C   UNL     1      -4.725 -11.542  10.375  0.00  0.00    +0.094 C 
ATOM     15  C   UNL     1      -5.050  -9.925   8.628  0.00  0.00    +0.085 C 
ENDROOT
BRANCH  10  17
ATOM      7  N   UNL     1      -2.380 -10.351  12.947  0.00  0.00    -0.237 NA
ATOM      8  N   UNL     1      -1.737 -12.149  14.418  0.00  0.00    -0.232 NA
ATOM     17  C   UNL     1      -2.840 -11.276  12.080  0.00  0.00    +0.050 A 
ATOM     18  C   UNL     1      -2.784 -12.636  12.306  0.00  0.00    +0.052 A 
ATOM     19  C   UNL     1      -2.217 -13.019  13.505  0.00  0.00    +0.076 A 
ATOM     20  C   UNL     1      -1.848 -10.850  14.080  0.00  0.00    +0.127 A 
ATOM     23  C   UNL     1      -1.327  -9.859  15.064  0.00  0.00    +0.088 C 
BRANCH  19  22
ATOM      1 BR   UNL     1      -4.643 -14.193  15.224  0.00  0.00    -0.050 Br
ATOM     22  C   UNL     1      -2.097 -14.412  13.862  0.00  0.00    +0.014 A 
ATOM     26  C   UNL     1      -3.073 -15.070  14.610  0.00  0.00    +0.027 A 
ATOM     27  C   UNL     1      -0.963 -15.101  13.436  0.00  0.00    +0.011 A 
ATOM     31  C   UNL     1      -2.915 -16.419  14.931  0.00  0.00    +0.016 A 
ATOM     32  C   UNL     1      -0.804 -16.450  13.756  0.00  0.00    +0.001 A 
ATOM     33  C   UNL     1      -1.780 -17.108  14.505  0.00  0.00    +0.001 A 
ENDBRANCH  19  22
ENDBRANCH  10  17
BRANCH  11  16
ATOM     16  C   UNL     1      -7.271 -10.303  11.655  0.00  0.00    +0.124 C 
BRANCH  16   6
ATOM      6  N   UNL     1      -7.241  -9.556  12.922  0.00  0.00    -0.188 NA
ATOM     35  H   UNL     1      -6.355  -9.088  13.151  0.00  0.00    +0.148 HD
BRANCH   6   2
ATOM      2  S   UNL     1      -8.232 -10.036  14.223  0.00  0.00    +0.058 S 
ATOM      3  O   UNL     1      -8.938 -11.251  13.863  0.00  0.00    -0.153 OA
ATOM      4  O   UNL     1      -8.965  -8.885  14.712  0.00  0.00    -0.153 OA
BRANCH   2  21
ATOM     21  C   UNL     1      -7.034 -10.447  15.456  0.00  0.00    +0.105 A 
ATOM     24  C   UNL     1      -5.737  -9.942  15.363  0.00  0.00    +0.029 A 
ATOM     25  C   UNL     1      -7.385 -11.277  16.521  0.00  0.00    +0.029 A 
ATOM     28  C   UNL     1      -4.791 -10.266  16.335  0.00  0.00    +0.005 A 
ATOM     29  C   UNL     1      -6.438 -11.601  17.493  0.00  0.00    +0.005 A 
ATOM     30  C   UNL     1      -5.141 -11.096  17.400  0.00  0.00    -0.050 A 
ATOM     34  C   UNL     1      -4.129 -11.442  18.439  0.00  0.00    +0.044 C 
ENDBRANCH   2  21
ENDBRANCH   6   2
ENDBRANCH  16   6
ENDBRANCH  11  16
TORSDOF 6
ENDMDL
MODEL 4
REMARK VINA RESULT:      -6.6     23.929     26.722
REMARK  Name = 40777129
REMARK  8 active torsions:
REMARK  status: ('A' for Active; 'I' for Inactive)
REMARK    1  A    between atoms: S_2  and  N_6
REMARK    2  A    between atoms: S_2  and  C_21
REMARK    3  A    between atoms: N_6  and  C_16
REMARK    4  A    between atoms: C_10  and  C_17
REMARK    5  A    between atoms: C_11  and  C_16
REMARK    6  A    between atoms: C_19  and  C_22
REMARK    7  A    between atoms: C_20  and  C_23
REMARK    8  A    between atoms: C_30  and  C_34
REMARK                            x       y       z     vdW  Elec       q    Type
REMARK                         _______ _______ _______ _____ _____    ______ ____
ROOT
ATOM      5  N   UNL     1      -5.033 -12.913  17.070  0.00  0.00    -0.297 NA
ATOM      9  C   UNL     1      -5.386 -10.400  17.656  0.00  0.00    +0.002 C 
ATOM     10  C   UNL     1      -6.728 -11.050  17.218  0.00  0.00    +0.055 C 
ATOM     11  C   UNL     1      -4.023 -12.080  16.366  0.00  0.00    +0.072 C 
ATOM     12  C   UNL     1      -4.342 -10.579  16.533  0.00  0.00    +0.024 C 
ATOM     13  C   UNL     1      -4.882 -11.200  18.876  0.00  0.00    +0.019 C 
ATOM     14  C   UNL     1      -6.402 -12.478  16.694  0.00  0.00    +0.094 C 
ATOM     15  C   UNL     1      -4.863 -12.698  18.526  0.00  0.00    +0.085 C 
ENDROOT
BRANCH  10  17
ATOM      7  N   UNL     1      -8.508  -9.421  16.814  0.00  0.00    -0.237 NA
ATOM      8  N   UNL     1      -9.255  -8.860  14.592  0.00  0.00    -0.232 NA
ATOM     17  C   UNL     1      -7.623 -10.275  16.260  0.00  0.00    +0.050 A 
ATOM     18  C   UNL     1      -7.495 -10.473  14.900  0.00  0.00    +0.052 A 
ATOM     19  C   UNL     1      -8.346  -9.731  14.107  0.00  0.00    +0.076 A 
ATOM     20  C   UNL     1      -9.282  -8.756  15.935  0.00  0.00    +0.127 A 
ATOM     23  C   UNL     1     -10.275  -7.804  16.509  0.00  0.00    +0.088 C 
BRANCH  19  22
ATOM      1 BR   UNL     1     -10.629 -11.581  12.846  0.00  0.00    -0.050 Br
ATOM     22  C   UNL     1      -8.316  -9.847  12.669  0.00  0.00    +0.014 A 
ATOM     26  C   UNL     1      -9.245 -10.618  11.970  0.00  0.00    +0.027 A 
ATOM     27  C   UNL     1      -7.319  -9.160  11.977  0.00  0.00    +0.011 A 
ATOM     31  C   UNL     1      -9.177 -10.701  10.578  0.00  0.00    +0.016 A 
ATOM     32  C   UNL     1      -7.251  -9.242  10.586  0.00  0.00    +0.001 A 
ATOM     33  C   UNL     1      -8.180 -10.013   9.887  0.00  0.00    +0.001 A 
ENDBRANCH  19  22
ENDBRANCH  10  17
BRANCH  11  16
ATOM     16  C   UNL     1      -3.871 -12.469  14.893  0.00  0.00    +0.124 C 
BRANCH  16   6
ATOM      6  N   UNL     1      -3.677 -11.252  14.089  0.00  0.00    -0.188 NA
ATOM     35  H   UNL     1      -4.529 -10.740  13.830  0.00  0.00    +0.148 HD
BRANCH   6   2
ATOM      2  S   UNL     1      -2.336 -11.118  13.046  0.00  0.00    +0.058 S 
ATOM      3  O   UNL     1      -1.649 -12.395  12.985  0.00  0.00    -0.153 OA
ATOM      4  O   UNL     1      -1.602  -9.910  13.367  0.00  0.00    -0.153 OA
BRANCH   2  21
ATOM     21  C   UNL     1      -3.120 -10.847  11.486  0.00  0.00    +0.105 A 
ATOM     24  C   UNL     1      -3.814 -11.887  10.865  0.00  0.00    +0.029 A 
ATOM     25  C   UNL     1      -3.045  -9.595  10.874  0.00  0.00    +0.029 A 
ATOM     28  C   UNL     1      -4.433 -11.674   9.632  0.00  0.00    +0.005 A 
ATOM     29  C   UNL     1      -3.664  -9.383   9.642  0.00  0.00    +0.005 A 
ATOM     30  C   UNL     1      -4.358 -10.422   9.021  0.00  0.00    -0.050 A 
ATOM     34  C   UNL     1      -5.020 -10.195   7.704  0.00  0.00    +0.044 C 
ENDBRANCH   2  21
ENDBRANCH   6   2
ENDBRANCH  16   6
ENDBRANCH  11  16
TORSDOF 6
ENDMDL
MODEL 5
REMARK VINA RESULT:      -6.4     24.593     27.380
REMARK  Name = 40777129
REMARK  8 active torsions:
REMARK  status: ('A' for Active; 'I' for Inactive)
REMARK    1  A    between atoms: S_2  and  N_6
REMARK    2  A    between atoms: S_2  and  C_21
REMARK    3  A    between atoms: N_6  and  C_16
REMARK    4  A    between atoms: C_10  and  C_17
REMARK    5  A    between atoms: C_11  and  C_16
REMARK    6  A    between atoms: C_19  and  C_22
REMARK    7  A    between atoms: C_20  and  C_23
REMARK    8  A    between atoms: C_30  and  C_34
REMARK                            x       y       z     vdW  Elec       q    Type
REMARK                         _______ _______ _______ _____ _____    ______ ____
ROOT
ATOM      5  N   UNL     1      -5.763 -10.141  17.336  0.00  0.00    -0.297 NA
ATOM      9  C   UNL     1      -5.089 -12.618  16.897  0.00  0.00    +0.002 C 
ATOM     10  C   UNL     1      -4.079 -11.651  16.219  0.00  0.00    +0.055 C 
ATOM     11  C   UNL     1      -6.937 -10.906  16.837  0.00  0.00    +0.072 C 
ATOM     12  C   UNL     1      -6.511 -12.317  16.376  0.00  0.00    +0.024 C 
ATOM     13  C   UNL     1      -5.079 -12.288  18.404  0.00  0.00    +0.019 C 
ATOM     14  C   UNL     1      -4.654 -10.213  16.351  0.00  0.00    +0.094 C 
ATOM     15  C   UNL     1      -5.307 -10.778  18.594  0.00  0.00    +0.085 C 
ENDROOT
BRANCH  10  17
ATOM      7  N   UNL     1      -2.850 -13.055  14.637  0.00  0.00    -0.237 NA
ATOM      8  N   UNL     1      -2.783 -12.572  12.277  0.00  0.00    -0.232 NA
ATOM     17  C   UNL     1      -3.626 -11.964  14.799  0.00  0.00    +0.050 A 
ATOM     18  C   UNL     1      -4.018 -11.139  13.765  0.00  0.00    +0.052 A 
ATOM     19  C   UNL     1      -3.562 -11.496  12.512  0.00  0.00    +0.076 A 
ATOM     20  C   UNL     1      -2.468 -13.297  13.368  0.00  0.00    +0.127 A 
ATOM     23  C   UNL     1      -1.607 -14.494  13.148  0.00  0.00    +0.088 C 
BRANCH  19  22
ATOM      1 BR   UNL     1      -1.288  -9.474  11.530  0.00  0.00    -0.050 Br
ATOM     22  C   UNL     1      -3.898 -10.716  11.346  0.00  0.00    +0.014 A 
ATOM     26  C   UNL     1      -3.012  -9.790  10.796  0.00  0.00    +0.027 A 
ATOM     27  C   UNL     1      -5.152 -10.909  10.768  0.00  0.00    +0.011 A 
ATOM     31  C   UNL     1      -3.380  -9.058   9.666  0.00  0.00    +0.016 A 
ATOM     32  C   UNL     1      -5.521 -10.178   9.638  0.00  0.00    +0.001 A 
ATOM     33  C   UNL     1      -4.635  -9.251   9.088  0.00  0.00    +0.001 A 
ENDBRANCH  19  22
ENDBRANCH  10  17
BRANCH  11  16
ATOM     16  C   UNL     1      -7.701 -10.156  15.743  0.00  0.00    +0.124 C 
BRANCH  16   6
ATOM      6  N   UNL     1      -8.265  -8.920  16.308  0.00  0.00    -0.188 NA
ATOM     35  H   UNL     1      -7.915  -8.645  17.235  0.00  0.00    +0.148 HD
BRANCH   6   2
ATOM      2  S   UNL     1      -9.841  -8.428  15.890  0.00  0.00    +0.058 S 
ATOM      3  O   UNL     1     -10.271  -9.154  14.709  0.00  0.00    -0.153 OA
ATOM      4  O   UNL     1      -9.912  -6.981  15.921  0.00  0.00    -0.153 OA
BRANCH   2  21
ATOM     21  C   UNL     1     -10.780  -9.021  17.265  0.00  0.00    +0.105 A 
ATOM     24  C   UNL     1     -12.174  -8.977  17.228  0.00  0.00    +0.029 A 
ATOM     25  C   UNL     1     -10.128  -9.532  18.388  0.00  0.00    +0.029 A 
ATOM     28  C   UNL     1     -12.916  -9.444  18.313  0.00  0.00    +0.005 A 
ATOM     29  C   UNL     1     -10.870  -9.998  19.473  0.00  0.00    +0.005 A 
ATOM     30  C   UNL     1     -12.264  -9.954  19.436  0.00  0.00    -0.050 A 
ATOM     34  C   UNL     1     -13.057 -10.454  20.596  0.00  0.00    +0.044 C 
ENDBRANCH   2  21
ENDBRANCH   6   2
ENDBRANCH  16   6
ENDBRANCH  11  16
TORSDOF 6
ENDMDL
MODEL 6
REMARK VINA RESULT:      -6.3     24.828     28.903
REMARK  Name = 40777129
REMARK  8 active torsions:
REMARK  status: ('A' for Active; 'I' for Inactive)
REMARK    1  A    between atoms: S_2  and  N_6
REMARK    2  A    between atoms: S_2  and  C_21
REMARK    3  A    between atoms: N_6  and  C_16
REMARK    4  A    between atoms: C_10  and  C_17
REMARK    5  A    between atoms: C_11  and  C_16
REMARK    6  A    between atoms: C_19  and  C_22
REMARK    7  A    between atoms: C_20  and  C_23
REMARK    8  A    between atoms: C_30  and  C_34
REMARK                            x       y       z     vdW  Elec       q    Type
REMARK                         _______ _______ _______ _____ _____    ______ ____
ROOT
ATOM      5  N   UNL     1      18.686  -2.791  31.491  0.00  0.00    -0.297 NA
ATOM      9  C   UNL     1      16.183  -2.293  30.968  0.00  0.00    +0.002 C 
ATOM     10  C   UNL     1      16.358  -3.763  31.441  0.00  0.00    +0.055 C 
ATOM     11  C   UNL     1      18.563  -2.156  30.152  0.00  0.00    +0.072 C 
ATOM     12  C   UNL     1      17.080  -2.043  29.737  0.00  0.00    +0.024 C 
ATOM     13  C   UNL     1      16.713  -1.395  32.105  0.00  0.00    +0.019 C 
ATOM     14  C   UNL     1      17.886  -4.040  31.536  0.00  0.00    +0.094 C 
ATOM     15  C   UNL     1      18.131  -1.850  32.492  0.00  0.00    +0.085 C 
ENDROOT
BRANCH  10  17
ATOM      7  N   UNL     1      14.354  -5.116  31.069  0.00  0.00    -0.237 NA
ATOM      8  N   UNL     1      14.247  -6.806  29.353  0.00  0.00    -0.232 NA
ATOM     17  C   UNL     1      15.619  -4.856  30.679  0.00  0.00    +0.050 A 
ATOM     18  C   UNL     1      16.258  -5.517  29.651  0.00  0.00    +0.052 A 
ATOM     19  C   UNL     1      15.515  -6.492  29.017  0.00  0.00    +0.076 A 
ATOM     20  C   UNL     1      13.735  -6.090  30.373  0.00  0.00    +0.127 A 
ATOM     23  C   UNL     1      12.335  -6.408  30.775  0.00  0.00    +0.088 C 
BRANCH  19  22
ATOM      1 BR   UNL     1      17.008  -9.188  29.873  0.00  0.00    -0.050 Br
ATOM     22  C   UNL     1      16.068  -7.260  27.927  0.00  0.00    +0.014 A 
ATOM     26  C   UNL     1      16.749  -8.459  28.138  0.00  0.00    +0.027 A 
ATOM     27  C   UNL     1      15.905  -6.769  26.632  0.00  0.00    +0.011 A 
ATOM     31  C   UNL     1      17.266  -9.168  27.052  0.00  0.00    +0.016 A 
ATOM     32  C   UNL     1      16.422  -7.477  25.547  0.00  0.00    +0.001 A 
ATOM     33  C   UNL     1      17.103  -8.676  25.757  0.00  0.00    +0.001 A 
ENDBRANCH  19  22
ENDBRANCH  10  17
BRANCH  11  16
ATOM     16  C   UNL     1      19.399  -2.871  29.088  0.00  0.00    +0.124 C 
BRANCH  16   6
ATOM      6  N   UNL     1      18.526  -3.269  27.974  0.00  0.00    -0.188 NA
ATOM     35  H   UNL     1      17.556  -3.506  28.220  0.00  0.00    +0.148 HD
BRANCH   6   2
ATOM      2  S   UNL     1      19.186  -4.016  26.592  0.00  0.00    +0.058 S 
ATOM      3  O   UNL     1      19.180  -5.455  26.777  0.00  0.00    -0.153 OA
ATOM      4  O   UNL     1      20.411  -3.334  26.222  0.00  0.00    -0.153 OA
BRANCH   2  21
ATOM     21  C   UNL     1      17.983  -3.621  25.359  0.00  0.00    +0.105 A 
ATOM     24  C   UNL     1      17.857  -4.424  24.225  0.00  0.00    +0.029 A 
ATOM     25  C   UNL     1      17.160  -2.505  25.519  0.00  0.00    +0.029 A 
ATOM     28  C   UNL     1      16.907  -4.112  23.252  0.00  0.00    +0.005 A 
ATOM     29  C   UNL     1      16.211  -2.194  24.545  0.00  0.00    +0.005 A 
ATOM     30  C   UNL     1      16.085  -2.997  23.411  0.00  0.00    -0.050 A 
ATOM     34  C   UNL     1      15.070  -2.664  22.370  0.00  0.00    +0.044 C 
ENDBRANCH   2  21
ENDBRANCH   6   2
ENDBRANCH  16   6
ENDBRANCH  11  16
TORSDOF 6
ENDMDL
MODEL 7
REMARK VINA RESULT:      -6.3     24.153     28.649
REMARK  Name = 40777129
REMARK  8 active torsions:
REMARK  status: ('A' for Active; 'I' for Inactive)
REMARK    1  A    between atoms: S_2  and  N_6
REMARK    2  A    between atoms: S_2  and  C_21
REMARK    3  A    between atoms: N_6  and  C_16
REMARK    4  A    between atoms: C_10  and  C_17
REMARK    5  A    between atoms: C_11  and  C_16
REMARK    6  A    between atoms: C_19  and  C_22
REMARK    7  A    between atoms: C_20  and  C_23
REMARK    8  A    between atoms: C_30  and  C_34
REMARK                            x       y       z     vdW  Elec       q    Type
REMARK                         _______ _______ _______ _____ _____    ______ ____
ROOT
ATOM      5  N   UNL     1      18.396  -2.935  22.965  0.00  0.00    -0.297 NA
ATOM      9  C   UNL     1      16.764  -2.150  24.837  0.00  0.00    +0.002 C 
ATOM     10  C   UNL     1      18.239  -1.966  25.289  0.00  0.00    +0.055 C 
ATOM     11  C   UNL     1      17.372  -3.983  23.218  0.00  0.00    +0.072 C 
ATOM     12  C   UNL     1      16.526  -3.628  24.460  0.00  0.00    +0.024 C 
ATOM     13  C   UNL     1      16.587  -1.320  23.548  0.00  0.00    +0.019 C 
ATOM     14  C   UNL     1      19.140  -2.638  24.214  0.00  0.00    +0.094 C 
ATOM     15  C   UNL     1      17.688  -1.702  22.544  0.00  0.00    +0.085 C 
ENDROOT
BRANCH  10  17
ATOM      7  N   UNL     1      19.921  -2.634  26.935  0.00  0.00    -0.237 NA
ATOM      8  N   UNL     1      19.347  -3.152  29.218  0.00  0.00    -0.232 NA
ATOM     17  C   UNL     1      18.615  -2.389  26.703  0.00  0.00    +0.050 A 
ATOM     18  C   UNL     1      17.630  -2.501  27.663  0.00  0.00    +0.052 A 
ATOM     19  C   UNL     1      18.059  -2.890  28.915  0.00  0.00    +0.076 A 
ATOM     20  C   UNL     1      20.213  -3.007  28.196  0.00  0.00    +0.127 A 
ATOM     23  C   UNL     1      21.647  -3.289  28.492  0.00  0.00    +0.088 C 
BRANCH  19  22
ATOM      1 BR   UNL     1      18.203  -0.618  31.160  0.00  0.00    -0.050 Br
ATOM     22  C   UNL     1      17.129  -3.047  30.007  0.00  0.00    +0.014 A 
ATOM     26  C   UNL     1      17.069  -2.138  31.064  0.00  0.00    +0.027 A 
ATOM     27  C   UNL     1      16.273  -4.148  29.985  0.00  0.00    +0.011 A 
ATOM     31  C   UNL     1      16.152  -2.331  32.098  0.00  0.00    +0.016 A 
ATOM     32  C   UNL     1      15.356  -4.340  31.018  0.00  0.00    +0.001 A 
ATOM     33  C   UNL     1      15.296  -3.432  32.075  0.00  0.00    +0.001 A 
ENDBRANCH  19  22
ENDBRANCH  10  17
BRANCH  11  16
ATOM     16  C   UNL     1      17.983  -5.382  23.326  0.00  0.00    +0.124 C 
BRANCH  16   6
ATOM      6  N   UNL     1      17.371  -6.090  24.461  0.00  0.00    -0.188 NA
ATOM     35  H   UNL     1      16.436  -5.770  24.744  0.00  0.00    +0.148 HD
BRANCH   6   2
ATOM      2  S   UNL     1      18.354  -6.794  25.662  0.00  0.00    +0.058 S 
ATOM      3  O   UNL     1      19.310  -5.811  26.135  0.00  0.00    -0.153 OA
ATOM      4  O   UNL     1      18.810  -8.092  25.203  0.00  0.00    -0.153 OA
BRANCH   2  21
ATOM     21  C   UNL     1      17.186  -7.085  26.957  0.00  0.00    +0.105 A 
ATOM     24  C   UNL     1      17.585  -7.748  28.118  0.00  0.00    +0.029 A 
ATOM     25  C   UNL     1      15.867  -6.653  26.817  0.00  0.00    +0.029 A 
ATOM     28  C   UNL     1      16.663  -7.979  29.140  0.00  0.00    +0.005 A 
ATOM     29  C   UNL     1      14.946  -6.885  27.840  0.00  0.00    +0.005 A 
ATOM     30  C   UNL     1      15.345  -7.547  29.001  0.00  0.00    -0.050 A 
ATOM     34  C   UNL     1      14.360  -7.794  30.094  0.00  0.00    +0.044 C 
ENDBRANCH   2  21
ENDBRANCH   6   2
ENDBRANCH  16   6
ENDBRANCH  11  16
TORSDOF 6
ENDMDL
MODEL 8
REMARK VINA RESULT:      -6.3      3.149      4.589
REMARK  Name = 40777129
REMARK  8 active torsions:
REMARK  status: ('A' for Active; 'I' for Inactive)
REMARK    1  A    between atoms: S_2  and  N_6
REMARK    2  A    between atoms: S_2  and  C_21
REMARK    3  A    between atoms: N_6  and  C_16
REMARK    4  A    between atoms: C_10  and  C_17
REMARK    5  A    between atoms: C_11  and  C_16
REMARK    6  A    between atoms: C_19  and  C_22
REMARK    7  A    between atoms: C_20  and  C_23
REMARK    8  A    between atoms: C_30  and  C_34
REMARK                            x       y       z     vdW  Elec       q    Type
REMARK                         _______ _______ _______ _____ _____    ______ ____
ROOT
ATOM      5  N   UNL     1      12.651   9.068   5.972  0.00  0.00    -0.297 NA
ATOM      9  C   UNL     1      15.237   9.032   5.665  0.00  0.00    +0.002 C 
ATOM     10  C   UNL     1      14.528   9.160   4.289  0.00  0.00    +0.055 C 
ATOM     11  C   UNL     1      13.235   7.922   6.718  0.00  0.00    +0.072 C 
ATOM     12  C   UNL     1      14.734   7.761   6.382  0.00  0.00    +0.024 C 
ATOM     13  C   UNL     1      14.785  10.240   6.513  0.00  0.00    +0.019 C 
ATOM     14  C   UNL     1      13.004   8.971   4.533  0.00  0.00    +0.094 C 
ATOM     15  C   UNL     1      13.248  10.313   6.511  0.00  0.00    +0.085 C 
ENDROOT
BRANCH  10  17
ATOM      7  N   UNL     1      16.256   8.615   2.645  0.00  0.00    -0.237 NA
ATOM      8  N   UNL     1      16.003   6.811   1.066  0.00  0.00    -0.232 NA
ATOM     17  C   UNL     1      15.038   8.306   3.136  0.00  0.00    +0.050 A 
ATOM     18  C   UNL     1      14.253   7.279   2.652  0.00  0.00    +0.052 A 
ATOM     19  C   UNL     1      14.793   6.558   1.607  0.00  0.00    +0.076 A 
ATOM     20  C   UNL     1      16.671   7.839   1.625  0.00  0.00    +0.127 A 
ATOM     23  C   UNL     1      18.012   8.150   1.054  0.00  0.00    +0.088 C 
BRANCH  19  22
ATOM      1 BR   UNL     1      13.651   7.119  -1.327  0.00  0.00    -0.050 Br
ATOM     22  C   UNL     1      14.072   5.459   1.009  0.00  0.00    +0.014 A 
ATOM     26  C   UNL     1      13.514   5.549  -0.267  0.00  0.00    +0.027 A 
ATOM     27  C   UNL     1      13.943   4.283   1.746  0.00  0.00    +0.011 A 
ATOM     31  C   UNL     1      12.826   4.460  -0.805  0.00  0.00    +0.016 A 
ATOM     32  C   UNL     1      13.256   3.194   1.208  0.00  0.00    +0.001 A 
ATOM     33  C   UNL     1      12.697   3.283  -0.067  0.00  0.00    +0.001 A 
ENDBRANCH  19  22
ENDBRANCH  10  17
BRANCH  11  16
ATOM     16  C   UNL     1      12.459   6.622   6.493  0.00  0.00    +0.124 C 
BRANCH  16   6
ATOM      6  N   UNL     1      11.342   6.556   7.448  0.00  0.00    -0.188 NA
ATOM     35  H   UNL     1      11.598   6.508   8.442  0.00  0.00    +0.148 HD
BRANCH   6   2
ATOM      2  S   UNL     1       9.861   5.849   6.987  0.00  0.00    +0.058 S 
ATOM      3  O   UNL     1       8.769   6.696   7.426  0.00  0.00    -0.153 OA
ATOM      4  O   UNL     1       9.878   4.441   7.335  0.00  0.00    -0.153 OA
BRANCH   2  21
ATOM     21  C   UNL     1       9.951   5.945   5.224  0.00  0.00    +0.105 A 
ATOM     24  C   UNL     1      10.425   4.857   4.490  0.00  0.00    +0.029 A 
ATOM     25  C   UNL     1       9.547   7.108   4.567  0.00  0.00    +0.029 A 
ATOM     28  C   UNL     1      10.496   4.933   3.099  0.00  0.00    +0.005 A 
ATOM     29  C   UNL     1       9.619   7.183   3.176  0.00  0.00    +0.005 A 
ATOM     30  C   UNL     1      10.093   6.095   2.442  0.00  0.00    -0.050 A 
ATOM     34  C   UNL     1      10.169   6.176   0.954  0.00  0.00    +0.044 C 
ENDBRANCH   2  21
ENDBRANCH   6   2
ENDBRANCH  16   6
ENDBRANCH  11  16
TORSDOF 6
ENDMDL
MODEL 9
REMARK VINA RESULT:      -6.3      3.045      4.501
REMARK  Name = 40777129
REMARK  8 active torsions:
REMARK  status: ('A' for Active; 'I' for Inactive)
REMARK    1  A    between atoms: S_2  and  N_6
REMARK    2  A    between atoms: S_2  and  C_21
REMARK    3  A    between atoms: N_6  and  C_16
REMARK    4  A    between atoms: C_10  and  C_17
REMARK    5  A    between atoms: C_11  and  C_16
REMARK    6  A    between atoms: C_19  and  C_22
REMARK    7  A    between atoms: C_20  and  C_23
REMARK    8  A    between atoms: C_30  and  C_34
REMARK                            x       y       z     vdW  Elec       q    Type
REMARK                         _______ _______ _______ _____ _____    ______ ____
ROOT
ATOM      5  N   UNL     1      13.953   9.368   5.496  0.00  0.00    -0.297 NA
ATOM      9  C   UNL     1      15.775   7.622   4.852  0.00  0.00    +0.002 C 
ATOM     10  C   UNL     1      15.310   8.412   3.596  0.00  0.00    +0.055 C 
ATOM     11  C   UNL     1      13.600   8.036   6.054  0.00  0.00    +0.072 C 
ATOM     12  C   UNL     1      14.553   6.949   5.512  0.00  0.00    +0.024 C 
ATOM     13  C   UNL     1      16.317   8.662   5.855  0.00  0.00    +0.019 C 
ATOM     14  C   UNL     1      14.092   9.281   4.021  0.00  0.00    +0.094 C 
ATOM     15  C   UNL     1      15.265   9.764   6.061  0.00  0.00    +0.085 C 
ENDROOT
BRANCH  10  17
ATOM      7  N   UNL     1      16.109   7.386   1.524  0.00  0.00    -0.237 NA
ATOM      8  N   UNL     1      14.629   6.243   0.004  0.00  0.00    -0.232 NA
ATOM     17  C   UNL     1      15.044   7.633   2.315  0.00  0.00    +0.050 A 
ATOM     18  C   UNL     1      13.759   7.224   2.023  0.00  0.00    +0.052 A 
ATOM     19  C   UNL     1      13.610   6.525   0.842  0.00  0.00    +0.076 A 
ATOM     20  C   UNL     1      15.834   6.697   0.400  0.00  0.00    +0.127 A 
ATOM     23  C   UNL     1      16.985   6.406  -0.502  0.00  0.00    +0.088 C 
BRANCH  19  22
ATOM      1 BR   UNL     1      12.930   3.524   1.710  0.00  0.00    -0.050 Br
ATOM     22  C   UNL     1      12.317   6.043   0.419  0.00  0.00    +0.014 A 
ATOM     26  C   UNL     1      11.874   4.755   0.720  0.00  0.00    +0.027 A 
ATOM     27  C   UNL     1      11.503   6.907  -0.311  0.00  0.00    +0.011 A 
ATOM     31  C   UNL     1      10.615   4.332   0.291  0.00  0.00    +0.016 A 
ATOM     32  C   UNL     1      10.244   6.486  -0.740  0.00  0.00    +0.001 A 
ATOM     33  C   UNL     1       9.800   5.198  -0.439  0.00  0.00    +0.001 A 
ENDBRANCH  19  22
ENDBRANCH  10  17
BRANCH  11  16
ATOM     16  C   UNL     1      12.131   7.675   5.818  0.00  0.00    +0.124 C 
BRANCH  16   6
ATOM      6  N   UNL     1      12.042   6.272   5.388  0.00  0.00    -0.188 NA
ATOM     35  H   UNL     1      12.779   5.946   4.750  0.00  0.00    +0.148 HD
BRANCH   6   2
ATOM      2  S   UNL     1      10.526   5.500   5.291  0.00  0.00    +0.058 S 
ATOM      3  O   UNL     1       9.962   5.384   6.623  0.00  0.00    -0.153 OA
ATOM      4  O   UNL     1      10.641   4.330   4.443  0.00  0.00    -0.153 OA
BRANCH   2  21
ATOM     21  C   UNL     1       9.572   6.692   4.399  0.00  0.00    +0.105 A 
ATOM     24  C   UNL     1       8.571   7.413   5.051  0.00  0.00    +0.029 A 
ATOM     25  C   UNL     1       9.820   6.911   3.043  0.00  0.00    +0.029 A 
ATOM     28  C   UNL     1       7.818   8.353   4.347  0.00  0.00    +0.005 A 
ATOM     29  C   UNL     1       9.066   7.851   2.340  0.00  0.00    +0.005 A 
ATOM     30  C   UNL     1       8.065   8.572   2.992  0.00  0.00    -0.050 A 
ATOM     34  C   UNL     1       7.260   9.578   2.241  0.00  0.00    +0.044 C 
ENDBRANCH   2  21
ENDBRANCH   6   2
ENDBRANCH  16   6
ENDBRANCH  11  16
TORSDOF 6
ENDMDL
MODEL 10
REMARK VINA RESULT:      -6.2     23.874     26.769
REMARK  Name = 40777129
REMARK  8 active torsions:
REMARK  status: ('A' for Active; 'I' for Inactive)
REMARK    1  A    between atoms: S_2  and  N_6
REMARK    2  A    between atoms: S_2  and  C_21
REMARK    3  A    between atoms: N_6  and  C_16
REMARK    4  A    between atoms: C_10  and  C_17
REMARK    5  A    between atoms: C_11  and  C_16
REMARK    6  A    between atoms: C_19  and  C_22
REMARK    7  A    between atoms: C_20  and  C_23
REMARK    8  A    between atoms: C_30  and  C_34
REMARK                            x       y       z     vdW  Elec       q    Type
REMARK                         _______ _______ _______ _____ _____    ______ ____
ROOT
ATOM      5  N   UNL     1      -5.977 -11.506  17.798  0.00  0.00    -0.297 NA
ATOM      9  C   UNL     1      -7.337 -10.105  16.073  0.00  0.00    +0.002 C 
ATOM     10  C   UNL     1      -7.280 -11.597  15.639  0.00  0.00    +0.055 C 
ATOM     11  C   UNL     1      -5.206 -10.296  17.404  0.00  0.00    +0.072 C 
ATOM     12  C   UNL     1      -5.899  -9.566  16.234  0.00  0.00    +0.024 C 
ATOM     13  C   UNL     1      -7.992 -10.074  17.470  0.00  0.00    +0.019 C 
ATOM     14  C   UNL     1      -6.292 -12.320  16.598  0.00  0.00    +0.094 C 
ATOM     15  C   UNL     1      -7.254 -11.054  18.398  0.00  0.00    +0.085 C 
ENDROOT
BRANCH  10  17
ATOM      7  N   UNL     1      -7.419 -13.106  13.719  0.00  0.00    -0.237 NA
ATOM      8  N   UNL     1      -6.516 -12.525  11.562  0.00  0.00    -0.232 NA
ATOM     17  C   UNL     1      -6.997 -11.909  14.176  0.00  0.00    +0.050 A 
ATOM     18  C   UNL     1      -6.337 -10.979  13.398  0.00  0.00    +0.052 A 
ATOM     19  C   UNL     1      -6.122 -11.345  12.085  0.00  0.00    +0.076 A 
ATOM     20  C   UNL     1      -7.149 -13.346  12.422  0.00  0.00    +0.127 A 
ATOM     23  C   UNL     1      -7.598 -14.660  11.880  0.00  0.00    +0.088 C 
BRANCH  19  22
ATOM      1 BR   UNL     1      -8.029  -9.448  10.356  0.00  0.00    -0.050 Br
ATOM     22  C   UNL     1      -5.441 -10.464  11.168  0.00  0.00    +0.014 A 
ATOM     26  C   UNL     1      -6.133  -9.576  10.344  0.00  0.00    +0.027 A 
ATOM     27  C   UNL     1      -4.049 -10.518  11.119  0.00  0.00    +0.011 A 
ATOM     31  C   UNL     1      -5.432  -8.742   9.472  0.00  0.00    +0.016 A 
ATOM     32  C   UNL     1      -3.347  -9.684  10.248  0.00  0.00    +0.001 A 
ATOM     33  C   UNL     1      -4.039  -8.797   9.424  0.00  0.00    +0.001 A 
ENDBRANCH  19  22
ENDBRANCH  10  17
BRANCH  11  16
ATOM     16  C   UNL     1      -3.742 -10.615  17.089  0.00  0.00    +0.124 C 
BRANCH  16   6
ATOM      6  N   UNL     1      -3.471 -10.296  15.679  0.00  0.00    -0.188 NA
ATOM     35  H   UNL     1      -4.294 -10.158  15.080  0.00  0.00    +0.148 HD
BRANCH   6   2
ATOM      2  S   UNL     1      -2.045 -10.856  14.934  0.00  0.00    +0.058 S 
ATOM      3  O   UNL     1      -1.095 -11.253  15.956  0.00  0.00    -0.153 OA
ATOM      4  O   UNL     1      -1.651  -9.922  13.897  0.00  0.00    -0.153 OA
BRANCH   2  21
ATOM     21  C   UNL     1      -2.614 -12.319  14.121  0.00  0.00    +0.105 A 
ATOM     24  C   UNL     1      -3.545 -13.147  14.749  0.00  0.00    +0.029 A 
ATOM     25  C   UNL     1      -2.132 -12.646  12.853  0.00  0.00    +0.029 A 
ATOM     28  C   UNL     1      -3.994 -14.302  14.109  0.00  0.00    +0.005 A 
ATOM     29  C   UNL     1      -2.582 -13.801  12.213  0.00  0.00    +0.005 A 
ATOM     30  C   UNL     1      -3.513 -14.629  12.841  0.00  0.00    -0.050 A 
ATOM     34  C   UNL     1      -3.994 -15.864  12.157  0.00  0.00    +0.044 C 
ENDBRANCH   2  21
ENDBRANCH   6   2
ENDBRANCH  16   6
ENDBRANCH  11  16
TORSDOF 6
ENDMDL
