MODEL 1
REMARK VINA RESULT:      -6.4      0.000      0.000
REMARK  Name = 28960603
REMARK  12 active torsions:
REMARK  status: ('A' for Active; 'I' for Inactive)
REMARK    1  A    between atoms: O_3  and  C_12
REMARK    2  A    between atoms: O_5  and  C_25
REMARK    3  A    between atoms: O_5  and  C_28
REMARK    4  A    between atoms: N_6  and  C_10
REMARK    5  A    between atoms: N_6  and  C_16
REMARK    6  A    between atoms: N_6  and  C_17
REMARK    7  A    between atoms: N_7  and  C_11
REMARK    8  A    between atoms: N_8  and  C_18
REMARK    9  A    between atoms: N_8  and  C_20
REMARK   10  A    between atoms: N_8  and  C_21
REMARK   11  A    between atoms: N_9  and  C_22
REMARK   12  A    between atoms: C_16  and  C_18
REMARK                            x       y       z     vdW  Elec       q    Type
REMARK                         _______ _______ _______ _____ _____    ______ ____
ROOT
ATOM      1  O   UNL     1      12.330   9.353  21.293  0.00  0.00    -0.342 OA
ATOM      2  O   UNL     1      11.554   7.221  21.779  0.00  0.00    -0.347 OA
ATOM     10  C   UNL     1      13.695   7.461  20.683  0.00  0.00    +0.143 C 
ATOM     11  C   UNL     1      12.022   8.546  19.042  0.00  0.00    +0.136 C 
ATOM     12  C   UNL     1      13.017   7.393  19.295  0.00  0.00    +0.159 C 
ATOM     13  C   UNL     1      11.323   9.041  20.325  0.00  0.00    +0.170 C 
ATOM     14  C   UNL     1      12.730   8.045  21.729  0.00  0.00    +0.270 C 
ATOM     15  C   UNL     1      10.553   7.963  21.066  0.00  0.00    +0.196 C 
ENDROOT
BRANCH  11   7
ATOM      4  O   UNL     1      12.716   8.743  16.270  0.00  0.00    -0.252 OA
ATOM      7  N   UNL     1      12.695   9.652  18.394  0.00  0.00    -0.291 N 
ATOM      9  N   UNL     1      13.645  10.857  16.691  0.00  0.00    -0.269 N 
ATOM     19  C   UNL     1      12.997   9.666  17.030  0.00  0.00    +0.304 C 
ATOM     29  H   UNL     1      13.031  10.416  18.972  0.00  0.00    +0.151 HD
ATOM     31  H   UNL     1      13.803  11.522  17.444  0.00  0.00    +0.156 HD
BRANCH   9  22
ATOM     22  C   UNL     1      14.114  11.258  15.418  0.00  0.00    +0.038 A 
ATOM     23  C   UNL     1      13.259  11.921  14.538  0.00  0.00    +0.069 A 
ATOM     24  C   UNL     1      15.431  10.990  15.044  0.00  0.00    +0.023 A 
ATOM     25  C   UNL     1      13.721  12.316  13.282  0.00  0.00    +0.122 A 
ATOM     26  C   UNL     1      15.893  11.385  13.789  0.00  0.00    +0.005 A 
ATOM     27  C   UNL     1      15.038  12.048  12.907  0.00  0.00    +0.046 A 
BRANCH  25   5
ATOM      5  O   UNL     1      12.886  12.962  12.422  0.00  0.00    -0.495 OA
ATOM     28  C   UNL     1      11.656  12.314  12.103  0.00  0.00    +0.277 C 
ENDBRANCH  25   5
ENDBRANCH   9  22
ENDBRANCH  11   7
BRANCH  12   3
ATOM      3  O   UNL     1      12.310   6.148  19.215  0.00  0.00    -0.388 OA
ATOM     30  H   UNL     1      12.948   5.465  18.947  0.00  0.00    +0.210 HD
ENDBRANCH  12   3
BRANCH  10   6
ATOM      6  N   UNL     1      14.906   8.281  20.612  0.00  0.00    -0.295 NA
ATOM     17  C   UNL     1      15.473   8.468  21.947  0.00  0.00    +0.105 C 
BRANCH   6  16
ATOM     16  C   UNL     1      15.888   7.666  19.721  0.00  0.00    +0.100 C 
BRANCH  16  18
ATOM     18  C   UNL     1      17.233   7.535  20.429  0.00  0.00    +0.099 C 
BRANCH  18   8
ATOM      8  N   UNL     1      17.773   6.194  20.237  0.00  0.00    -0.307 NA
ATOM     20  C   UNL     1      19.221   6.186  20.454  0.00  0.00    +0.104 C 
ATOM     21  C   UNL     1      17.458   5.698  18.897  0.00  0.00    +0.104 C 
ENDBRANCH  18   8
ENDBRANCH  16  18
ENDBRANCH   6  16
ENDBRANCH  10   6
TORSDOF 8
ENDMDL
MODEL 2
REMARK VINA RESULT:      -6.4      4.209      7.693
REMARK  Name = 28960603
REMARK  12 active torsions:
REMARK  status: ('A' for Active; 'I' for Inactive)
REMARK    1  A    between atoms: O_3  and  C_12
REMARK    2  A    between atoms: O_5  and  C_25
REMARK    3  A    between atoms: O_5  and  C_28
REMARK    4  A    between atoms: N_6  and  C_10
REMARK    5  A    between atoms: N_6  and  C_16
REMARK    6  A    between atoms: N_6  and  C_17
REMARK    7  A    between atoms: N_7  and  C_11
REMARK    8  A    between atoms: N_8  and  C_18
REMARK    9  A    between atoms: N_8  and  C_20
REMARK   10  A    between atoms: N_8  and  C_21
REMARK   11  A    between atoms: N_9  and  C_22
REMARK   12  A    between atoms: C_16  and  C_18
REMARK                            x       y       z     vdW  Elec       q    Type
REMARK                         _______ _______ _______ _____ _____    ______ ____
ROOT
ATOM      1  O   UNL     1      15.775   9.686  19.928  0.00  0.00    -0.342 OA
ATOM      2  O   UNL     1      17.178   7.988  20.657  0.00  0.00    -0.347 OA
ATOM     10  C   UNL     1      14.867   7.465  20.173  0.00  0.00    +0.143 C 
ATOM     11  C   UNL     1      14.733   9.230  22.053  0.00  0.00    +0.136 C 
ATOM     12  C   UNL     1      14.470   7.768  21.635  0.00  0.00    +0.159 C 
ATOM     13  C   UNL     1      15.947   9.859  21.337  0.00  0.00    +0.170 C 
ATOM     14  C   UNL     1      16.096   8.297  19.763  0.00  0.00    +0.270 C 
ATOM     15  C   UNL     1      17.249   9.110  21.551  0.00  0.00    +0.196 C 
ENDROOT
BRANCH  11   7
ATOM      4  O   UNL     1      13.706  11.298  23.748  0.00  0.00    -0.252 OA
ATOM      7  N   UNL     1      13.555  10.037  21.817  0.00  0.00    -0.291 N 
ATOM      9  N   UNL     1      11.962  11.637  22.213  0.00  0.00    -0.269 N 
ATOM     19  C   UNL     1      13.122  11.029  22.701  0.00  0.00    +0.304 C 
ATOM     29  H   UNL     1      12.975   9.818  21.013  0.00  0.00    +0.151 HD
ATOM     31  H   UNL     1      11.606  11.295  21.324  0.00  0.00    +0.156 HD
BRANCH   9  22
ATOM     22  C   UNL     1      11.215  12.682  22.806  0.00  0.00    +0.038 A 
ATOM     23  C   UNL     1      11.169  12.805  24.195  0.00  0.00    +0.069 A 
ATOM     24  C   UNL     1      10.523  13.588  22.002  0.00  0.00    +0.023 A 
ATOM     25  C   UNL     1      10.432  13.835  24.780  0.00  0.00    +0.122 A 
ATOM     26  C   UNL     1       9.786  14.618  22.586  0.00  0.00    +0.005 A 
ATOM     27  C   UNL     1       9.740  14.741  23.976  0.00  0.00    +0.046 A 
BRANCH  25   5
ATOM      5  O   UNL     1      10.385  13.954  26.135  0.00  0.00    -0.495 OA
ATOM     28  C   UNL     1      11.262  14.908  26.732  0.00  0.00    +0.277 C 
ENDBRANCH  25   5
ENDBRANCH   9  22
ENDBRANCH  11   7
BRANCH  12   3
ATOM      3  O   UNL     1      15.234   6.901  22.484  0.00  0.00    -0.388 OA
ATOM     30  H   UNL     1      16.134   6.853  22.122  0.00  0.00    +0.210 HD
ENDBRANCH  12   3
BRANCH  10   6
ATOM      6  N   UNL     1      13.748   7.759  19.275  0.00  0.00    -0.295 NA
ATOM     17  C   UNL     1      14.125   7.490  17.888  0.00  0.00    +0.105 C 
BRANCH   6  16
ATOM     16  C   UNL     1      12.574   6.972  19.649  0.00  0.00    +0.100 C 
BRANCH  16  18
ATOM     18  C   UNL     1      11.425   7.895  20.041  0.00  0.00    +0.099 C 
BRANCH  18   8
ATOM      8  N   UNL     1      10.656   7.306  21.131  0.00  0.00    -0.307 NA
ATOM     20  C   UNL     1      10.629   8.204  22.287  0.00  0.00    +0.104 C 
ATOM     21  C   UNL     1      11.211   6.006  21.510  0.00  0.00    +0.104 C 
ENDBRANCH  18   8
ENDBRANCH  16  18
ENDBRANCH   6  16
ENDBRANCH  10   6
TORSDOF 8
ENDMDL
MODEL 3
REMARK VINA RESULT:      -6.2      3.974      7.756
REMARK  Name = 28960603
REMARK  12 active torsions:
REMARK  status: ('A' for Active; 'I' for Inactive)
REMARK    1  A    between atoms: O_3  and  C_12
REMARK    2  A    between atoms: O_5  and  C_25
REMARK    3  A    between atoms: O_5  and  C_28
REMARK    4  A    between atoms: N_6  and  C_10
REMARK    5  A    between atoms: N_6  and  C_16
REMARK    6  A    between atoms: N_6  and  C_17
REMARK    7  A    between atoms: N_7  and  C_11
REMARK    8  A    between atoms: N_8  and  C_18
REMARK    9  A    between atoms: N_8  and  C_20
REMARK   10  A    between atoms: N_8  and  C_21
REMARK   11  A    between atoms: N_9  and  C_22
REMARK   12  A    between atoms: C_16  and  C_18
REMARK                            x       y       z     vdW  Elec       q    Type
REMARK                         _______ _______ _______ _____ _____    ______ ____
ROOT
ATOM      1  O   UNL     1      13.248   9.127  19.048  0.00  0.00    -0.342 OA
ATOM      2  O   UNL     1      11.343   7.952  18.437  0.00  0.00    -0.347 OA
ATOM     10  C   UNL     1      11.644   8.561  20.758  0.00  0.00    +0.143 C 
ATOM     11  C   UNL     1      13.685   7.070  20.228  0.00  0.00    +0.136 C 
ATOM     12  C   UNL     1      12.379   7.229  21.034  0.00  0.00    +0.159 C 
ATOM     13  C   UNL     1      13.639   7.765  18.851  0.00  0.00    +0.170 C 
ATOM     14  C   UNL     1      11.841   8.993  19.294  0.00  0.00    +0.270 C 
ATOM     15  C   UNL     1      12.517   7.283  17.950  0.00  0.00    +0.196 C 
ENDROOT
BRANCH  11   7
ATOM      4  O   UNL     1      16.458   6.539  19.746  0.00  0.00    -0.252 OA
ATOM      7  N   UNL     1      14.808   7.572  20.991  0.00  0.00    -0.291 N 
ATOM      9  N   UNL     1      16.997   7.884  21.593  0.00  0.00    -0.269 N 
ATOM     19  C   UNL     1      16.135   7.261  20.687  0.00  0.00    +0.304 C 
ATOM     29  H   UNL     1      14.617   8.109  21.832  0.00  0.00    +0.151 HD
ATOM     31  H   UNL     1      16.566   8.452  22.317  0.00  0.00    +0.156 HD
BRANCH   9  22
ATOM     22  C   UNL     1      18.410   7.823  21.629  0.00  0.00    +0.038 A 
ATOM     23  C   UNL     1      19.049   6.610  21.885  0.00  0.00    +0.069 A 
ATOM     24  C   UNL     1      19.164   8.977  21.409  0.00  0.00    +0.023 A 
ATOM     25  C   UNL     1      20.443   6.550  21.922  0.00  0.00    +0.122 A 
ATOM     26  C   UNL     1      20.557   8.917  21.445  0.00  0.00    +0.005 A 
ATOM     27  C   UNL     1      21.197   7.704  21.702  0.00  0.00    +0.046 A 
BRANCH  25   5
ATOM      5  O   UNL     1      21.067   5.367  22.173  0.00  0.00    -0.495 OA
ATOM     28  C   UNL     1      21.383   4.548  21.049  0.00  0.00    +0.277 C 
ENDBRANCH  25   5
ENDBRANCH   9  22
ENDBRANCH  11   7
BRANCH  12   3
ATOM      3  O   UNL     1      11.489   6.159  20.688  0.00  0.00    -0.388 OA
ATOM     30  H   UNL     1      10.684   6.556  20.316  0.00  0.00    +0.210 HD
ENDBRANCH  12   3
BRANCH  10   6
ATOM      6  N   UNL     1      12.141   9.606  21.655  0.00  0.00    -0.295 NA
ATOM     17  C   UNL     1      11.895  10.928  21.081  0.00  0.00    +0.105 C 
BRANCH   6  16
ATOM     16  C   UNL     1      11.511   9.493  22.969  0.00  0.00    +0.100 C 
BRANCH  16  18
ATOM     18  C   UNL     1      10.945  10.843  23.399  0.00  0.00    +0.099 C 
BRANCH  18   8
ATOM      8  N   UNL     1      11.533  11.254  24.669  0.00  0.00    -0.307 NA
ATOM     20  C   UNL     1      10.749  12.331  25.276  0.00  0.00    +0.104 C 
ATOM     21  C   UNL     1      12.920  11.679  24.481  0.00  0.00    +0.104 C 
ENDBRANCH  18   8
ENDBRANCH  16  18
ENDBRANCH   6  16
ENDBRANCH  10   6
TORSDOF 8
ENDMDL
MODEL 4
REMARK VINA RESULT:      -6.2      4.923      7.357
REMARK  Name = 28960603
REMARK  12 active torsions:
REMARK  status: ('A' for Active; 'I' for Inactive)
REMARK    1  A    between atoms: O_3  and  C_12
REMARK    2  A    between atoms: O_5  and  C_25
REMARK    3  A    between atoms: O_5  and  C_28
REMARK    4  A    between atoms: N_6  and  C_10
REMARK    5  A    between atoms: N_6  and  C_16
REMARK    6  A    between atoms: N_6  and  C_17
REMARK    7  A    between atoms: N_7  and  C_11
REMARK    8  A    between atoms: N_8  and  C_18
REMARK    9  A    between atoms: N_8  and  C_20
REMARK   10  A    between atoms: N_8  and  C_21
REMARK   11  A    between atoms: N_9  and  C_22
REMARK   12  A    between atoms: C_16  and  C_18
REMARK                            x       y       z     vdW  Elec       q    Type
REMARK                         _______ _______ _______ _____ _____    ______ ____
ROOT
ATOM      1  O   UNL     1      13.191  11.316  24.229  0.00  0.00    -0.342 OA
ATOM      2  O   UNL     1      12.431  13.324  23.349  0.00  0.00    -0.347 OA
ATOM     10  C   UNL     1      12.228  11.315  22.018  0.00  0.00    +0.143 C 
ATOM     11  C   UNL     1      14.769  11.550  22.421  0.00  0.00    +0.136 C 
ATOM     12  C   UNL     1      13.619  11.564  21.391  0.00  0.00    +0.159 C 
ATOM     13  C   UNL     1      14.343  12.057  23.815  0.00  0.00    +0.170 C 
ATOM     14  C   UNL     1      12.158  11.916  23.434  0.00  0.00    +0.270 C 
ATOM     15  C   UNL     1      13.781  13.466  23.817  0.00  0.00    +0.196 C 
ENDROOT
BRANCH  11   7
ATOM      4  O   UNL     1      16.417  10.213  20.498  0.00  0.00    -0.252 OA
ATOM      7  N   UNL     1      15.322  10.217  22.533  0.00  0.00    -0.291 N 
ATOM      9  N   UNL     1      16.505   8.351  21.925  0.00  0.00    -0.269 N 
ATOM     19  C   UNL     1      16.119   9.639  21.542  0.00  0.00    +0.304 C 
ATOM     29  H   UNL     1      15.053   9.650  23.331  0.00  0.00    +0.151 HD
ATOM     31  H   UNL     1      16.171   8.023  22.827  0.00  0.00    +0.156 HD
BRANCH   9  22
ATOM     22  C   UNL     1      17.311   7.437  21.206  0.00  0.00    +0.038 A 
ATOM     23  C   UNL     1      18.623   7.195  21.613  0.00  0.00    +0.069 A 
ATOM     24  C   UNL     1      16.794   6.779  20.090  0.00  0.00    +0.023 A 
ATOM     25  C   UNL     1      19.419   6.294  20.904  0.00  0.00    +0.122 A 
ATOM     26  C   UNL     1      17.589   5.878  19.381  0.00  0.00    +0.005 A 
ATOM     27  C   UNL     1      18.902   5.636  19.788  0.00  0.00    +0.046 A 
BRANCH  25   5
ATOM      5  O   UNL     1      20.699   6.059  21.301  0.00  0.00    -0.495 OA
ATOM     28  C   UNL     1      21.740   6.570  20.470  0.00  0.00    +0.277 C 
ENDBRANCH  25   5
ENDBRANCH   9  22
ENDBRANCH  11   7
BRANCH  12   3
ATOM      3  O   UNL     1      13.587  12.848  20.753  0.00  0.00    -0.388 OA
ATOM     30  H   UNL     1      14.277  12.853  20.069  0.00  0.00    +0.210 HD
ENDBRANCH  12   3
BRANCH  10   6
ATOM      6  N   UNL     1      11.951   9.879  22.075  0.00  0.00    -0.295 NA
ATOM     17  C   UNL     1      10.645   9.636  22.686  0.00  0.00    +0.105 C 
BRANCH   6  16
ATOM     16  C   UNL     1      12.005   9.295  20.735  0.00  0.00    +0.100 C 
BRANCH  16  18
ATOM     18  C   UNL     1      10.943   8.211  20.590  0.00  0.00    +0.099 C 
BRANCH  18   8
ATOM      8  N   UNL     1      11.574   6.904  20.437  0.00  0.00    -0.307 NA
ATOM     20  C   UNL     1      11.190   6.014  21.534  0.00  0.00    +0.104 C 
ATOM     21  C   UNL     1      13.030   7.040  20.381  0.00  0.00    +0.104 C 
ENDBRANCH  18   8
ENDBRANCH  16  18
ENDBRANCH   6  16
ENDBRANCH  10   6
TORSDOF 8
ENDMDL
MODEL 5
REMARK VINA RESULT:      -6.0     11.725     15.186
REMARK  Name = 28960603
REMARK  12 active torsions:
REMARK  status: ('A' for Active; 'I' for Inactive)
REMARK    1  A    between atoms: O_3  and  C_12
REMARK    2  A    between atoms: O_5  and  C_25
REMARK    3  A    between atoms: O_5  and  C_28
REMARK    4  A    between atoms: N_6  and  C_10
REMARK    5  A    between atoms: N_6  and  C_16
REMARK    6  A    between atoms: N_6  and  C_17
REMARK    7  A    between atoms: N_7  and  C_11
REMARK    8  A    between atoms: N_8  and  C_18
REMARK    9  A    between atoms: N_8  and  C_20
REMARK   10  A    between atoms: N_8  and  C_21
REMARK   11  A    between atoms: N_9  and  C_22
REMARK   12  A    between atoms: C_16  and  C_18
REMARK                            x       y       z     vdW  Elec       q    Type
REMARK                         _______ _______ _______ _____ _____    ______ ____
ROOT
ATOM      1  O   UNL     1       9.970   8.165   5.874  0.00  0.00    -0.342 OA
ATOM      2  O   UNL     1       9.589   7.586   8.089  0.00  0.00    -0.347 OA
ATOM     10  C   UNL     1      11.869   7.744   7.300  0.00  0.00    +0.143 C 
ATOM     11  C   UNL     1      10.816   5.907   5.820  0.00  0.00    +0.136 C 
ATOM     12  C   UNL     1      11.858   6.249   6.906  0.00  0.00    +0.159 C 
ATOM     13  C   UNL     1       9.556   6.795   5.886  0.00  0.00    +0.170 C 
ATOM     14  C   UNL     1      10.450   8.335   7.216  0.00  0.00    +0.270 C 
ATOM     15  C   UNL     1       8.826   6.739   7.216  0.00  0.00    +0.196 C 
ENDROOT
BRANCH  11   7
ATOM      4  O   UNL     1      10.543   4.032   3.673  0.00  0.00    -0.252 OA
ATOM      7  N   UNL     1      11.414   6.004   4.505  0.00  0.00    -0.291 N 
ATOM      9  N   UNL     1      11.924   5.397   2.355  0.00  0.00    -0.269 N 
ATOM     19  C   UNL     1      11.228   5.039   3.513  0.00  0.00    +0.304 C 
ATOM     29  H   UNL     1      12.059   6.767   4.325  0.00  0.00    +0.151 HD
ATOM     31  H   UNL     1      12.447   6.269   2.388  0.00  0.00    +0.156 HD
BRANCH   9  22
ATOM     22  C   UNL     1      11.993   4.693   1.131  0.00  0.00    +0.038 A 
ATOM     23  C   UNL     1      10.950   4.792   0.210  0.00  0.00    +0.069 A 
ATOM     24  C   UNL     1      13.104   3.898   0.845  0.00  0.00    +0.023 A 
ATOM     25  C   UNL     1      11.018   4.096  -0.999  0.00  0.00    +0.122 A 
ATOM     26  C   UNL     1      13.172   3.203  -0.363  0.00  0.00    +0.005 A 
ATOM     27  C   UNL     1      12.129   3.302  -1.285  0.00  0.00    +0.046 A 
BRANCH  25   5
ATOM      5  O   UNL     1      10.000   4.192  -1.897  0.00  0.00    -0.495 OA
ATOM     28  C   UNL     1       9.342   5.453  -2.000  0.00  0.00    +0.277 C 
ENDBRANCH  25   5
ENDBRANCH   9  22
ENDBRANCH  11   7
BRANCH  12   3
ATOM      3  O   UNL     1      11.563   5.488   8.085  0.00  0.00    -0.388 OA
ATOM     30  H   UNL     1      10.609   5.304   8.084  0.00  0.00    +0.210 HD
ENDBRANCH  12   3
BRANCH  10   6
ATOM      6  N   UNL     1      12.771   8.490   6.420  0.00  0.00    -0.295 NA
ATOM     17  C   UNL     1      13.022   9.825   6.963  0.00  0.00    +0.105 C 
BRANCH   6  16
ATOM     16  C   UNL     1      14.027   7.765   6.242  0.00  0.00    +0.100 C 
BRANCH  16  18
ATOM     18  C   UNL     1      14.710   8.204   4.951  0.00  0.00    +0.099 C 
BRANCH  18   8
ATOM      8  N   UNL     1      14.076   7.563   3.804  0.00  0.00    -0.307 NA
ATOM     20  C   UNL     1      15.041   6.738   3.076  0.00  0.00    +0.104 C 
ATOM     21  C   UNL     1      13.491   8.566   2.912  0.00  0.00    +0.104 C 
ENDBRANCH  18   8
ENDBRANCH  16  18
ENDBRANCH   6  16
ENDBRANCH  10   6
TORSDOF 8
ENDMDL
MODEL 6
REMARK VINA RESULT:      -5.9     28.412     31.805
REMARK  Name = 28960603
REMARK  12 active torsions:
REMARK  status: ('A' for Active; 'I' for Inactive)
REMARK    1  A    between atoms: O_3  and  C_12
REMARK    2  A    between atoms: O_5  and  C_25
REMARK    3  A    between atoms: O_5  and  C_28
REMARK    4  A    between atoms: N_6  and  C_10
REMARK    5  A    between atoms: N_6  and  C_16
REMARK    6  A    between atoms: N_6  and  C_17
REMARK    7  A    between atoms: N_7  and  C_11
REMARK    8  A    between atoms: N_8  and  C_18
REMARK    9  A    between atoms: N_8  and  C_20
REMARK   10  A    between atoms: N_8  and  C_21
REMARK   11  A    between atoms: N_9  and  C_22
REMARK   12  A    between atoms: C_16  and  C_18
REMARK                            x       y       z     vdW  Elec       q    Type
REMARK                         _______ _______ _______ _____ _____    ______ ____
ROOT
ATOM      1  O   UNL     1     -16.865   0.192  25.017  0.00  0.00    -0.342 OA
ATOM      2  O   UNL     1     -18.485   0.422  26.663  0.00  0.00    -0.347 OA
ATOM     10  C   UNL     1     -18.877   1.414  24.492  0.00  0.00    +0.143 C 
ATOM     11  C   UNL     1     -16.732   2.578  25.337  0.00  0.00    +0.136 C 
ATOM     12  C   UNL     1     -18.219   2.734  24.952  0.00  0.00    +0.159 C 
ATOM     13  C   UNL     1     -16.399   1.192  25.928  0.00  0.00    +0.170 C 
ATOM     14  C   UNL     1     -18.280   0.217  25.255  0.00  0.00    +0.270 C 
ATOM     15  C   UNL     1     -17.204   0.835  27.164  0.00  0.00    +0.196 C 
ENDROOT
BRANCH  11   7
ATOM      4  O   UNL     1     -15.884   5.139  24.376  0.00  0.00    -0.252 OA
ATOM      7  N   UNL     1     -15.889   2.835  24.189  0.00  0.00    -0.291 N 
ATOM      9  N   UNL     1     -14.710   4.060  22.653  0.00  0.00    -0.269 N 
ATOM     19  C   UNL     1     -15.523   4.122  23.788  0.00  0.00    +0.304 C 
ATOM     29  H   UNL     1     -15.618   2.050  23.606  0.00  0.00    +0.151 HD
ATOM     31  H   UNL     1     -14.504   3.134  22.288  0.00  0.00    +0.156 HD
BRANCH   9  22
ATOM     22  C   UNL     1     -14.132   5.136  21.940  0.00  0.00    +0.038 A 
ATOM     23  C   UNL     1     -14.945   6.019  21.228  0.00  0.00    +0.069 A 
ATOM     24  C   UNL     1     -12.748   5.315  21.947  0.00  0.00    +0.023 A 
ATOM     25  C   UNL     1     -14.375   7.080  20.524  0.00  0.00    +0.122 A 
ATOM     26  C   UNL     1     -12.178   6.376  21.244  0.00  0.00    +0.005 A 
ATOM     27  C   UNL     1     -12.991   7.258  20.532  0.00  0.00    +0.046 A 
BRANCH  25   5
ATOM      5  O   UNL     1     -15.168   7.940  19.829  0.00  0.00    -0.495 OA
ATOM     28  C   UNL     1     -16.546   7.593  19.702  0.00  0.00    +0.277 C 
ENDBRANCH  25   5
ENDBRANCH   9  22
ENDBRANCH  11   7
BRANCH  12   3
ATOM      3  O   UNL     1     -18.944   3.209  26.095  0.00  0.00    -0.388 OA
ATOM     30  H   UNL     1     -18.910   4.180  26.081  0.00  0.00    +0.210 HD
ENDBRANCH  12   3
BRANCH  10   6
ATOM      6  N   UNL     1     -18.685   1.229  23.053  0.00  0.00    -0.295 NA
ATOM     17  C   UNL     1     -19.264  -0.043  22.621  0.00  0.00    +0.105 C 
BRANCH   6  16
ATOM     16  C   UNL     1     -19.281   2.340  22.312  0.00  0.00    +0.100 C 
BRANCH  16  18
ATOM     18  C   UNL     1     -18.689   2.414  20.908  0.00  0.00    +0.099 C 
BRANCH  18   8
ATOM      8  N   UNL     1     -17.964   3.668  20.734  0.00  0.00    -0.307 NA
ATOM     20  C   UNL     1     -18.455   4.682  21.669  0.00  0.00    +0.104 C 
ATOM     21  C   UNL     1     -18.086   4.147  19.356  0.00  0.00    +0.104 C 
ENDBRANCH  18   8
ENDBRANCH  16  18
ENDBRANCH   6  16
ENDBRANCH  10   6
TORSDOF 8
ENDMDL
MODEL 7
REMARK VINA RESULT:      -5.8      6.890     11.130
REMARK  Name = 28960603
REMARK  12 active torsions:
REMARK  status: ('A' for Active; 'I' for Inactive)
REMARK    1  A    between atoms: O_3  and  C_12
REMARK    2  A    between atoms: O_5  and  C_25
REMARK    3  A    between atoms: O_5  and  C_28
REMARK    4  A    between atoms: N_6  and  C_10
REMARK    5  A    between atoms: N_6  and  C_16
REMARK    6  A    between atoms: N_6  and  C_17
REMARK    7  A    between atoms: N_7  and  C_11
REMARK    8  A    between atoms: N_8  and  C_18
REMARK    9  A    between atoms: N_8  and  C_20
REMARK   10  A    between atoms: N_8  and  C_21
REMARK   11  A    between atoms: N_9  and  C_22
REMARK   12  A    between atoms: C_16  and  C_18
REMARK                            x       y       z     vdW  Elec       q    Type
REMARK                         _______ _______ _______ _____ _____    ______ ____
ROOT
ATOM      1  O   UNL     1      24.486   2.015  20.185  0.00  0.00    -0.342 OA
ATOM      2  O   UNL     1      26.613   2.708  20.804  0.00  0.00    -0.347 OA
ATOM     10  C   UNL     1      24.794   2.975  22.376  0.00  0.00    +0.143 C 
ATOM     11  C   UNL     1      24.076   4.386  20.335  0.00  0.00    +0.136 C 
ATOM     12  C   UNL     1      24.494   4.386  21.821  0.00  0.00    +0.159 C 
ATOM     13  C   UNL     1      24.735   3.256  19.518  0.00  0.00    +0.170 C 
ATOM     14  C   UNL     1      25.409   2.083  21.281  0.00  0.00    +0.270 C 
ATOM     15  C   UNL     1      26.253   3.280  19.537  0.00  0.00    +0.196 C 
ENDROOT
BRANCH  11   7
ATOM      4  O   UNL     1      22.194   6.518  20.675  0.00  0.00    -0.252 OA
ATOM      7  N   UNL     1      22.636   4.295  20.222  0.00  0.00    -0.291 N 
ATOM      9  N   UNL     1      20.456   5.003  20.235  0.00  0.00    -0.269 N 
ATOM     19  C   UNL     1      21.788   5.390  20.405  0.00  0.00    +0.304 C 
ATOM     29  H   UNL     1      22.221   3.379  20.081  0.00  0.00    +0.151 HD
ATOM     31  H   UNL     1      20.289   4.025  20.012  0.00  0.00    +0.156 HD
BRANCH   9  22
ATOM     22  C   UNL     1      19.298   5.809  20.335  0.00  0.00    +0.038 A 
ATOM     23  C   UNL     1      18.217   5.585  19.482  0.00  0.00    +0.069 A 
ATOM     24  C   UNL     1      19.237   6.828  21.286  0.00  0.00    +0.023 A 
ATOM     25  C   UNL     1      17.075   6.381  19.579  0.00  0.00    +0.122 A 
ATOM     26  C   UNL     1      18.095   7.623  21.384  0.00  0.00    +0.005 A 
ATOM     27  C   UNL     1      17.014   7.400  20.531  0.00  0.00    +0.046 A 
BRANCH  25   5
ATOM      5  O   UNL     1      16.021   6.164  18.746  0.00  0.00    -0.495 OA
ATOM     28  C   UNL     1      14.972   7.130  18.761  0.00  0.00    +0.277 C 
ENDBRANCH  25   5
ENDBRANCH   9  22
ENDBRANCH  11   7
BRANCH  12   3
ATOM      3  O   UNL     1      25.683   5.174  21.966  0.00  0.00    -0.388 OA
ATOM     30  H   UNL     1      25.673   5.559  22.859  0.00  0.00    +0.210 HD
ENDBRANCH  12   3
BRANCH  10   6
ATOM      6  N   UNL     1      23.566   2.360  22.883  0.00  0.00    -0.295 NA
ATOM     17  C   UNL     1      23.884   1.244  23.772  0.00  0.00    +0.105 C 
BRANCH   6  16
ATOM     16  C   UNL     1      22.749   3.353  23.580  0.00  0.00    +0.100 C 
BRANCH  16  18
ATOM     18  C   UNL     1      22.924   3.213  25.088  0.00  0.00    +0.099 C 
BRANCH  18   8
ATOM      8  N   UNL     1      22.518   4.444  25.758  0.00  0.00    -0.307 NA
ATOM     20  C   UNL     1      22.464   5.555  24.807  0.00  0.00    +0.104 C 
ATOM     21  C   UNL     1      23.432   4.759  26.856  0.00  0.00    +0.104 C 
ENDBRANCH  18   8
ENDBRANCH  16  18
ENDBRANCH   6  16
ENDBRANCH  10   6
TORSDOF 8
ENDMDL
MODEL 8
REMARK VINA RESULT:      -5.8     26.214     28.127
REMARK  Name = 28960603
REMARK  12 active torsions:
REMARK  status: ('A' for Active; 'I' for Inactive)
REMARK    1  A    between atoms: O_3  and  C_12
REMARK    2  A    between atoms: O_5  and  C_25
REMARK    3  A    between atoms: O_5  and  C_28
REMARK    4  A    between atoms: N_6  and  C_10
REMARK    5  A    between atoms: N_6  and  C_16
REMARK    6  A    between atoms: N_6  and  C_17
REMARK    7  A    between atoms: N_7  and  C_11
REMARK    8  A    between atoms: N_8  and  C_18
REMARK    9  A    between atoms: N_8  and  C_20
REMARK   10  A    between atoms: N_8  and  C_21
REMARK   11  A    between atoms: N_9  and  C_22
REMARK   12  A    between atoms: C_16  and  C_18
REMARK                            x       y       z     vdW  Elec       q    Type
REMARK                         _______ _______ _______ _____ _____    ______ ____
ROOT
ATOM      1  O   UNL     1      -7.387  -9.177  17.627  0.00  0.00    -0.342 OA
ATOM      2  O   UNL     1      -8.681 -10.852  18.578  0.00  0.00    -0.347 OA
ATOM     10  C   UNL     1      -6.667 -11.467  17.389  0.00  0.00    +0.143 C 
ATOM     11  C   UNL     1      -8.112 -10.278  15.608  0.00  0.00    +0.136 C 
ATOM     12  C   UNL     1      -7.461 -11.599  16.069  0.00  0.00    +0.159 C 
ATOM     13  C   UNL     1      -8.524  -9.362  16.779  0.00  0.00    +0.170 C 
ATOM     14  C   UNL     1      -7.330 -10.434  18.318  0.00  0.00    +0.270 C 
ATOM     15  C   UNL     1      -9.494 -10.001  17.755  0.00  0.00    +0.196 C 
ENDROOT
BRANCH  11   7
ATOM      4  O   UNL     1      -7.522 -10.933  12.883  0.00  0.00    -0.252 OA
ATOM      7  N   UNL     1      -7.219  -9.564  14.721  0.00  0.00    -0.291 N 
ATOM      9  N   UNL     1      -6.082  -9.082  12.790  0.00  0.00    -0.269 N 
ATOM     19  C   UNL     1      -6.987  -9.955  13.400  0.00  0.00    +0.304 C 
ATOM     29  H   UNL     1      -6.678  -8.793  15.100  0.00  0.00    +0.151 HD
ATOM     31  H   UNL     1      -5.731  -8.317  13.360  0.00  0.00    +0.156 HD
BRANCH   9  22
ATOM     22  C   UNL     1      -5.589  -9.129  11.465  0.00  0.00    +0.038 A 
ATOM     23  C   UNL     1      -6.430  -8.814  10.397  0.00  0.00    +0.069 A 
ATOM     24  C   UNL     1      -4.263  -9.490  11.226  0.00  0.00    +0.023 A 
ATOM     25  C   UNL     1      -5.944  -8.860   9.089  0.00  0.00    +0.122 A 
ATOM     26  C   UNL     1      -3.777  -9.536   9.920  0.00  0.00    +0.005 A 
ATOM     27  C   UNL     1      -4.618  -9.222   8.851  0.00  0.00    +0.046 A 
BRANCH  25   5
ATOM      5  O   UNL     1      -6.764  -8.555   8.048  0.00  0.00    -0.495 OA
ATOM     28  C   UNL     1      -7.828  -7.640   8.305  0.00  0.00    +0.277 C 
ENDBRANCH  25   5
ENDBRANCH   9  22
ENDBRANCH  11   7
BRANCH  12   3
ATOM      3  O   UNL     1      -8.492 -12.574  16.276  0.00  0.00    -0.388 OA
ATOM     30  H   UNL     1      -8.061 -13.414  16.504  0.00  0.00    +0.210 HD
ENDBRANCH  12   3
BRANCH  10   6
ATOM      6  N   UNL     1      -5.287 -11.066  17.108  0.00  0.00    -0.295 NA
ATOM     17  C   UNL     1      -4.448 -11.270  18.288  0.00  0.00    +0.105 C 
BRANCH   6  16
ATOM     16  C   UNL     1      -4.759 -11.816  15.969  0.00  0.00    +0.100 C 
BRANCH  16  18
ATOM     18  C   UNL     1      -3.775 -10.957  15.183  0.00  0.00    +0.099 C 
BRANCH  18   8
ATOM      8  N   UNL     1      -2.441 -11.545  15.234  0.00  0.00    -0.307 NA
ATOM     20  C   UNL     1      -1.519 -10.671  15.962  0.00  0.00    +0.104 C 
ATOM     21  C   UNL     1      -1.938 -11.800  13.883  0.00  0.00    +0.104 C 
ENDBRANCH  18   8
ENDBRANCH  16  18
ENDBRANCH   6  16
ENDBRANCH  10   6
TORSDOF 8
ENDMDL
MODEL 9
REMARK VINA RESULT:      -5.5      3.941      7.314
REMARK  Name = 28960603
REMARK  12 active torsions:
REMARK  status: ('A' for Active; 'I' for Inactive)
REMARK    1  A    between atoms: O_3  and  C_12
REMARK    2  A    between atoms: O_5  and  C_25
REMARK    3  A    between atoms: O_5  and  C_28
REMARK    4  A    between atoms: N_6  and  C_10
REMARK    5  A    between atoms: N_6  and  C_16
REMARK    6  A    between atoms: N_6  and  C_17
REMARK    7  A    between atoms: N_7  and  C_11
REMARK    8  A    between atoms: N_8  and  C_18
REMARK    9  A    between atoms: N_8  and  C_20
REMARK   10  A    between atoms: N_8  and  C_21
REMARK   11  A    between atoms: N_9  and  C_22
REMARK   12  A    between atoms: C_16  and  C_18
REMARK                            x       y       z     vdW  Elec       q    Type
REMARK                         _______ _______ _______ _____ _____    ______ ____
ROOT
ATOM      1  O   UNL     1      20.106  10.400  20.910  0.00  0.00    -0.342 OA
ATOM      2  O   UNL     1      21.115  10.694  22.978  0.00  0.00    -0.347 OA
ATOM     10  C   UNL     1      21.109   8.488  21.986  0.00  0.00    +0.143 C 
ATOM     11  C   UNL     1      18.606   9.068  22.248  0.00  0.00    +0.136 C 
ATOM     12  C   UNL     1      19.771   8.155  22.684  0.00  0.00    +0.159 C 
ATOM     13  C   UNL     1      19.058  10.497  21.879  0.00  0.00    +0.170 C 
ATOM     14  C   UNL     1      21.219  10.001  21.723  0.00  0.00    +0.270 C 
ATOM     15  C   UNL     1      19.781  11.226  22.996  0.00  0.00    +0.196 C 
ENDROOT
BRANCH  11   7
ATOM      4  O   UNL     1      15.796   9.242  21.718  0.00  0.00    -0.252 OA
ATOM      7  N   UNL     1      17.897   8.477  21.133  0.00  0.00    -0.291 N 
ATOM      9  N   UNL     1      16.117   7.935  19.795  0.00  0.00    -0.269 N 
ATOM     19  C   UNL     1      16.519   8.610  20.950  0.00  0.00    +0.304 C 
ATOM     29  H   UNL     1      18.414   7.873  20.501  0.00  0.00    +0.151 HD
ATOM     31  H   UNL     1      16.845   7.459  19.267  0.00  0.00    +0.156 HD
BRANCH   9  22
ATOM     22  C   UNL     1      14.812   7.828  19.261  0.00  0.00    +0.038 A 
ATOM     23  C   UNL     1      13.862   7.029  19.896  0.00  0.00    +0.069 A 
ATOM     24  C   UNL     1      14.475   8.522  18.098  0.00  0.00    +0.023 A 
ATOM     25  C   UNL     1      12.574   6.923  19.369  0.00  0.00    +0.122 A 
ATOM     26  C   UNL     1      13.188   8.417  17.571  0.00  0.00    +0.005 A 
ATOM     27  C   UNL     1      12.237   7.617  18.206  0.00  0.00    +0.046 A 
BRANCH  25   5
ATOM      5  O   UNL     1      11.647   6.142  19.988  0.00  0.00    -0.495 OA
ATOM     28  C   UNL     1      11.522   6.282  21.402  0.00  0.00    +0.277 C 
ENDBRANCH  25   5
ENDBRANCH   9  22
ENDBRANCH  11   7
BRANCH  12   3
ATOM      3  O   UNL     1      19.967   8.300  24.097  0.00  0.00    -0.388 OA
ATOM     30  H   UNL     1      19.550   9.134  24.367  0.00  0.00    +0.210 HD
ENDBRANCH  12   3
BRANCH  10   6
ATOM      6  N   UNL     1      21.214   7.757  20.722  0.00  0.00    -0.295 NA
ATOM     17  C   UNL     1      22.548   7.926  20.146  0.00  0.00    +0.105 C 
BRANCH   6  16
ATOM     16  C   UNL     1      20.921   6.339  20.927  0.00  0.00    +0.100 C 
BRANCH  16  18
ATOM     18  C   UNL     1      22.085   5.485  20.436  0.00  0.00    +0.099 C 
BRANCH  18   8
ATOM      8  N   UNL     1      22.411   4.462  21.424  0.00  0.00    -0.307 NA
ATOM     20  C   UNL     1      21.650   3.237  21.169  0.00  0.00    +0.104 C 
ATOM     21  C   UNL     1      22.145   4.951  22.778  0.00  0.00    +0.104 C 
ENDBRANCH  18   8
ENDBRANCH  16  18
ENDBRANCH   6  16
ENDBRANCH  10   6
TORSDOF 8
ENDMDL
MODEL 10
REMARK VINA RESULT:      -5.4     27.128     29.431
REMARK  Name = 28960603
REMARK  12 active torsions:
REMARK  status: ('A' for Active; 'I' for Inactive)
REMARK    1  A    between atoms: O_3  and  C_12
REMARK    2  A    between atoms: O_5  and  C_25
REMARK    3  A    between atoms: O_5  and  C_28
REMARK    4  A    between atoms: N_6  and  C_10
REMARK    5  A    between atoms: N_6  and  C_16
REMARK    6  A    between atoms: N_6  and  C_17
REMARK    7  A    between atoms: N_7  and  C_11
REMARK    8  A    between atoms: N_8  and  C_18
REMARK    9  A    between atoms: N_8  and  C_20
REMARK   10  A    between atoms: N_8  and  C_21
REMARK   11  A    between atoms: N_9  and  C_22
REMARK   12  A    between atoms: C_16  and  C_18
REMARK                            x       y       z     vdW  Elec       q    Type
REMARK                         _______ _______ _______ _____ _____    ______ ____
ROOT
ATOM      1  O   UNL     1      -4.850 -10.223  18.167  0.00  0.00    -0.342 OA
ATOM      2  O   UNL     1      -4.429 -12.330  19.042  0.00  0.00    -0.347 OA
ATOM     10  C   UNL     1      -4.659 -12.086  16.647  0.00  0.00    +0.143 C 
ATOM     11  C   UNL     1      -6.931 -11.290  17.582  0.00  0.00    +0.136 C 
ATOM     12  C   UNL     1      -6.179 -12.347  16.745  0.00  0.00    +0.159 C 
ATOM     13  C   UNL     1      -6.078 -10.699  18.724  0.00  0.00    +0.170 C 
ATOM     14  C   UNL     1      -4.135 -11.448  17.947  0.00  0.00    +0.270 C 
ATOM     15  C   UNL     1      -5.554 -11.732  19.705  0.00  0.00    +0.196 C 
ENDROOT
BRANCH  11   7
ATOM      4  O   UNL     1      -9.568 -10.173  17.553  0.00  0.00    -0.252 OA
ATOM      7  N   UNL     1      -7.410 -10.224  16.728  0.00  0.00    -0.291 N 
ATOM      9  N   UNL     1      -8.891  -8.716  15.842  0.00  0.00    -0.269 N 
ATOM     19  C   UNL     1      -8.719  -9.738  16.779  0.00  0.00    +0.304 C 
ATOM     29  H   UNL     1      -6.789  -9.870  16.007  0.00  0.00    +0.151 HD
ATOM     31  H   UNL     1      -8.082  -8.474  15.275  0.00  0.00    +0.156 HD
BRANCH   9  22
ATOM     22  C   UNL     1     -10.062  -7.968  15.579  0.00  0.00    +0.038 A 
ATOM     23  C   UNL     1     -10.849  -8.271  14.468  0.00  0.00    +0.069 A 
ATOM     24  C   UNL     1     -10.429  -6.925  16.431  0.00  0.00    +0.023 A 
ATOM     25  C   UNL     1     -12.004  -7.532  14.209  0.00  0.00    +0.122 A 
ATOM     26  C   UNL     1     -11.583  -6.186  16.171  0.00  0.00    +0.005 A 
ATOM     27  C   UNL     1     -12.371  -6.490  15.060  0.00  0.00    +0.046 A 
BRANCH  25   5
ATOM      5  O   UNL     1     -12.772  -7.828  13.124  0.00  0.00    -0.495 OA
ATOM     28  C   UNL     1     -13.944  -7.040  12.925  0.00  0.00    +0.277 C 
ENDBRANCH  25   5
ENDBRANCH   9  22
ENDBRANCH  11   7
BRANCH  12   3
ATOM      3  O   UNL     1      -6.364 -13.633  17.351  0.00  0.00    -0.388 OA
ATOM     30  H   UNL     1      -7.290 -13.690  17.642  0.00  0.00    +0.210 HD
ENDBRANCH  12   3
BRANCH  10   6
ATOM      6  N   UNL     1      -4.370 -11.208  15.512  0.00  0.00    -0.295 NA
ATOM     17  C   UNL     1      -2.937 -11.209  15.219  0.00  0.00    +0.105 C 
BRANCH   6  16
ATOM     16  C   UNL     1      -5.133 -11.625  14.336  0.00  0.00    +0.100 C 
BRANCH  16  18
ATOM     18  C   UNL     1      -5.660 -10.404  13.590  0.00  0.00    +0.099 C 
BRANCH  18   8
ATOM      8  N   UNL     1      -7.119 -10.400  13.600  0.00  0.00    -0.307 NA
ATOM     20  C   UNL     1      -7.639 -11.761  13.463  0.00  0.00    +0.104 C 
ATOM     21  C   UNL     1      -7.639  -9.548  12.530  0.00  0.00    +0.104 C 
ENDBRANCH  18   8
ENDBRANCH  16  18
ENDBRANCH   6  16
ENDBRANCH  10   6
TORSDOF 8
ENDMDL
