MODEL 1
REMARK VINA RESULT:      -6.1      0.000      0.000
REMARK  Name = 11883007
REMARK  12 active torsions:
REMARK  status: ('A' for Active; 'I' for Inactive)
REMARK    1  A    between atoms: O_2  and  C_14
REMARK    2  A    between atoms: O_3  and  C_19
REMARK    3  A    between atoms: N_7  and  C_25
REMARK    4  A    between atoms: C_9  and  C_17
REMARK    5  A    between atoms: C_11  and  C_19
REMARK    6  A    between atoms: C_11  and  C_20
REMARK    7  A    between atoms: C_12  and  C_22
REMARK    8  A    between atoms: C_22  and  C_23
REMARK    9  A    between atoms: C_28  and  C_29
REMARK   10  A    between atoms: C_29  and  C_30
REMARK   11  A    between atoms: C_29  and  C_31
REMARK   12  A    between atoms: C_29  and  C_32
REMARK                            x       y       z     vdW  Elec       q    Type
REMARK                         _______ _______ _______ _____ _____    ______ ____
ROOT
ATOM      1  S   UNL     1      -8.549 -10.323  12.817  0.00  0.00    -0.057 S 
ATOM      5  O   UNL     1      -3.937  -9.910  12.504  0.00  0.00    -0.275 OA
ATOM      6  N   UNL     1      -6.342 -10.253  14.164  0.00  0.00    -0.229 NA
ATOM      8  N   UNL     1      -6.163 -10.032  11.770  0.00  0.00    -0.264 N 
ATOM      9  C   UNL     1      -8.458 -10.301  17.386  0.00  0.00    -0.019 C 
ATOM     10  C   UNL     1      -9.618 -11.154  16.705  0.00  0.00    +0.011 C 
ATOM     11  C   UNL     1     -10.914 -11.414  17.566  0.00  0.00    +0.021 C 
ATOM     12  C   UNL     1      -7.119 -10.533  16.547  0.00  0.00    +0.054 C 
ATOM     13  C   UNL     1      -8.224 -10.811  18.832  0.00  0.00    +0.010 C 
ATOM     14  C   UNL     1     -10.500 -11.871  18.992  0.00  0.00    +0.123 C 
ATOM     15  C   UNL     1      -9.913 -10.660  15.260  0.00  0.00    +0.049 C 
ATOM     16  C   UNL     1      -9.498 -10.934  19.657  0.00  0.00    +0.032 C 
ATOM     17  C   UNL     1      -8.777  -8.787  17.439  0.00  0.00    +0.012 C 
ATOM     18  C   UNL     1      -7.376 -10.406  15.068  0.00  0.00    +0.058 A 
ATOM     20  C   UNL     1     -11.724 -12.576  16.924  0.00  0.00    +0.016 C 
ATOM     21  C   UNL     1      -8.636 -10.484  14.509  0.00  0.00    +0.015 A 
ATOM     24  C   UNL     1      -6.842 -10.189  12.949  0.00  0.00    +0.165 A 
ATOM     28  C   UNL     1      -4.770  -9.901  11.602  0.00  0.00    +0.224 C 
ATOM     36  H   UNL     1      -6.756 -10.010  10.947  0.00  0.00    +0.157 HD
ENDROOT
BRANCH  28  29
ATOM     29  C   UNL     1      -4.333  -9.736  10.123  0.00  0.00    +0.039 C 
ATOM     30  C   UNL     1      -5.298  -8.771   9.407  0.00  0.00    +0.020 C 
ATOM     31  C   UNL     1      -4.380 -11.092   9.401  0.00  0.00    +0.020 C 
ATOM     32  C   UNL     1      -2.916  -9.145  10.051  0.00  0.00    +0.020 C 
ENDBRANCH  28  29
BRANCH  14   2
ATOM      2  O   UNL     1     -11.645 -11.991  19.835  0.00  0.00    -0.391 OA
ATOM     33  H   UNL     1     -12.258 -11.272  19.604  0.00  0.00    +0.210 HD
ENDBRANCH  14   2
BRANCH  11  19
ATOM     19  C   UNL     1     -11.889 -10.217  17.633  0.00  0.00    +0.165 C 
BRANCH  19   3
ATOM      3  O   UNL     1     -13.201 -10.722  17.520  0.00  0.00    -0.394 OA
ATOM     34  H   UNL     1     -13.211 -11.599  17.941  0.00  0.00    +0.209 HD
ENDBRANCH  19   3
ENDBRANCH  11  19
BRANCH  12  22
ATOM     22  C   UNL     1      -5.932  -9.665  16.987  0.00  0.00    +0.106 C 
BRANCH  22  23
ATOM      4  O   UNL     1      -4.544 -11.267  18.158  0.00  0.00    -0.276 OA
ATOM      7  N   UNL     1      -3.734 -10.241  16.241  0.00  0.00    -0.312 N 
ATOM     23  C   UNL     1      -4.686 -10.487  17.221  0.00  0.00    +0.214 C 
ATOM     35  H   UNL     1      -3.932  -9.572  15.501  0.00  0.00    +0.149 HD
BRANCH   7  25
ATOM     25  C   UNL     1      -2.455 -10.892  16.226  0.00  0.00    +0.073 C 
ATOM     26  C   UNL     1      -1.234 -10.191  15.704  0.00  0.00    +0.024 C 
ATOM     27  C   UNL     1      -1.826 -11.339  14.940  0.00  0.00    +0.024 C 
ENDBRANCH   7  25
ENDBRANCH  22  23
ENDBRANCH  12  22
TORSDOF 7
ENDMDL
MODEL 2
REMARK VINA RESULT:      -6.1      2.276      3.468
REMARK  Name = 11883007
REMARK  12 active torsions:
REMARK  status: ('A' for Active; 'I' for Inactive)
REMARK    1  A    between atoms: O_2  and  C_14
REMARK    2  A    between atoms: O_3  and  C_19
REMARK    3  A    between atoms: N_7  and  C_25
REMARK    4  A    between atoms: C_9  and  C_17
REMARK    5  A    between atoms: C_11  and  C_19
REMARK    6  A    between atoms: C_11  and  C_20
REMARK    7  A    between atoms: C_12  and  C_22
REMARK    8  A    between atoms: C_22  and  C_23
REMARK    9  A    between atoms: C_28  and  C_29
REMARK   10  A    between atoms: C_29  and  C_30
REMARK   11  A    between atoms: C_29  and  C_31
REMARK   12  A    between atoms: C_29  and  C_32
REMARK                            x       y       z     vdW  Elec       q    Type
REMARK                         _______ _______ _______ _____ _____    ______ ____
ROOT
ATOM      1  S   UNL     1      -7.194  -9.814  13.085  0.00  0.00    -0.057 S 
ATOM      5  O   UNL     1      -3.638 -10.811  15.896  0.00  0.00    -0.275 OA
ATOM      6  N   UNL     1      -6.497 -10.209  15.544  0.00  0.00    -0.229 NA
ATOM      8  N   UNL     1      -4.760 -10.377  13.881  0.00  0.00    -0.264 N 
ATOM      9  C   UNL     1     -10.070  -9.201  16.585  0.00  0.00    -0.019 C 
ATOM     10  C   UNL     1     -10.705  -9.763  15.236  0.00  0.00    +0.011 C 
ATOM     11  C   UNL     1     -12.246  -9.514  15.015  0.00  0.00    +0.021 C 
ATOM     12  C   UNL     1      -8.662  -9.925  16.805  0.00  0.00    +0.054 C 
ATOM     13  C   UNL     1     -10.995  -9.557  17.778  0.00  0.00    +0.010 C 
ATOM     14  C   UNL     1     -13.017  -9.875  16.315  0.00  0.00    +0.123 C 
ATOM     15  C   UNL     1      -9.827  -9.404  14.003  0.00  0.00    +0.049 C 
ATOM     16  C   UNL     1     -12.456  -9.190  17.556  0.00  0.00    +0.032 C 
ATOM     17  C   UNL     1      -9.861  -7.667  16.558  0.00  0.00    +0.012 C 
ATOM     18  C   UNL     1      -7.850  -9.930  15.536  0.00  0.00    +0.058 A 
ATOM     20  C   UNL     1     -12.757 -10.465  13.896  0.00  0.00    +0.016 C 
ATOM     21  C   UNL     1      -8.396  -9.712  14.287  0.00  0.00    +0.015 A 
ATOM     24  C   UNL     1      -6.044 -10.167  14.311  0.00  0.00    +0.165 A 
ATOM     28  C   UNL     1      -3.637 -10.682  14.674  0.00  0.00    +0.224 C 
ATOM     36  H   UNL     1      -4.638 -10.294  12.877  0.00  0.00    +0.157 HD
ENDROOT
BRANCH  28  29
ATOM     29  C   UNL     1      -2.327 -10.853  13.863  0.00  0.00    +0.039 C 
ATOM     30  C   UNL     1      -2.598 -10.540  12.379  0.00  0.00    +0.020 C 
ATOM     31  C   UNL     1      -1.823 -12.301  13.968  0.00  0.00    +0.020 C 
ATOM     32  C   UNL     1      -1.254  -9.879  14.374  0.00  0.00    +0.020 C 
ENDBRANCH  28  29
BRANCH  14   2
ATOM      2  O   UNL     1     -14.398  -9.540  16.192  0.00  0.00    -0.391 OA
ATOM     33  H   UNL     1     -14.466  -8.783  15.585  0.00  0.00    +0.210 HD
ENDBRANCH  14   2
BRANCH  11  19
ATOM     19  C   UNL     1     -12.603  -8.088  14.541  0.00  0.00    +0.165 C 
BRANCH  19   3
ATOM      3  O   UNL     1     -13.675  -8.191  13.630  0.00  0.00    -0.394 OA
ATOM     34  H   UNL     1     -14.048  -7.300  13.520  0.00  0.00    +0.209 HD
ENDBRANCH  19   3
ENDBRANCH  11  19
BRANCH  12  22
ATOM     22  C   UNL     1      -7.849  -9.390  17.991  0.00  0.00    +0.106 C 
BRANCH  22  23
ATOM      4  O   UNL     1      -8.022 -11.043  19.753  0.00  0.00    -0.276 OA
ATOM      7  N   UNL     1      -6.030 -10.827  18.581  0.00  0.00    -0.312 N 
ATOM     23  C   UNL     1      -7.346 -10.503  18.881  0.00  0.00    +0.214 C 
ATOM     35  H   UNL     1      -5.541 -10.323  17.845  0.00  0.00    +0.149 HD
BRANCH   7  25
ATOM     25  C   UNL     1      -5.309 -11.853  19.278  0.00  0.00    +0.073 C 
ATOM     26  C   UNL     1      -3.814 -11.950  19.186  0.00  0.00    +0.024 C 
ATOM     27  C   UNL     1      -4.676 -12.996  18.541  0.00  0.00    +0.024 C 
ENDBRANCH   7  25
ENDBRANCH  22  23
ENDBRANCH  12  22
TORSDOF 7
ENDMDL
MODEL 3
REMARK VINA RESULT:      -5.9      3.155      7.673
REMARK  Name = 11883007
REMARK  12 active torsions:
REMARK  status: ('A' for Active; 'I' for Inactive)
REMARK    1  A    between atoms: O_2  and  C_14
REMARK    2  A    between atoms: O_3  and  C_19
REMARK    3  A    between atoms: N_7  and  C_25
REMARK    4  A    between atoms: C_9  and  C_17
REMARK    5  A    between atoms: C_11  and  C_19
REMARK    6  A    between atoms: C_11  and  C_20
REMARK    7  A    between atoms: C_12  and  C_22
REMARK    8  A    between atoms: C_22  and  C_23
REMARK    9  A    between atoms: C_28  and  C_29
REMARK   10  A    between atoms: C_29  and  C_30
REMARK   11  A    between atoms: C_29  and  C_31
REMARK   12  A    between atoms: C_29  and  C_32
REMARK                            x       y       z     vdW  Elec       q    Type
REMARK                         _______ _______ _______ _____ _____    ______ ____
ROOT
ATOM      1  S   UNL     1      -7.990 -10.464  14.187  0.00  0.00    -0.057 S 
ATOM      5  O   UNL     1      -4.526 -11.739  17.001  0.00  0.00    -0.275 OA
ATOM      6  N   UNL     1      -5.490 -11.119  14.291  0.00  0.00    -0.229 NA
ATOM      8  N   UNL     1      -6.696 -11.098  16.378  0.00  0.00    -0.264 N 
ATOM      9  C   UNL     1      -5.437 -11.021  10.437  0.00  0.00    -0.019 C 
ATOM     10  C   UNL     1      -6.552  -9.884  10.373  0.00  0.00    +0.011 C 
ATOM     11  C   UNL     1      -7.072  -9.474   8.942  0.00  0.00    +0.021 C 
ATOM     12  C   UNL     1      -4.758 -10.964  11.882  0.00  0.00    +0.054 C 
ATOM     13  C   UNL     1      -4.347 -10.734   9.373  0.00  0.00    +0.010 C 
ATOM     14  C   UNL     1      -5.858  -9.272   7.992  0.00  0.00    +0.123 C 
ATOM     15  C   UNL     1      -7.688 -10.144  11.404  0.00  0.00    +0.049 C 
ATOM     16  C   UNL     1      -4.900 -10.457   7.982  0.00  0.00    +0.032 C 
ATOM     17  C   UNL     1      -6.010 -12.439  10.193  0.00  0.00    +0.012 C 
ATOM     18  C   UNL     1      -5.800 -10.869  12.968  0.00  0.00    +0.058 A 
ATOM     20  C   UNL     1      -7.811  -8.110   9.045  0.00  0.00    +0.016 C 
ATOM     21  C   UNL     1      -7.104 -10.481  12.734  0.00  0.00    +0.015 A 
ATOM     24  C   UNL     1      -6.569 -10.945  15.022  0.00  0.00    +0.165 A 
ATOM     28  C   UNL     1      -5.692 -11.481  17.289  0.00  0.00    +0.224 C 
ATOM     36  H   UNL     1      -7.628 -10.909  16.733  0.00  0.00    +0.157 HD
ENDROOT
BRANCH  28  29
ATOM     29  C   UNL     1      -6.180 -11.561  18.759  0.00  0.00    +0.039 C 
ATOM     30  C   UNL     1      -6.834 -10.223  19.155  0.00  0.00    +0.020 C 
ATOM     31  C   UNL     1      -4.991 -11.816  19.699  0.00  0.00    +0.020 C 
ATOM     32  C   UNL     1      -7.226 -12.676  18.911  0.00  0.00    +0.020 C 
ENDBRANCH  28  29
BRANCH  14   2
ATOM      2  O   UNL     1      -6.299  -9.025   6.658  0.00  0.00    -0.391 OA
ATOM     33  H   UNL     1      -6.652  -8.120   6.625  0.00  0.00    +0.210 HD
ENDBRANCH  14   2
BRANCH  11  19
ATOM     19  C   UNL     1      -8.095 -10.454   8.327  0.00  0.00    +0.165 C 
BRANCH  19   3
ATOM      3  O   UNL     1      -8.993  -9.704   7.540  0.00  0.00    -0.394 OA
ATOM     34  H   UNL     1      -8.922  -8.777   7.823  0.00  0.00    +0.209 HD
ENDBRANCH  19   3
ENDBRANCH  11  19
BRANCH  12  22
ATOM     22  C   UNL     1      -3.757 -12.093  12.162  0.00  0.00    +0.106 C 
BRANCH  22  23
ATOM      4  O   UNL     1      -1.550 -11.099  12.078  0.00  0.00    -0.276 OA
ATOM      7  N   UNL     1      -2.456 -11.700  14.129  0.00  0.00    -0.312 N 
ATOM     23  C   UNL     1      -2.465 -11.571  12.747  0.00  0.00    +0.214 C 
ATOM     35  H   UNL     1      -3.256 -12.109  14.604  0.00  0.00    +0.149 HD
BRANCH   7  25
ATOM     25  C   UNL     1      -1.345 -11.281  14.935  0.00  0.00    +0.073 C 
ATOM     26  C   UNL     1      -1.555 -10.698  16.302  0.00  0.00    +0.024 C 
ATOM     27  C   UNL     1      -1.069  -9.827  15.181  0.00  0.00    +0.024 C 
ENDBRANCH   7  25
ENDBRANCH  22  23
ENDBRANCH  12  22
TORSDOF 7
ENDMDL
MODEL 4
REMARK VINA RESULT:      -5.9     26.120     31.568
REMARK  Name = 11883007
REMARK  12 active torsions:
REMARK  status: ('A' for Active; 'I' for Inactive)
REMARK    1  A    between atoms: O_2  and  C_14
REMARK    2  A    between atoms: O_3  and  C_19
REMARK    3  A    between atoms: N_7  and  C_25
REMARK    4  A    between atoms: C_9  and  C_17
REMARK    5  A    between atoms: C_11  and  C_19
REMARK    6  A    between atoms: C_11  and  C_20
REMARK    7  A    between atoms: C_12  and  C_22
REMARK    8  A    between atoms: C_22  and  C_23
REMARK    9  A    between atoms: C_28  and  C_29
REMARK   10  A    between atoms: C_29  and  C_30
REMARK   11  A    between atoms: C_29  and  C_31
REMARK   12  A    between atoms: C_29  and  C_32
REMARK                            x       y       z     vdW  Elec       q    Type
REMARK                         _______ _______ _______ _____ _____    ______ ____
ROOT
ATOM      1  S   UNL     1      14.382   7.982   6.527  0.00  0.00    -0.057 S 
ATOM      5  O   UNL     1      10.759   6.124   4.298  0.00  0.00    -0.275 OA
ATOM      6  N   UNL     1      13.530   7.112   4.245  0.00  0.00    -0.229 NA
ATOM      8  N   UNL     1      11.985   7.011   6.093  0.00  0.00    -0.264 N 
ATOM      9  C   UNL     1      16.829   8.357   2.685  0.00  0.00    -0.019 C 
ATOM     10  C   UNL     1      17.650   8.102   4.025  0.00  0.00    +0.011 C 
ATOM     11  C   UNL     1      19.157   8.566   4.039  0.00  0.00    +0.021 C 
ATOM     12  C   UNL     1      15.518   7.443   2.729  0.00  0.00    +0.054 C 
ATOM     13  C   UNL     1      17.685   7.925   1.466  0.00  0.00    +0.010 C 
ATOM     14  C   UNL     1      19.852   8.093   2.732  0.00  0.00    +0.123 C 
ATOM     15  C   UNL     1      16.844   8.549   5.279  0.00  0.00    +0.049 C 
ATOM     16  C   UNL     1      19.096   8.495   1.471  0.00  0.00    +0.032 C 
ATOM     17  C   UNL     1      16.418   9.838   2.503  0.00  0.00    +0.012 C 
ATOM     18  C   UNL     1      14.829   7.548   4.065  0.00  0.00    +0.058 A 
ATOM     20  C   UNL     1      19.888   7.877   5.227  0.00  0.00    +0.016 C 
ATOM     21  C   UNL     1      15.448   8.030   5.200  0.00  0.00    +0.015 A 
ATOM     24  C   UNL     1      13.186   7.299   5.500  0.00  0.00    +0.165 A 
ATOM     28  C   UNL     1      10.848   6.449   5.480  0.00  0.00    +0.224 C 
ATOM     36  H   UNL     1      11.942   7.240   7.080  0.00  0.00    +0.157 HD
ENDROOT
BRANCH  28  29
ATOM     29  C   UNL     1       9.649   6.257   6.445  0.00  0.00    +0.039 C 
ATOM     30  C   UNL     1       9.612   7.420   7.455  0.00  0.00    +0.020 C 
ATOM     31  C   UNL     1       9.803   4.942   7.226  0.00  0.00    +0.020 C 
ATOM     32  C   UNL     1       8.329   6.256   5.659  0.00  0.00    +0.020 C 
ENDBRANCH  28  29
BRANCH  14   2
ATOM      2  O   UNL     1      21.181   8.606   2.654  0.00  0.00    -0.391 OA
ATOM     33  H   UNL     1      21.235   9.378   3.242  0.00  0.00    +0.210 HD
ENDBRANCH  14   2
BRANCH  11  19
ATOM     19  C   UNL     1      19.359  10.082   4.252  0.00  0.00    +0.165 C 
BRANCH  19   3
ATOM      3  O   UNL     1      20.533  10.260   5.013  0.00  0.00    -0.394 OA
ATOM     34  H   UNL     1      21.081   9.466   4.889  0.00  0.00    +0.209 HD
ENDBRANCH  19   3
ENDBRANCH  11  19
BRANCH  12  22
ATOM     22  C   UNL     1      14.539   7.677   1.571  0.00  0.00    +0.106 C 
BRANCH  22  23
ATOM      4  O   UNL     1      14.688   5.973  -0.143  0.00  0.00    -0.276 OA
ATOM      7  N   UNL     1      13.132   5.743   1.565  0.00  0.00    -0.312 N 
ATOM     23  C   UNL     1      14.156   6.387   0.884  0.00  0.00    +0.214 C 
ATOM     35  H   UNL     1      12.744   6.161   2.407  0.00  0.00    +0.149 HD
BRANCH   7  25
ATOM     25  C   UNL     1      12.579   4.494   1.125  0.00  0.00    +0.073 C 
ATOM     26  C   UNL     1      11.868   3.581   2.081  0.00  0.00    +0.024 C 
ATOM     27  C   UNL     1      13.202   3.187   1.518  0.00  0.00    +0.024 C 
ENDBRANCH   7  25
ENDBRANCH  22  23
ENDBRANCH  12  22
TORSDOF 7
ENDMDL
MODEL 5
REMARK VINA RESULT:      -5.8     28.152     31.108
REMARK  Name = 11883007
REMARK  12 active torsions:
REMARK  status: ('A' for Active; 'I' for Inactive)
REMARK    1  A    between atoms: O_2  and  C_14
REMARK    2  A    between atoms: O_3  and  C_19
REMARK    3  A    between atoms: N_7  and  C_25
REMARK    4  A    between atoms: C_9  and  C_17
REMARK    5  A    between atoms: C_11  and  C_19
REMARK    6  A    between atoms: C_11  and  C_20
REMARK    7  A    between atoms: C_12  and  C_22
REMARK    8  A    between atoms: C_22  and  C_23
REMARK    9  A    between atoms: C_28  and  C_29
REMARK   10  A    between atoms: C_29  and  C_30
REMARK   11  A    between atoms: C_29  and  C_31
REMARK   12  A    between atoms: C_29  and  C_32
REMARK                            x       y       z     vdW  Elec       q    Type
REMARK                         _______ _______ _______ _____ _____    ______ ____
ROOT
ATOM      1  S   UNL     1      12.680  12.555  21.358  0.00  0.00    -0.057 S 
ATOM      5  O   UNL     1      15.036  11.505  25.217  0.00  0.00    -0.275 OA
ATOM      6  N   UNL     1      14.304  10.859  22.441  0.00  0.00    -0.229 NA
ATOM      8  N   UNL     1      13.603  12.717  23.807  0.00  0.00    -0.264 N 
ATOM      9  C   UNL     1      13.941   8.687  19.276  0.00  0.00    -0.019 C 
ATOM     10  C   UNL     1      13.711   9.954  18.338  0.00  0.00    +0.011 C 
ATOM     11  C   UNL     1      13.365   9.670  16.826  0.00  0.00    +0.021 C 
ATOM     12  C   UNL     1      14.691   9.182  20.597  0.00  0.00    +0.054 C 
ATOM     13  C   UNL     1      14.853   7.665  18.549  0.00  0.00    +0.010 C 
ATOM     14  C   UNL     1      14.340   8.596  16.269  0.00  0.00    +0.123 C 
ATOM     15  C   UNL     1      12.774  10.997  19.012  0.00  0.00    +0.049 C 
ATOM     16  C   UNL     1      14.407   7.340  17.130  0.00  0.00    +0.032 C 
ATOM     17  C   UNL     1      12.619   7.982  19.668  0.00  0.00    +0.012 C 
ATOM     18  C   UNL     1      14.045  10.424  21.155  0.00  0.00    +0.058 A 
ATOM     20  C   UNL     1      13.589  10.970  16.003  0.00  0.00    +0.016 C 
ATOM     21  C   UNL     1      13.203  11.234  20.421  0.00  0.00    +0.015 A 
ATOM     24  C   UNL     1      13.633  11.967  22.661  0.00  0.00    +0.165 A 
ATOM     28  C   UNL     1      14.290  12.459  25.010  0.00  0.00    +0.224 C 
ATOM     36  H   UNL     1      13.012  13.541  23.752  0.00  0.00    +0.157 HD
ENDROOT
BRANCH  28  29
ATOM     29  C   UNL     1      14.030  13.514  26.116  0.00  0.00    +0.039 C 
ATOM     30  C   UNL     1      14.828  14.794  25.802  0.00  0.00    +0.020 C 
ATOM     31  C   UNL     1      14.493  12.977  27.480  0.00  0.00    +0.020 C 
ATOM     32  C   UNL     1      12.538  13.874  26.166  0.00  0.00    +0.020 C 
ENDBRANCH  28  29
BRANCH  14   2
ATOM      2  O   UNL     1      13.973   8.223  14.941  0.00  0.00    -0.391 OA
ATOM     33  H   UNL     1      13.302   8.855  14.632  0.00  0.00    +0.210 HD
ENDBRANCH  14   2
BRANCH  11  19
ATOM     19  C   UNL     1      11.896   9.266  16.570  0.00  0.00    +0.165 C 
BRANCH  19   3
ATOM      3  O   UNL     1      11.490   9.860  15.357  0.00  0.00    -0.394 OA
ATOM     34  H   UNL     1      10.651   9.442  15.097  0.00  0.00    +0.209 HD
ENDBRANCH  19   3
ENDBRANCH  11  19
BRANCH  12  22
ATOM     22  C   UNL     1      14.860   8.104  21.676  0.00  0.00    +0.106 C 
BRANCH  22  23
ATOM      4  O   UNL     1      16.419   6.263  21.465  0.00  0.00    -0.276 OA
ATOM      7  N   UNL     1      17.229   8.414  21.793  0.00  0.00    -0.312 N 
ATOM     23  C   UNL     1      16.229   7.465  21.628  0.00  0.00    +0.214 C 
ATOM     35  H   UNL     1      16.981   9.390  21.928  0.00  0.00    +0.149 HD
BRANCH   7  25
ATOM     25  C   UNL     1      18.623   8.074  21.788  0.00  0.00    +0.073 C 
ATOM     26  C   UNL     1      19.561   8.633  22.818  0.00  0.00    +0.024 C 
ATOM     27  C   UNL     1      19.665   9.076  21.387  0.00  0.00    +0.024 C 
ENDBRANCH   7  25
ENDBRANCH  22  23
ENDBRANCH  12  22
TORSDOF 7
ENDMDL
MODEL 6
REMARK VINA RESULT:      -5.8     27.263     30.443
REMARK  Name = 11883007
REMARK  12 active torsions:
REMARK  status: ('A' for Active; 'I' for Inactive)
REMARK    1  A    between atoms: O_2  and  C_14
REMARK    2  A    between atoms: O_3  and  C_19
REMARK    3  A    between atoms: N_7  and  C_25
REMARK    4  A    between atoms: C_9  and  C_17
REMARK    5  A    between atoms: C_11  and  C_19
REMARK    6  A    between atoms: C_11  and  C_20
REMARK    7  A    between atoms: C_12  and  C_22
REMARK    8  A    between atoms: C_22  and  C_23
REMARK    9  A    between atoms: C_28  and  C_29
REMARK   10  A    between atoms: C_29  and  C_30
REMARK   11  A    between atoms: C_29  and  C_31
REMARK   12  A    between atoms: C_29  and  C_32
REMARK                            x       y       z     vdW  Elec       q    Type
REMARK                         _______ _______ _______ _____ _____    ______ ____
ROOT
ATOM      1  S   UNL     1      14.253  14.120  19.192  0.00  0.00    -0.057 S 
ATOM      5  O   UNL     1      14.153  10.877  15.874  0.00  0.00    -0.275 OA
ATOM      6  N   UNL     1      13.494  11.716  18.615  0.00  0.00    -0.229 NA
ATOM      8  N   UNL     1      14.624  12.945  16.877  0.00  0.00    -0.264 N 
ATOM      9  C   UNL     1      12.441  11.303  22.302  0.00  0.00    -0.019 C 
ATOM     10  C   UNL     1      12.088  12.848  22.455  0.00  0.00    +0.011 C 
ATOM     11  C   UNL     1      11.678  13.348  23.894  0.00  0.00    +0.021 C 
ATOM     12  C   UNL     1      12.391  10.939  20.747  0.00  0.00    +0.054 C 
ATOM     13  C   UNL     1      11.372  10.454  23.037  0.00  0.00    +0.010 C 
ATOM     14  C   UNL     1      10.641  12.363  24.503  0.00  0.00    +0.123 C 
ATOM     15  C   UNL     1      13.151  13.746  21.759  0.00  0.00    +0.049 C 
ATOM     16  C   UNL     1      11.098  10.910  24.464  0.00  0.00    +0.032 C 
ATOM     17  C   UNL     1      13.836  10.945  22.869  0.00  0.00    +0.012 C 
ATOM     18  C   UNL     1      13.129  11.964  19.925  0.00  0.00    +0.058 A 
ATOM     20  C   UNL     1      10.983  14.733  23.770  0.00  0.00    +0.016 C 
ATOM     21  C   UNL     1      13.444  13.224  20.393  0.00  0.00    +0.015 A 
ATOM     24  C   UNL     1      14.100  12.778  18.132  0.00  0.00    +0.165 A 
ATOM     28  C   UNL     1      14.629  12.008  15.826  0.00  0.00    +0.224 C 
ATOM     36  H   UNL     1      15.048  13.854  16.721  0.00  0.00    +0.157 HD
ENDROOT
BRANCH  28  29
ATOM     29  C   UNL     1      15.311  12.525  14.532  0.00  0.00    +0.039 C 
ATOM     30  C   UNL     1      15.631  14.024  14.685  0.00  0.00    +0.020 C 
ATOM     31  C   UNL     1      14.370  12.350  13.330  0.00  0.00    +0.020 C 
ATOM     32  C   UNL     1      16.628  11.772  14.289  0.00  0.00    +0.020 C 
ENDBRANCH  28  29
BRANCH  14   2
ATOM      2  O   UNL     1      10.345  12.715  25.854  0.00  0.00    -0.391 OA
ATOM     33  H   UNL     1      11.157  12.593  26.375  0.00  0.00    +0.210 HD
ENDBRANCH  14   2
BRANCH  11  19
ATOM     19  C   UNL     1      12.864  13.564  24.859  0.00  0.00    +0.165 C 
BRANCH  19   3
ATOM      3  O   UNL     1      12.530  14.629  25.723  0.00  0.00    -0.394 OA
ATOM     34  H   UNL     1      13.113  14.566  26.498  0.00  0.00    +0.209 HD
ENDBRANCH  19   3
ENDBRANCH  11  19
BRANCH  12  22
ATOM     22  C   UNL     1      12.850   9.514  20.410  0.00  0.00    +0.106 C 
BRANCH  22  23
ATOM      4  O   UNL     1      10.866   8.266  19.799  0.00  0.00    -0.276 OA
ATOM      7  N   UNL     1      12.364   8.911  18.147  0.00  0.00    -0.312 N 
ATOM     23  C   UNL     1      11.904   8.825  19.454  0.00  0.00    +0.214 C 
ATOM     35  H   UNL     1      13.240   9.389  17.951  0.00  0.00    +0.149 HD
BRANCH   7  25
ATOM     25  C   UNL     1      11.653   8.339  17.040  0.00  0.00    +0.073 C 
ATOM     26  C   UNL     1      11.424   9.121  15.779  0.00  0.00    +0.024 C 
ATOM     27  C   UNL     1      10.270   8.799  16.684  0.00  0.00    +0.024 C 
ENDBRANCH   7  25
ENDBRANCH  22  23
ENDBRANCH  12  22
TORSDOF 7
ENDMDL
MODEL 7
REMARK VINA RESULT:      -5.7      2.343      3.437
REMARK  Name = 11883007
REMARK  12 active torsions:
REMARK  status: ('A' for Active; 'I' for Inactive)
REMARK    1  A    between atoms: O_2  and  C_14
REMARK    2  A    between atoms: O_3  and  C_19
REMARK    3  A    between atoms: N_7  and  C_25
REMARK    4  A    between atoms: C_9  and  C_17
REMARK    5  A    between atoms: C_11  and  C_19
REMARK    6  A    between atoms: C_11  and  C_20
REMARK    7  A    between atoms: C_12  and  C_22
REMARK    8  A    between atoms: C_22  and  C_23
REMARK    9  A    between atoms: C_28  and  C_29
REMARK   10  A    between atoms: C_29  and  C_30
REMARK   11  A    between atoms: C_29  and  C_31
REMARK   12  A    between atoms: C_29  and  C_32
REMARK                            x       y       z     vdW  Elec       q    Type
REMARK                         _______ _______ _______ _____ _____    ______ ____
ROOT
ATOM      1  S   UNL     1      -7.737 -11.141  12.474  0.00  0.00    -0.057 S 
ATOM      5  O   UNL     1      -3.874 -11.562   9.936  0.00  0.00    -0.275 OA
ATOM      6  N   UNL     1      -5.166 -11.404  12.574  0.00  0.00    -0.229 NA
ATOM      8  N   UNL     1      -6.165 -11.321  10.382  0.00  0.00    -0.264 N 
ATOM      9  C   UNL     1      -5.397 -10.941  16.395  0.00  0.00    -0.019 C 
ATOM     10  C   UNL     1      -6.844 -11.604  16.466  0.00  0.00    +0.011 C 
ATOM     11  C   UNL     1      -7.566 -11.594  17.868  0.00  0.00    +0.021 C 
ATOM     12  C   UNL     1      -4.692 -11.441  15.051  0.00  0.00    +0.054 C 
ATOM     13  C   UNL     1      -4.549 -11.422  17.601  0.00  0.00    +0.010 C 
ATOM     14  C   UNL     1      -6.566 -12.056  18.964  0.00  0.00    +0.123 C 
ATOM     15  C   UNL     1      -7.746 -11.128  15.292  0.00  0.00    +0.049 C 
ATOM     16  C   UNL     1      -5.253 -11.283  18.944  0.00  0.00    +0.032 C 
ATOM     17  C   UNL     1      -5.444  -9.393  16.406  0.00  0.00    +0.012 C 
ATOM     18  C   UNL     1      -5.628 -11.334  13.875  0.00  0.00    +0.058 A 
ATOM     20  C   UNL     1      -8.733 -12.622  17.843  0.00  0.00    +0.016 C 
ATOM     21  C   UNL     1      -6.996 -11.212  14.005  0.00  0.00    +0.015 A 
ATOM     24  C   UNL     1      -6.187 -11.305  11.752  0.00  0.00    +0.165 A 
ATOM     28  C   UNL     1      -5.035 -11.445   9.551  0.00  0.00    +0.224 C 
ATOM     36  H   UNL     1      -7.079 -11.230   9.950  0.00  0.00    +0.157 HD
ENDROOT
BRANCH  28  29
ATOM     29  C   UNL     1      -5.367 -11.422   8.037  0.00  0.00    +0.039 C 
ATOM     30  C   UNL     1      -6.787 -11.978   7.815  0.00  0.00    +0.020 C 
ATOM     31  C   UNL     1      -4.375 -12.305   7.263  0.00  0.00    +0.020 C 
ATOM     32  C   UNL     1      -5.323  -9.982   7.504  0.00  0.00    +0.020 C 
ENDBRANCH  28  29
BRANCH  14   2
ATOM      2  O   UNL     1      -7.149 -11.936  20.261  0.00  0.00    -0.391 OA
ATOM     33  H   UNL     1      -6.640 -12.499  20.868  0.00  0.00    +0.210 HD
ENDBRANCH  14   2
BRANCH  11  19
ATOM     19  C   UNL     1      -8.212 -10.243  18.246  0.00  0.00    +0.165 C 
BRANCH  19   3
ATOM      3  O   UNL     1      -9.191 -10.493  19.230  0.00  0.00    -0.394 OA
ATOM     34  H   UNL     1     -10.049 -10.222  18.860  0.00  0.00    +0.209 HD
ENDBRANCH  19   3
ENDBRANCH  11  19
BRANCH  12  22
ATOM     22  C   UNL     1      -3.340 -10.778  14.756  0.00  0.00    +0.106 C 
BRANCH  22  23
ATOM      4  O   UNL     1      -1.086 -11.583  15.128  0.00  0.00    -0.276 OA
ATOM      7  N   UNL     1      -2.634 -12.961  14.082  0.00  0.00    -0.312 N 
ATOM     23  C   UNL     1      -2.217 -11.787  14.693  0.00  0.00    +0.214 C 
ATOM     35  H   UNL     1      -3.589 -13.043  13.744  0.00  0.00    +0.149 HD
BRANCH   7  25
ATOM     25  C   UNL     1      -1.761 -14.085  13.894  0.00  0.00    +0.073 C 
ATOM     26  C   UNL     1      -1.907 -14.988  12.704  0.00  0.00    +0.024 C 
ATOM     27  C   UNL     1      -2.254 -15.490  14.075  0.00  0.00    +0.024 C 
ENDBRANCH   7  25
ENDBRANCH  22  23
ENDBRANCH  12  22
TORSDOF 7
ENDMDL
MODEL 8
REMARK VINA RESULT:      -5.7     24.725     28.813
REMARK  Name = 11883007
REMARK  12 active torsions:
REMARK  status: ('A' for Active; 'I' for Inactive)
REMARK    1  A    between atoms: O_2  and  C_14
REMARK    2  A    between atoms: O_3  and  C_19
REMARK    3  A    between atoms: N_7  and  C_25
REMARK    4  A    between atoms: C_9  and  C_17
REMARK    5  A    between atoms: C_11  and  C_19
REMARK    6  A    between atoms: C_11  and  C_20
REMARK    7  A    between atoms: C_12  and  C_22
REMARK    8  A    between atoms: C_22  and  C_23
REMARK    9  A    between atoms: C_28  and  C_29
REMARK   10  A    between atoms: C_29  and  C_30
REMARK   11  A    between atoms: C_29  and  C_31
REMARK   12  A    between atoms: C_29  and  C_32
REMARK                            x       y       z     vdW  Elec       q    Type
REMARK                         _______ _______ _______ _____ _____    ______ ____
ROOT
ATOM      1  S   UNL     1       9.274   8.362  -0.113  0.00  0.00    -0.057 S 
ATOM      5  O   UNL     1       7.386   8.942   4.086  0.00  0.00    -0.275 OA
ATOM      6  N   UNL     1       9.368   7.618   2.362  0.00  0.00    -0.229 NA
ATOM      8  N   UNL     1       7.705   9.265   1.784  0.00  0.00    -0.264 N 
ATOM      9  C   UNL     1      11.990   4.984   1.337  0.00  0.00    -0.019 C 
ATOM     10  C   UNL     1      12.559   5.894   0.160  0.00  0.00    +0.011 C 
ATOM     11  C   UNL     1      13.662   5.255  -0.769  0.00  0.00    +0.021 C 
ATOM     12  C   UNL     1      11.249   5.938   2.383  0.00  0.00    +0.054 C 
ATOM     13  C   UNL     1      13.168   4.284   2.063  0.00  0.00    +0.010 C 
ATOM     14  C   UNL     1      14.735   4.559   0.114  0.00  0.00    +0.123 C 
ATOM     15  C   UNL     1      11.410   6.595  -0.621  0.00  0.00    +0.049 C 
ATOM     16  C   UNL     1      14.142   3.584   1.125  0.00  0.00    +0.032 C 
ATOM     17  C   UNL     1      11.002   3.902   0.837  0.00  0.00    +0.012 C 
ATOM     18  C   UNL     1      10.340   6.912   1.679  0.00  0.00    +0.058 A 
ATOM     20  C   UNL     1      14.376   6.387  -1.559  0.00  0.00    +0.016 C 
ATOM     21  C   UNL     1      10.441   7.206   0.334  0.00  0.00    +0.015 A 
ATOM     24  C   UNL     1       8.739   8.406   1.518  0.00  0.00    +0.165 A 
ATOM     28  C   UNL     1       7.086   9.491   3.029  0.00  0.00    +0.224 C 
ATOM     36  H   UNL     1       7.372   9.779   0.974  0.00  0.00    +0.157 HD
ENDROOT
BRANCH  28  29
ATOM     29  C   UNL     1       5.939  10.533   2.975  0.00  0.00    +0.039 C 
ATOM     30  C   UNL     1       4.757   9.955   2.173  0.00  0.00    +0.020 C 
ATOM     31  C   UNL     1       6.419  11.814   2.276  0.00  0.00    +0.020 C 
ATOM     32  C   UNL     1       5.448  10.856   4.395  0.00  0.00    +0.020 C 
ENDBRANCH  28  29
BRANCH  14   2
ATOM      2  O   UNL     1      15.679   3.860  -0.697  0.00  0.00    -0.391 OA
ATOM     33  H   UNL     1      15.736   2.949  -0.365  0.00  0.00    +0.210 HD
ENDBRANCH  14   2
BRANCH  11  19
ATOM     19  C   UNL     1      13.115   4.284  -1.838  0.00  0.00    +0.165 C 
BRANCH  19   3
ATOM      3  O   UNL     1      14.084   4.173  -2.857  0.00  0.00    -0.394 OA
ATOM     34  H   UNL     1      13.793   4.734  -3.595  0.00  0.00    +0.209 HD
ENDBRANCH  19   3
ENDBRANCH  11  19
BRANCH  12  22
ATOM     22  C   UNL     1      10.516   5.200   3.511  0.00  0.00    +0.106 C 
BRANCH  22  23
ATOM      4  O   UNL     1      11.793   6.553   5.061  0.00  0.00    -0.276 OA
ATOM      7  N   UNL     1      10.262   5.013   5.882  0.00  0.00    -0.312 N 
ATOM     23  C   UNL     1      10.946   5.683   4.876  0.00  0.00    +0.214 C 
ATOM     35  H   UNL     1       9.580   4.299   5.639  0.00  0.00    +0.149 HD
BRANCH   7  25
ATOM     25  C   UNL     1      10.482   5.280   7.274  0.00  0.00    +0.073 C 
ATOM     26  C   UNL     1       9.759   4.503   8.336  0.00  0.00    +0.024 C 
ATOM     27  C   UNL     1       9.433   5.951   8.111  0.00  0.00    +0.024 C 
ENDBRANCH   7  25
ENDBRANCH  22  23
ENDBRANCH  12  22
TORSDOF 7
ENDMDL
MODEL 9
REMARK VINA RESULT:      -5.7      3.216      7.010
REMARK  Name = 11883007
REMARK  12 active torsions:
REMARK  status: ('A' for Active; 'I' for Inactive)
REMARK    1  A    between atoms: O_2  and  C_14
REMARK    2  A    between atoms: O_3  and  C_19
REMARK    3  A    between atoms: N_7  and  C_25
REMARK    4  A    between atoms: C_9  and  C_17
REMARK    5  A    between atoms: C_11  and  C_19
REMARK    6  A    between atoms: C_11  and  C_20
REMARK    7  A    between atoms: C_12  and  C_22
REMARK    8  A    between atoms: C_22  and  C_23
REMARK    9  A    between atoms: C_28  and  C_29
REMARK   10  A    between atoms: C_29  and  C_30
REMARK   11  A    between atoms: C_29  and  C_31
REMARK   12  A    between atoms: C_29  and  C_32
REMARK                            x       y       z     vdW  Elec       q    Type
REMARK                         _______ _______ _______ _____ _____    ______ ____
ROOT
ATOM      1  S   UNL     1      -6.981 -10.478  10.981  0.00  0.00    -0.057 S 
ATOM      5  O   UNL     1     -11.074  -8.974  12.569  0.00  0.00    -0.275 OA
ATOM      6  N   UNL     1      -8.311  -9.831  13.103  0.00  0.00    -0.229 NA
ATOM      8  N   UNL     1      -9.472  -9.658  10.997  0.00  0.00    -0.264 N 
ATOM      9  C   UNL     1      -5.307 -11.038  15.197  0.00  0.00    -0.019 C 
ATOM     10  C   UNL     1      -4.259 -10.640  14.066  0.00  0.00    +0.011 C 
ATOM     11  C   UNL     1      -2.751 -11.030  14.319  0.00  0.00    +0.021 C 
ATOM     12  C   UNL     1      -6.638 -10.187  14.956  0.00  0.00    +0.054 C 
ATOM     13  C   UNL     1      -4.732 -10.664  16.588  0.00  0.00    +0.010 C 
ATOM     14  C   UNL     1      -2.354 -10.629  15.767  0.00  0.00    +0.123 C 
ATOM     15  C   UNL     1      -4.777 -11.024  12.650  0.00  0.00    +0.049 C 
ATOM     16  C   UNL     1      -3.314 -11.165  16.824  0.00  0.00    +0.032 C 
ATOM     17  C   UNL     1      -5.653 -12.547  15.192  0.00  0.00    +0.012 C 
ATOM     18  C   UNL     1      -7.047 -10.218  13.506  0.00  0.00    +0.058 A 
ATOM     20  C   UNL     1      -1.849 -10.215  13.350  0.00  0.00    +0.016 C 
ATOM     21  C   UNL     1      -6.191 -10.579  12.485  0.00  0.00    +0.015 A 
ATOM     24  C   UNL     1      -8.392  -9.935  11.795  0.00  0.00    +0.165 A 
ATOM     28  C   UNL     1     -10.738  -9.200  11.409  0.00  0.00    +0.224 C 
ATOM     36  H   UNL     1      -9.308  -9.810  10.007  0.00  0.00    +0.157 HD
ENDROOT
BRANCH  28  29
ATOM     29  C   UNL     1     -11.736  -8.989  10.241  0.00  0.00    +0.039 C 
ATOM     30  C   UNL     1     -12.358  -7.583  10.345  0.00  0.00    +0.020 C 
ATOM     31  C   UNL     1     -12.868 -10.026  10.317  0.00  0.00    +0.020 C 
ATOM     32  C   UNL     1     -11.007  -9.097   8.893  0.00  0.00    +0.020 C 
ENDBRANCH  28  29
BRANCH  14   2
ATOM      2  O   UNL     1      -1.036 -11.084  16.072  0.00  0.00    -0.391 OA
ATOM     33  H   UNL     1      -0.902 -11.930  15.613  0.00  0.00    +0.210 HD
ENDBRANCH  14   2
BRANCH  11  19
ATOM     19  C   UNL     1      -2.419 -12.513  14.048  0.00  0.00    +0.165 C 
BRANCH  19   3
ATOM      3  O   UNL     1      -1.541 -12.565  12.945  0.00  0.00    -0.394 OA
ATOM     34  H   UNL     1      -1.440 -13.500  12.699  0.00  0.00    +0.209 HD
ENDBRANCH  19   3
ENDBRANCH  11  19
BRANCH  12  22
ATOM     22  C   UNL     1      -7.807 -10.558  15.878  0.00  0.00    +0.106 C 
BRANCH  22  23
ATOM      4  O   UNL     1      -7.828  -9.032  17.759  0.00  0.00    -0.276 OA
ATOM      7  N   UNL     1      -9.339  -8.726  16.023  0.00  0.00    -0.312 N 
ATOM     23  C   UNL     1      -8.297  -9.371  16.675  0.00  0.00    +0.214 C 
ATOM     35  H   UNL     1      -9.670  -9.080  15.129  0.00  0.00    +0.149 HD
BRANCH   7  25
ATOM     25  C   UNL     1      -9.988  -7.567  16.564  0.00  0.00    +0.073 C 
ATOM     26  C   UNL     1     -11.458  -7.338  16.365  0.00  0.00    +0.024 C 
ATOM     27  C   UNL     1     -10.460  -6.455  15.674  0.00  0.00    +0.024 C 
ENDBRANCH   7  25
ENDBRANCH  22  23
ENDBRANCH  12  22
TORSDOF 7
ENDMDL
MODEL 10
REMARK VINA RESULT:      -5.6     24.744     27.836
REMARK  Name = 11883007
REMARK  12 active torsions:
REMARK  status: ('A' for Active; 'I' for Inactive)
REMARK    1  A    between atoms: O_2  and  C_14
REMARK    2  A    between atoms: O_3  and  C_19
REMARK    3  A    between atoms: N_7  and  C_25
REMARK    4  A    between atoms: C_9  and  C_17
REMARK    5  A    between atoms: C_11  and  C_19
REMARK    6  A    between atoms: C_11  and  C_20
REMARK    7  A    between atoms: C_12  and  C_22
REMARK    8  A    between atoms: C_22  and  C_23
REMARK    9  A    between atoms: C_28  and  C_29
REMARK   10  A    between atoms: C_29  and  C_30
REMARK   11  A    between atoms: C_29  and  C_31
REMARK   12  A    between atoms: C_29  and  C_32
REMARK                            x       y       z     vdW  Elec       q    Type
REMARK                         _______ _______ _______ _____ _____    ______ ____
ROOT
ATOM      1  S   UNL     1      10.089   7.755  -0.313  0.00  0.00    -0.057 S 
ATOM      5  O   UNL     1      12.333   4.774   2.448  0.00  0.00    -0.275 OA
ATOM      6  N   UNL     1      10.267   6.839   2.099  0.00  0.00    -0.229 NA
ATOM      8  N   UNL     1      11.782   5.911   0.470  0.00  0.00    -0.264 N 
ATOM      9  C   UNL     1       7.698   9.510   3.164  0.00  0.00    -0.019 C 
ATOM     10  C   UNL     1       6.975   9.493   1.744  0.00  0.00    +0.011 C 
ATOM     11  C   UNL     1       5.823  10.546   1.516  0.00  0.00    +0.021 C 
ATOM     12  C   UNL     1       8.485   8.130   3.332  0.00  0.00    +0.054 C 
ATOM     13  C   UNL     1       6.630   9.605   4.285  0.00  0.00    +0.010 C 
ATOM     14  C   UNL     1       4.875  10.544   2.747  0.00  0.00    +0.123 C 
ATOM     15  C   UNL     1       8.007   9.430   0.582  0.00  0.00    +0.049 C 
ATOM     16  C   UNL     1       5.609  10.714   4.072  0.00  0.00    +0.032 C 
ATOM     17  C   UNL     1       8.688  10.690   3.320  0.00  0.00    +0.012 C 
ATOM     18  C   UNL     1       9.272   7.799   2.091  0.00  0.00    +0.058 A 
ATOM     20  C   UNL     1       4.981  10.115   0.282  0.00  0.00    +0.016 C 
ATOM     21  C   UNL     1       9.030   8.381   0.863  0.00  0.00    +0.015 A 
ATOM     24  C   UNL     1      10.773   6.737   0.890  0.00  0.00    +0.165 A 
ATOM     28  C   UNL     1      12.503   4.986   1.249  0.00  0.00    +0.224 C 
ATOM     36  H   UNL     1      12.011   6.000  -0.515  0.00  0.00    +0.157 HD
ENDROOT
BRANCH  28  29
ATOM     29  C   UNL     1      13.586   4.210   0.455  0.00  0.00    +0.039 C 
ATOM     30  C   UNL     1      14.337   5.183  -0.473  0.00  0.00    +0.020 C 
ATOM     31  C   UNL     1      12.930   3.123  -0.411  0.00  0.00    +0.020 C 
ATOM     32  C   UNL     1      14.602   3.579   1.420  0.00  0.00    +0.020 C 
ENDBRANCH  28  29
BRANCH  14   2
ATOM      2  O   UNL     1       3.896  11.576   2.630  0.00  0.00    -0.391 OA
ATOM     33  H   UNL     1       3.329  11.360   1.869  0.00  0.00    +0.210 HD
ENDBRANCH  14   2
BRANCH  11  19
ATOM     19  C   UNL     1       6.316  11.976   1.203  0.00  0.00    +0.165 C 
BRANCH  19   3
ATOM      3  O   UNL     1       5.398  12.562   0.306  0.00  0.00    -0.394 OA
ATOM     34  H   UNL     1       5.355  13.511   0.516  0.00  0.00    +0.209 HD
ENDBRANCH  19   3
ENDBRANCH  11  19
BRANCH  12  22
ATOM     22  C   UNL     1       9.358   8.043   4.591  0.00  0.00    +0.106 C 
BRANCH  22  23
ATOM      4  O   UNL     1       7.908   6.248   5.327  0.00  0.00    -0.276 OA
ATOM      7  N   UNL     1       9.596   7.002   6.732  0.00  0.00    -0.312 N 
ATOM     23  C   UNL     1       8.853   6.997   5.559  0.00  0.00    +0.214 C 
ATOM     35  H   UNL     1      10.360   7.663   6.842  0.00  0.00    +0.149 HD
BRANCH   7  25
ATOM     25  C   UNL     1       9.326   6.106   7.819  0.00  0.00    +0.073 C 
ATOM     26  C   UNL     1      10.412   5.690   8.768  0.00  0.00    +0.024 C 
ATOM     27  C   UNL     1       9.832   4.694   7.806  0.00  0.00    +0.024 C 
ENDBRANCH   7  25
ENDBRANCH  22  23
ENDBRANCH  12  22
TORSDOF 7
ENDMDL
