REMARK  Name = 11882868
REMARK  10 active torsions:
REMARK  status: ('A' for Active; 'I' for Inactive)
REMARK    1  A    between atoms: O_3  and  C_15
REMARK    2  A    between atoms: O_4  and  C_20
REMARK    3  A    between atoms: N_8  and  C_26
REMARK    4  A    between atoms: C_10  and  C_18
REMARK    5  A    between atoms: C_12  and  C_20
REMARK    6  A    between atoms: C_12  and  C_21
REMARK    7  A    between atoms: C_13  and  C_23
REMARK    8  A    between atoms: C_23  and  C_24
REMARK    9  A    between atoms: C_26  and  C_28
REMARK   10  A    between atoms: C_27  and  C_29
REMARK                            x       y       z     vdW  Elec       q    Type
REMARK                         _______ _______ _______ _____ _____    ______ ____
ROOT
ATOM      1  S   UNL     1      -0.743   3.170   0.385  0.00  0.00    -0.057 S 
ATOM      6  O   UNL     1       3.201   0.920  -0.481  0.00  0.00    -0.269 OA
ATOM      7  N   UNL     1       0.299   0.873  -0.189  0.00  0.00    -0.229 NA
ATOM      9  N   UNL     1       1.818   2.732   0.032  0.00  0.00    -0.260 N 
ATOM     10  C   UNL     1      -3.199  -0.683   0.271  0.00  0.00    -0.019 C 
ATOM     11  C   UNL     1      -3.938   0.642  -0.212  0.00  0.00    +0.011 C 
ATOM     12  C   UNL     1      -5.513   0.655  -0.124  0.00  0.00    +0.021 C 
ATOM     13  C   UNL     1      -1.708  -0.652  -0.301  0.00  0.00    +0.054 C 
ATOM     14  C   UNL     1      -3.923  -1.921  -0.318  0.00  0.00    +0.010 C 
ATOM     15  C   UNL     1      -6.070  -0.672  -0.713  0.00  0.00    +0.123 C 
ATOM     16  C   UNL     1      -3.267   1.916   0.380  0.00  0.00    +0.049 C 
ATOM     17  C   UNL     1      -5.430  -1.914  -0.104  0.00  0.00    +0.032 C 
ATOM     18  C   UNL     1      -3.156  -0.820   1.813  0.00  0.00    +0.012 C 
ATOM     19  C   UNL     1      -1.067   0.693  -0.072  0.00  0.00    +0.058 A 
ATOM     21  C   UNL     1      -6.060   1.816  -1.003  0.00  0.00    +0.016 C 
ATOM     22  C   UNL     1      -1.787   1.835   0.214  0.00  0.00    +0.015 A 
ATOM     25  C   UNL     1       0.584   2.137   0.039  0.00  0.00    +0.165 A 
ATOM     27  C   UNL     1       3.063   2.114  -0.224  0.00  0.00    +0.256 C 
ATOM     41  H   UNL     1       1.792   3.724   0.240  0.00  0.00    +0.157 HD
ENDROOT
BRANCH  27  29
ATOM      2  S   UNL     1       5.795   2.361  -0.406  0.00  0.00    -0.092 S 
ATOM     29  C   UNL     1       4.234   3.002  -0.116  0.00  0.00    +0.074 A 
ATOM     32  C   UNL     1       4.275   4.343   0.197  0.00  0.00    +0.021 A 
ATOM     35  C   UNL     1       5.607   4.851   0.200  0.00  0.00    +0.008 A 
ATOM     37  C   UNL     1       6.532   3.879  -0.111  0.00  0.00    +0.046 A 
ENDBRANCH  27  29
BRANCH  15   3
ATOM      3  O   UNL     1      -7.484  -0.748  -0.532  0.00  0.00    -0.391 OA
ATOM     38  H   UNL     1      -7.791  -1.567  -0.955  0.00  0.00    +0.210 HD
ENDBRANCH  15   3
BRANCH  12  20
ATOM     20  C   UNL     1      -6.074   0.908   1.293  0.00  0.00    +0.165 C 
BRANCH  20   4
ATOM      4  O   UNL     1      -7.481   0.902   1.207  0.00  0.00    -0.394 OA
ATOM     39  H   UNL     1      -7.827   1.071   2.100  0.00  0.00    +0.209 HD
ENDBRANCH  20   4
ENDBRANCH  12  20
BRANCH  13  23
ATOM     23  C   UNL     1      -0.810  -1.793   0.196  0.00  0.00    +0.106 C 
BRANCH  23  24
ATOM      5  O   UNL     1       0.446  -1.532  -1.856  0.00  0.00    -0.276 OA
ATOM      8  N   UNL     1       1.100  -3.138  -0.309  0.00  0.00    -0.311 N 
ATOM     24  C   UNL     1       0.296  -2.112  -0.784  0.00  0.00    +0.214 C 
ATOM     40  H   UNL     1       0.878  -3.567   0.585  0.00  0.00    +0.149 HD
BRANCH   8  26
ATOM     26  C   UNL     1       2.235  -3.654  -1.038  0.00  0.00    +0.139 C 
BRANCH  26  28
ATOM     28  C   UNL     1       3.515  -3.498  -0.270  0.00  0.00    -0.030 A 
ATOM     30  C   UNL     1       4.280  -2.340  -0.416  0.00  0.00    +0.005 A 
ATOM     31  C   UNL     1       3.940  -4.510   0.591  0.00  0.00    +0.005 A 
ATOM     33  C   UNL     1       5.469  -2.195   0.298  0.00  0.00    +0.000 A 
ATOM     34  C   UNL     1       5.130  -4.364   1.305  0.00  0.00    +0.000 A 
ATOM     36  C   UNL     1       5.894  -3.207   1.159  0.00  0.00    +0.000 A 
ENDBRANCH  26  28
ENDBRANCH   8  26
ENDBRANCH  23  24
ENDBRANCH  13  23
TORSDOF 8
