MODEL 1
REMARK VINA RESULT:      -5.9      0.000      0.000
REMARK  Name = 28959550
REMARK  11 active torsions:
REMARK  status: ('A' for Active; 'I' for Inactive)
REMARK    1  A    between atoms: O_1  and  C_16
REMARK    2  A    between atoms: N_5  and  C_14
REMARK    3  A    between atoms: N_5  and  C_17
REMARK    4  A    between atoms: N_5  and  C_18
REMARK    5  A    between atoms: N_6  and  C_21
REMARK    6  A    between atoms: C_7  and  C_11
REMARK    7  A    between atoms: C_8  and  C_13
REMARK    8  A    between atoms: C_11  and  C_14
REMARK    9  A    between atoms: C_13  and  C_16
REMARK   10  A    between atoms: C_17  and  C_19
REMARK   11  A    between atoms: C_18  and  C_20
REMARK                            x       y       z     vdW  Elec       q    Type
REMARK                         _______ _______ _______ _____ _____    ______ ____
ROOT
ATOM      2  O   UNL     1      -7.032 -11.600  12.619  0.00  0.00    -0.252 OA
ATOM      4  N   UNL     1      -6.854 -10.638  14.714  0.00  0.00    -0.285 N 
ATOM      6  N   UNL     1      -5.245 -10.184  13.049  0.00  0.00    -0.269 N 
ATOM      7  C   UNL     1      -5.812 -10.545  16.962  0.00  0.00    +0.011 C 
ATOM      8  C   UNL     1      -7.045 -11.302  17.524  0.00  0.00    +0.006 C 
ATOM      9  C   UNL     1      -7.742 -12.146  16.441  0.00  0.00    +0.023 C 
ATOM     10  C   UNL     1      -6.223  -9.756  15.706  0.00  0.00    +0.113 C 
ATOM     12  C   UNL     1      -8.058 -11.313  15.199  0.00  0.00    +0.109 C 
ATOM     15  C   UNL     1      -6.420 -10.854  13.388  0.00  0.00    +0.306 C 
ATOM     27  H   UNL     1      -4.578  -9.987  13.788  0.00  0.00    +0.156 HD
ENDROOT
BRANCH   6  21
ATOM     21  C   UNL     1      -4.868  -9.704  11.771  0.00  0.00    +0.035 A 
ATOM     22  C   UNL     1      -5.702  -8.821  11.083  0.00  0.00    +0.023 A 
ATOM     23  C   UNL     1      -3.664 -10.113  11.200  0.00  0.00    +0.023 A 
ATOM     24  C   UNL     1      -5.330  -8.348   9.825  0.00  0.00    +0.002 A 
ATOM     25  C   UNL     1      -3.292  -9.640   9.940  0.00  0.00    +0.002 A 
ATOM     26  C   UNL     1      -4.126  -8.758   9.253  0.00  0.00    +0.000 A 
ENDBRANCH   6  21
BRANCH   7  11
ATOM     11  C   UNL     1      -4.610 -11.447  16.660  0.00  0.00    +0.020 C 
BRANCH  11  14
ATOM     14  C   UNL     1      -3.411 -10.623  16.215  0.00  0.00    +0.084 C 
BRANCH  14   5
ATOM      5  N   UNL     1      -3.043 -10.980  14.849  0.00  0.00    -0.303 NA
BRANCH   5  17
ATOM     17  C   UNL     1      -2.953 -12.434  14.702  0.00  0.00    +0.081 C 
ATOM     19  C   UNL     1      -2.262 -12.812  13.403  0.00  0.00    +0.020 C 
ENDBRANCH   5  17
BRANCH   5  18
ATOM     18  C   UNL     1      -1.774 -10.352  14.477  0.00  0.00    +0.081 C 
ATOM     20  C   UNL     1      -0.898 -10.118  15.696  0.00  0.00    +0.020 C 
ENDBRANCH   5  18
ENDBRANCH  14   5
ENDBRANCH  11  14
ENDBRANCH   7  11
BRANCH   8  13
ATOM     13  C   UNL     1      -6.716 -12.159  18.746  0.00  0.00    +0.124 C 
BRANCH  13  16
ATOM      3  O   UNL     1      -5.779 -11.420  20.872  0.00  0.00    -0.251 OA
ATOM     16  C   UNL     1      -6.629 -11.330  19.998  0.00  0.00    +0.305 C 
BRANCH  16   1
ATOM      1  O   UNL     1      -7.653 -10.440  20.030  0.00  0.00    -0.481 OA
ATOM     28  H   UNL     1      -7.939 -10.177  19.129  0.00  0.00    +0.295 HD
ENDBRANCH  16   1
ENDBRANCH  13  16
ENDBRANCH   8  13
TORSDOF 9
ENDMDL
MODEL 2
REMARK VINA RESULT:      -5.3      1.792      4.027
REMARK  Name = 28959550
REMARK  11 active torsions:
REMARK  status: ('A' for Active; 'I' for Inactive)
REMARK    1  A    between atoms: O_1  and  C_16
REMARK    2  A    between atoms: N_5  and  C_14
REMARK    3  A    between atoms: N_5  and  C_17
REMARK    4  A    between atoms: N_5  and  C_18
REMARK    5  A    between atoms: N_6  and  C_21
REMARK    6  A    between atoms: C_7  and  C_11
REMARK    7  A    between atoms: C_8  and  C_13
REMARK    8  A    between atoms: C_11  and  C_14
REMARK    9  A    between atoms: C_13  and  C_16
REMARK   10  A    between atoms: C_17  and  C_19
REMARK   11  A    between atoms: C_18  and  C_20
REMARK                            x       y       z     vdW  Elec       q    Type
REMARK                         _______ _______ _______ _____ _____    ______ ____
ROOT
ATOM      2  O   UNL     1      -2.666 -10.312  13.543  0.00  0.00    -0.252 OA
ATOM      4  N   UNL     1      -4.317 -11.273  14.845  0.00  0.00    -0.285 N 
ATOM      6  N   UNL     1      -4.873 -10.151  12.846  0.00  0.00    -0.269 N 
ATOM      7  C   UNL     1      -6.162 -11.064  16.488  0.00  0.00    +0.011 C 
ATOM      8  C   UNL     1      -5.171 -11.498  17.601  0.00  0.00    +0.006 C 
ATOM      9  C   UNL     1      -3.713 -11.177  17.226  0.00  0.00    +0.023 C 
ATOM     10  C   UNL     1      -5.707 -11.649  15.139  0.00  0.00    +0.113 C 
ATOM     12  C   UNL     1      -3.353 -11.729  15.847  0.00  0.00    +0.109 C 
ATOM     15  C   UNL     1      -3.862 -10.561  13.714  0.00  0.00    +0.306 C 
ATOM     27  H   UNL     1      -5.793  -9.974  13.234  0.00  0.00    +0.156 HD
ENDROOT
BRANCH   6  21
ATOM     21  C   UNL     1      -4.781  -9.973  11.443  0.00  0.00    +0.035 A 
ATOM     22  C   UNL     1      -5.009  -8.715  10.884  0.00  0.00    +0.023 A 
ATOM     23  C   UNL     1      -4.462 -11.053  10.622  0.00  0.00    +0.023 A 
ATOM     24  C   UNL     1      -4.919  -8.539   9.504  0.00  0.00    +0.002 A 
ATOM     25  C   UNL     1      -4.372 -10.877   9.241  0.00  0.00    +0.002 A 
ATOM     26  C   UNL     1      -4.601  -9.620   8.681  0.00  0.00    +0.000 A 
ENDBRANCH   6  21
BRANCH   7  11
ATOM     11  C   UNL     1      -6.353  -9.547  16.378  0.00  0.00    +0.020 C 
BRANCH  11  14
ATOM     14  C   UNL     1      -7.772  -9.150  16.755  0.00  0.00    +0.084 C 
BRANCH  14   5
ATOM      5  N   UNL     1      -8.720 -10.114  16.206  0.00  0.00    -0.303 NA
BRANCH   5  17
ATOM     17  C   UNL     1      -9.301  -9.613  14.959  0.00  0.00    +0.081 C 
ATOM     19  C   UNL     1      -9.045 -10.575  13.811  0.00  0.00    +0.020 C 
ENDBRANCH   5  17
BRANCH   5  18
ATOM     18  C   UNL     1      -9.776 -10.408  17.177  0.00  0.00    +0.081 C 
ATOM     20  C   UNL     1      -9.927 -11.904  17.388  0.00  0.00    +0.020 C 
ENDBRANCH   5  18
ENDBRANCH  14   5
ENDBRANCH  11  14
ENDBRANCH   7  11
BRANCH   8  13
ATOM     13  C   UNL     1      -5.516 -10.916  18.971  0.00  0.00    +0.124 C 
BRANCH  13  16
ATOM      3  O   UNL     1      -7.179 -12.621  19.493  0.00  0.00    -0.251 OA
ATOM     16  C   UNL     1      -6.823 -11.452  19.489  0.00  0.00    +0.305 C 
BRANCH  16   1
ATOM      1  O   UNL     1      -7.579 -10.431  19.967  0.00  0.00    -0.481 OA
ATOM     28  H   UNL     1      -7.241  -9.557  19.676  0.00  0.00    +0.295 HD
ENDBRANCH  16   1
ENDBRANCH  13  16
ENDBRANCH   8  13
TORSDOF 9
ENDMDL
MODEL 3
REMARK VINA RESULT:      -5.2      2.304      7.090
REMARK  Name = 28959550
REMARK  11 active torsions:
REMARK  status: ('A' for Active; 'I' for Inactive)
REMARK    1  A    between atoms: O_1  and  C_16
REMARK    2  A    between atoms: N_5  and  C_14
REMARK    3  A    between atoms: N_5  and  C_17
REMARK    4  A    between atoms: N_5  and  C_18
REMARK    5  A    between atoms: N_6  and  C_21
REMARK    6  A    between atoms: C_7  and  C_11
REMARK    7  A    between atoms: C_8  and  C_13
REMARK    8  A    between atoms: C_11  and  C_14
REMARK    9  A    between atoms: C_13  and  C_16
REMARK   10  A    between atoms: C_17  and  C_19
REMARK   11  A    between atoms: C_18  and  C_20
REMARK                            x       y       z     vdW  Elec       q    Type
REMARK                         _______ _______ _______ _____ _____    ______ ____
ROOT
ATOM      2  O   UNL     1      -6.639  -9.649  14.632  0.00  0.00    -0.252 OA
ATOM      4  N   UNL     1      -5.871 -10.841  12.807  0.00  0.00    -0.285 N 
ATOM      6  N   UNL     1      -4.869 -11.119  14.924  0.00  0.00    -0.269 N 
ATOM      7  C   UNL     1      -4.197 -11.194  11.012  0.00  0.00    +0.011 C 
ATOM      8  C   UNL     1      -5.166 -10.495  10.021  0.00  0.00    +0.006 C 
ATOM      9  C   UNL     1      -6.123  -9.529  10.743  0.00  0.00    +0.023 C 
ATOM     10  C   UNL     1      -5.005 -11.834  12.155  0.00  0.00    +0.113 C 
ATOM     12  C   UNL     1      -6.839 -10.215  11.906  0.00  0.00    +0.109 C 
ATOM     15  C   UNL     1      -5.854 -10.481  14.172  0.00  0.00    +0.306 C 
ATOM     27  H   UNL     1      -4.017 -11.403  14.452  0.00  0.00    +0.156 HD
ENDROOT
BRANCH   6  21
ATOM     21  C   UNL     1      -4.921 -11.456  16.299  0.00  0.00    +0.035 A 
ATOM     22  C   UNL     1      -4.934 -12.796  16.689  0.00  0.00    +0.023 A 
ATOM     23  C   UNL     1      -4.959 -10.449  17.263  0.00  0.00    +0.023 A 
ATOM     24  C   UNL     1      -4.984 -13.128  18.042  0.00  0.00    +0.002 A 
ATOM     25  C   UNL     1      -5.011 -10.781  18.617  0.00  0.00    +0.002 A 
ATOM     26  C   UNL     1      -5.024 -12.121  19.007  0.00  0.00    +0.000 A 
ENDBRANCH   6  21
BRANCH   7  11
ATOM     11  C   UNL     1      -3.107 -10.274  11.574  0.00  0.00    +0.020 C 
BRANCH  11  14
ATOM     14  C   UNL     1      -1.980 -11.085  12.196  0.00  0.00    +0.084 C 
BRANCH  14   5
ATOM      5  N   UNL     1      -2.145 -11.134  13.645  0.00  0.00    -0.303 NA
BRANCH   5  17
ATOM     17  C   UNL     1      -1.440 -10.020  14.282  0.00  0.00    +0.081 C 
ATOM     19  C   UNL     1      -1.211 -10.289  15.760  0.00  0.00    +0.020 C 
ENDBRANCH   5  17
BRANCH   5  18
ATOM     18  C   UNL     1      -1.661 -12.410  14.175  0.00  0.00    +0.081 C 
ATOM     20  C   UNL     1      -1.820 -13.524  13.155  0.00  0.00    +0.020 C 
ENDBRANCH   5  18
ENDBRANCH  14   5
ENDBRANCH  11  14
ENDBRANCH   7  11
BRANCH   8  13
ATOM     13  C   UNL     1      -4.443  -9.783   8.878  0.00  0.00    +0.124 C 
BRANCH  13  16
ATOM      3  O   UNL     1      -4.885 -11.074   6.858  0.00  0.00    -0.251 OA
ATOM     16  C   UNL     1      -5.077 -10.084   7.548  0.00  0.00    +0.305 C 
BRANCH  16   1
ATOM      1  O   UNL     1      -5.919  -9.076   7.204  0.00  0.00    -0.481 OA
ATOM     28  H   UNL     1      -5.915  -8.909   6.237  0.00  0.00    +0.295 HD
ENDBRANCH  16   1
ENDBRANCH  13  16
ENDBRANCH   8  13
TORSDOF 9
ENDMDL
MODEL 4
REMARK VINA RESULT:      -5.0     21.162     23.075
REMARK  Name = 28959550
REMARK  11 active torsions:
REMARK  status: ('A' for Active; 'I' for Inactive)
REMARK    1  A    between atoms: O_1  and  C_16
REMARK    2  A    between atoms: N_5  and  C_14
REMARK    3  A    between atoms: N_5  and  C_17
REMARK    4  A    between atoms: N_5  and  C_18
REMARK    5  A    between atoms: N_6  and  C_21
REMARK    6  A    between atoms: C_7  and  C_11
REMARK    7  A    between atoms: C_8  and  C_13
REMARK    8  A    between atoms: C_11  and  C_14
REMARK    9  A    between atoms: C_13  and  C_16
REMARK   10  A    between atoms: C_17  and  C_19
REMARK   11  A    between atoms: C_18  and  C_20
REMARK                            x       y       z     vdW  Elec       q    Type
REMARK                         _______ _______ _______ _____ _____    ______ ____
ROOT
ATOM      2  O   UNL     1     -12.751   7.603  17.343  0.00  0.00    -0.252 OA
ATOM      4  N   UNL     1     -11.009   9.067  17.752  0.00  0.00    -0.285 N 
ATOM      6  N   UNL     1     -12.462   8.422  19.494  0.00  0.00    -0.269 N 
ATOM      7  C   UNL     1     -10.173  11.369  18.139  0.00  0.00    +0.011 C 
ATOM      8  C   UNL     1      -9.735  11.421  16.650  0.00  0.00    +0.006 C 
ATOM      9  C   UNL     1     -10.564  10.462  15.776  0.00  0.00    +0.023 C 
ATOM     10  C   UNL     1     -10.175   9.908  18.622  0.00  0.00    +0.113 C 
ATOM     12  C   UNL     1     -10.576   9.047  16.354  0.00  0.00    +0.109 C 
ATOM     15  C   UNL     1     -12.125   8.298  18.147  0.00  0.00    +0.306 C 
ATOM     27  H   UNL     1     -12.240   9.294  19.964  0.00  0.00    +0.156 HD
ENDROOT
BRANCH   6  21
ATOM     21  C   UNL     1     -13.069   7.445  20.321  0.00  0.00    +0.035 A 
ATOM     22  C   UNL     1     -14.460   7.371  20.409  0.00  0.00    +0.023 A 
ATOM     23  C   UNL     1     -12.276   6.557  21.047  0.00  0.00    +0.023 A 
ATOM     24  C   UNL     1     -15.056   6.409  21.223  0.00  0.00    +0.002 A 
ATOM     25  C   UNL     1     -12.874   5.594  21.862  0.00  0.00    +0.002 A 
ATOM     26  C   UNL     1     -14.264   5.521  21.951  0.00  0.00    +0.000 A 
ENDBRANCH   6  21
BRANCH   7  11
ATOM     11  C   UNL     1     -11.530  12.028  18.414  0.00  0.00    +0.020 C 
BRANCH  11  14
ATOM     14  C   UNL     1     -11.925  11.867  19.875  0.00  0.00    +0.084 C 
BRANCH  14   5
ATOM      5  N   UNL     1     -13.218  11.199  19.968  0.00  0.00    -0.303 NA
BRANCH   5  17
ATOM     17  C   UNL     1     -14.175  11.794  19.033  0.00  0.00    +0.081 C 
ATOM     19  C   UNL     1     -15.051  10.729  18.394  0.00  0.00    +0.020 C 
ENDBRANCH   5  17
BRANCH   5  18
ATOM     18  C   UNL     1     -13.736  11.267  21.336  0.00  0.00    +0.081 C 
ATOM     20  C   UNL     1     -12.746  10.680  22.328  0.00  0.00    +0.020 C 
ENDBRANCH   5  18
ENDBRANCH  14   5
ENDBRANCH  11  14
ENDBRANCH   7  11
BRANCH   8  13
ATOM     13  C   UNL     1      -9.757  12.834  16.069  0.00  0.00    +0.124 C 
BRANCH  13  16
ATOM      3  O   UNL     1      -7.394  13.355  16.365  0.00  0.00    -0.251 OA
ATOM     16  C   UNL     1      -8.383  13.283  15.651  0.00  0.00    +0.305 C 
BRANCH  16   1
ATOM      1  O   UNL     1      -8.389  13.609  14.334  0.00  0.00    -0.481 OA
ATOM     28  H   UNL     1      -8.685  12.860  13.773  0.00  0.00    +0.295 HD
ENDBRANCH  16   1
ENDBRANCH  13  16
ENDBRANCH   8  13
TORSDOF 9
ENDMDL
MODEL 5
REMARK VINA RESULT:      -5.0      3.759      7.827
REMARK  Name = 28959550
REMARK  11 active torsions:
REMARK  status: ('A' for Active; 'I' for Inactive)
REMARK    1  A    between atoms: O_1  and  C_16
REMARK    2  A    between atoms: N_5  and  C_14
REMARK    3  A    between atoms: N_5  and  C_17
REMARK    4  A    between atoms: N_5  and  C_18
REMARK    5  A    between atoms: N_6  and  C_21
REMARK    6  A    between atoms: C_7  and  C_11
REMARK    7  A    between atoms: C_8  and  C_13
REMARK    8  A    between atoms: C_11  and  C_14
REMARK    9  A    between atoms: C_13  and  C_16
REMARK   10  A    between atoms: C_17  and  C_19
REMARK   11  A    between atoms: C_18  and  C_20
REMARK                            x       y       z     vdW  Elec       q    Type
REMARK                         _______ _______ _______ _____ _____    ______ ____
ROOT
ATOM      2  O   UNL     1      -7.819 -14.245  17.868  0.00  0.00    -0.252 OA
ATOM      4  N   UNL     1      -6.222 -12.604  18.182  0.00  0.00    -0.285 N 
ATOM      6  N   UNL     1      -8.467 -12.219  18.794  0.00  0.00    -0.269 N 
ATOM      7  C   UNL     1      -5.146 -10.481  17.486  0.00  0.00    +0.011 C 
ATOM      8  C   UNL     1      -4.016 -11.314  16.823  0.00  0.00    +0.006 C 
ATOM      9  C   UNL     1      -4.497 -12.723  16.434  0.00  0.00    +0.023 C 
ATOM     10  C   UNL     1      -5.764 -11.285  18.643  0.00  0.00    +0.113 C 
ATOM     12  C   UNL     1      -5.160 -13.435  17.613  0.00  0.00    +0.109 C 
ATOM     15  C   UNL     1      -7.536 -13.111  18.264  0.00  0.00    +0.306 C 
ATOM     27  H   UNL     1      -8.301 -11.225  18.668  0.00  0.00    +0.156 HD
ENDROOT
BRANCH   6  21
ATOM     21  C   UNL     1      -9.635 -12.532  19.532  0.00  0.00    +0.035 A 
ATOM     22  C   UNL     1      -9.583 -13.494  20.542  0.00  0.00    +0.023 A 
ATOM     23  C   UNL     1     -10.834 -11.880  19.251  0.00  0.00    +0.023 A 
ATOM     24  C   UNL     1     -10.733 -13.803  21.269  0.00  0.00    +0.002 A 
ATOM     25  C   UNL     1     -11.984 -12.190  19.978  0.00  0.00    +0.002 A 
ATOM     26  C   UNL     1     -11.934 -13.151  20.987  0.00  0.00    +0.000 A 
ENDBRANCH   6  21
BRANCH   7  11
ATOM     11  C   UNL     1      -6.235 -10.018  16.511  0.00  0.00    +0.020 C 
BRANCH  11  14
ATOM     14  C   UNL     1      -7.310  -9.222  17.236  0.00  0.00    +0.084 C 
BRANCH  14   5
ATOM      5  N   UNL     1      -8.615  -9.834  17.014  0.00  0.00    -0.303 NA
BRANCH   5  17
ATOM     17  C   UNL     1      -8.790 -10.177  15.601  0.00  0.00    +0.081 C 
ATOM     19  C   UNL     1      -9.437 -11.543  15.445  0.00  0.00    +0.020 C 
ENDBRANCH   5  17
BRANCH   5  18
ATOM     18  C   UNL     1      -9.686  -8.939  17.457  0.00  0.00    +0.081 C 
ATOM     20  C   UNL     1      -9.778  -7.712  16.566  0.00  0.00    +0.020 C 
ENDBRANCH   5  18
ENDBRANCH  14   5
ENDBRANCH  11  14
ENDBRANCH   7  11
BRANCH   8  13
ATOM     13  C   UNL     1      -3.379 -10.612  15.624  0.00  0.00    +0.124 C 
BRANCH  13  16
ATOM      3  O   UNL     1      -1.148  -9.790  15.085  0.00  0.00    -0.251 OA
ATOM     16  C   UNL     1      -1.900 -10.417  15.817  0.00  0.00    +0.305 C 
BRANCH  16   1
ATOM      1  O   UNL     1      -1.498 -11.049  16.948  0.00  0.00    -0.481 OA
ATOM     28  H   UNL     1      -2.237 -11.527  17.383  0.00  0.00    +0.295 HD
ENDBRANCH  16   1
ENDBRANCH  13  16
ENDBRANCH   8  13
TORSDOF 9
ENDMDL
MODEL 6
REMARK VINA RESULT:      -4.9      3.364      5.361
REMARK  Name = 28959550
REMARK  11 active torsions:
REMARK  status: ('A' for Active; 'I' for Inactive)
REMARK    1  A    between atoms: O_1  and  C_16
REMARK    2  A    between atoms: N_5  and  C_14
REMARK    3  A    between atoms: N_5  and  C_17
REMARK    4  A    between atoms: N_5  and  C_18
REMARK    5  A    between atoms: N_6  and  C_21
REMARK    6  A    between atoms: C_7  and  C_11
REMARK    7  A    between atoms: C_8  and  C_13
REMARK    8  A    between atoms: C_11  and  C_14
REMARK    9  A    between atoms: C_13  and  C_16
REMARK   10  A    between atoms: C_17  and  C_19
REMARK   11  A    between atoms: C_18  and  C_20
REMARK                            x       y       z     vdW  Elec       q    Type
REMARK                         _______ _______ _______ _____ _____    ______ ____
ROOT
ATOM      2  O   UNL     1     -10.819 -10.485  17.572  0.00  0.00    -0.252 OA
ATOM      4  N   UNL     1      -8.588 -10.100  18.039  0.00  0.00    -0.285 N 
ATOM      6  N   UNL     1      -9.644  -8.987  16.247  0.00  0.00    -0.269 N 
ATOM      7  C   UNL     1      -6.187 -10.456  17.533  0.00  0.00    +0.011 C 
ATOM      8  C   UNL     1      -6.141 -11.509  18.673  0.00  0.00    +0.006 C 
ATOM      9  C   UNL     1      -7.526 -12.127  18.938  0.00  0.00    +0.023 C 
ATOM     10  C   UNL     1      -7.297  -9.431  17.826  0.00  0.00    +0.113 C 
ATOM     12  C   UNL     1      -8.589 -11.050  19.153  0.00  0.00    +0.109 C 
ATOM     15  C   UNL     1      -9.774  -9.889  17.302  0.00  0.00    +0.306 C 
ATOM     27  H   UNL     1      -8.735  -8.898  15.805  0.00  0.00    +0.156 HD
ENDROOT
BRANCH   6  21
ATOM     21  C   UNL     1     -10.643  -8.134  15.718  0.00  0.00    +0.035 A 
ATOM     22  C   UNL     1     -10.962  -6.943  16.374  0.00  0.00    +0.023 A 
ATOM     23  C   UNL     1     -11.307  -8.482  14.543  0.00  0.00    +0.023 A 
ATOM     24  C   UNL     1     -11.945  -6.103  15.852  0.00  0.00    +0.002 A 
ATOM     25  C   UNL     1     -12.292  -7.642  14.022  0.00  0.00    +0.002 A 
ATOM     26  C   UNL     1     -12.611  -6.452  14.677  0.00  0.00    +0.000 A 
ENDBRANCH   6  21
BRANCH   7  11
ATOM     11  C   UNL     1      -6.367 -11.058  16.135  0.00  0.00    +0.020 C 
BRANCH  11  14
ATOM     14  C   UNL     1      -5.887 -10.091  15.062  0.00  0.00    +0.084 C 
BRANCH  14   5
ATOM      5  N   UNL     1      -5.021 -10.788  14.118  0.00  0.00    -0.303 NA
BRANCH   5  17
ATOM     17  C   UNL     1      -3.618 -10.666  14.519  0.00  0.00    +0.081 C 
ATOM     19  C   UNL     1      -2.703 -10.632  13.306  0.00  0.00    +0.020 C 
ENDBRANCH   5  17
BRANCH   5  18
ATOM     18  C   UNL     1      -5.210 -10.265  12.763  0.00  0.00    +0.081 C 
ATOM     20  C   UNL     1      -6.416  -9.345  12.693  0.00  0.00    +0.020 C 
ENDBRANCH   5  18
ENDBRANCH  14   5
ENDBRANCH  11  14
ENDBRANCH   7  11
BRANCH   8  13
ATOM     13  C   UNL     1      -5.099 -12.602  18.438  0.00  0.00    +0.124 C 
BRANCH  13  16
ATOM      3  O   UNL     1      -3.305 -12.287  20.058  0.00  0.00    -0.251 OA
ATOM     16  C   UNL     1      -3.737 -12.184  18.919  0.00  0.00    +0.305 C 
BRANCH  16   1
ATOM      1  O   UNL     1      -3.028 -11.660  17.887  0.00  0.00    -0.481 OA
ATOM     28  H   UNL     1      -2.357 -12.289  17.547  0.00  0.00    +0.295 HD
ENDBRANCH  16   1
ENDBRANCH  13  16
ENDBRANCH   8  13
TORSDOF 9
ENDMDL
MODEL 7
REMARK VINA RESULT:      -4.9      3.295      7.331
REMARK  Name = 28959550
REMARK  11 active torsions:
REMARK  status: ('A' for Active; 'I' for Inactive)
REMARK    1  A    between atoms: O_1  and  C_16
REMARK    2  A    between atoms: N_5  and  C_14
REMARK    3  A    between atoms: N_5  and  C_17
REMARK    4  A    between atoms: N_5  and  C_18
REMARK    5  A    between atoms: N_6  and  C_21
REMARK    6  A    between atoms: C_7  and  C_11
REMARK    7  A    between atoms: C_8  and  C_13
REMARK    8  A    between atoms: C_11  and  C_14
REMARK    9  A    between atoms: C_13  and  C_16
REMARK   10  A    between atoms: C_17  and  C_19
REMARK   11  A    between atoms: C_18  and  C_20
REMARK                            x       y       z     vdW  Elec       q    Type
REMARK                         _______ _______ _______ _____ _____    ______ ____
ROOT
ATOM      2  O   UNL     1      -7.424 -12.151  20.171  0.00  0.00    -0.252 OA
ATOM      4  N   UNL     1      -6.447 -10.811  18.561  0.00  0.00    -0.285 N 
ATOM      6  N   UNL     1      -8.778 -11.176  18.559  0.00  0.00    -0.269 N 
ATOM      7  C   UNL     1      -5.630 -10.469  16.246  0.00  0.00    +0.011 C 
ATOM      8  C   UNL     1      -4.188 -10.737  16.754  0.00  0.00    +0.006 C 
ATOM      9  C   UNL     1      -4.182 -11.603  18.028  0.00  0.00    +0.023 C 
ATOM     10  C   UNL     1      -6.485  -9.914  17.397  0.00  0.00    +0.113 C 
ATOM     12  C   UNL     1      -5.105 -11.026  19.101  0.00  0.00    +0.109 C 
ATOM     15  C   UNL     1      -7.555 -11.429  19.180  0.00  0.00    +0.306 C 
ATOM     27  H   UNL     1      -8.777 -10.990  17.561  0.00  0.00    +0.156 HD
ENDROOT
BRANCH   6  21
ATOM     21  C   UNL     1     -10.055 -11.116  19.169  0.00  0.00    +0.035 A 
ATOM     22  C   UNL     1     -10.731  -9.897  19.252  0.00  0.00    +0.023 A 
ATOM     23  C   UNL     1     -10.637 -12.273  19.685  0.00  0.00    +0.023 A 
ATOM     24  C   UNL     1     -11.988  -9.838  19.852  0.00  0.00    +0.002 A 
ATOM     25  C   UNL     1     -11.895 -12.213  20.286  0.00  0.00    +0.002 A 
ATOM     26  C   UNL     1     -12.571 -10.995  20.370  0.00  0.00    +0.000 A 
ENDBRANCH   6  21
BRANCH   7  11
ATOM     11  C   UNL     1      -6.307 -11.692  15.615  0.00  0.00    +0.020 C 
BRANCH  11  14
ATOM     14  C   UNL     1      -6.535 -11.478  14.126  0.00  0.00    +0.084 C 
BRANCH  14   5
ATOM      5  N   UNL     1      -6.965 -10.106  13.882  0.00  0.00    -0.303 NA
BRANCH   5  17
ATOM     17  C   UNL     1      -8.408 -10.053  13.638  0.00  0.00    +0.081 C 
ATOM     19  C   UNL     1      -9.133  -9.371  14.785  0.00  0.00    +0.020 C 
ENDBRANCH   5  17
BRANCH   5  18
ATOM     18  C   UNL     1      -6.236  -9.532  12.748  0.00  0.00    +0.081 C 
ATOM     20  C   UNL     1      -4.924 -10.260  12.514  0.00  0.00    +0.020 C 
ENDBRANCH   5  18
ENDBRANCH  14   5
ENDBRANCH  11  14
ENDBRANCH   7  11
BRANCH   8  13
ATOM     13  C   UNL     1      -3.279 -11.344  15.686  0.00  0.00    +0.124 C 
BRANCH  13  16
ATOM      3  O   UNL     1      -1.547  -9.921  14.727  0.00  0.00    -0.251 OA
ATOM     16  C   UNL     1      -1.948 -10.645  15.627  0.00  0.00    +0.305 C 
BRANCH  16   1
ATOM      1  O   UNL     1      -1.229 -10.932  16.741  0.00  0.00    -0.481 OA
ATOM     28  H   UNL     1      -0.666 -11.726  16.619  0.00  0.00    +0.295 HD
ENDBRANCH  16   1
ENDBRANCH  13  16
ENDBRANCH   8  13
TORSDOF 9
ENDMDL
MODEL 8
REMARK VINA RESULT:      -4.9     21.482     22.923
REMARK  Name = 28959550
REMARK  11 active torsions:
REMARK  status: ('A' for Active; 'I' for Inactive)
REMARK    1  A    between atoms: O_1  and  C_16
REMARK    2  A    between atoms: N_5  and  C_14
REMARK    3  A    between atoms: N_5  and  C_17
REMARK    4  A    between atoms: N_5  and  C_18
REMARK    5  A    between atoms: N_6  and  C_21
REMARK    6  A    between atoms: C_7  and  C_11
REMARK    7  A    between atoms: C_8  and  C_13
REMARK    8  A    between atoms: C_11  and  C_14
REMARK    9  A    between atoms: C_13  and  C_16
REMARK   10  A    between atoms: C_17  and  C_19
REMARK   11  A    between atoms: C_18  and  C_20
REMARK                            x       y       z     vdW  Elec       q    Type
REMARK                         _______ _______ _______ _____ _____    ______ ____
ROOT
ATOM      2  O   UNL     1      -9.708   9.477  19.488  0.00  0.00    -0.252 OA
ATOM      4  N   UNL     1     -11.872   8.666  19.420  0.00  0.00    -0.285 N 
ATOM      6  N   UNL     1     -11.444  10.962  19.084  0.00  0.00    -0.269 N 
ATOM      7  C   UNL     1     -14.092   8.352  20.479  0.00  0.00    +0.011 C 
ATOM      8  C   UNL     1     -13.668   6.906  20.853  0.00  0.00    +0.006 C 
ATOM      9  C   UNL     1     -12.138   6.767  20.958  0.00  0.00    +0.023 C 
ATOM     10  C   UNL     1     -13.322   8.805  19.226  0.00  0.00    +0.113 C 
ATOM     12  C   UNL     1     -11.439   7.298  19.707  0.00  0.00    +0.109 C 
ATOM     15  C   UNL     1     -10.912   9.697  19.331  0.00  0.00    +0.306 C 
ATOM     27  H   UNL     1     -12.385  11.155  19.412  0.00  0.00    +0.156 HD
ENDROOT
BRANCH   6  21
ATOM     21  C   UNL     1     -10.831  12.032  18.389  0.00  0.00    +0.035 A 
ATOM     22  C   UNL     1      -9.803  11.775  17.480  0.00  0.00    +0.023 A 
ATOM     23  C   UNL     1     -11.253  13.342  18.611  0.00  0.00    +0.023 A 
ATOM     24  C   UNL     1      -9.199  12.829  16.795  0.00  0.00    +0.002 A 
ATOM     25  C   UNL     1     -10.648  14.396  17.926  0.00  0.00    +0.002 A 
ATOM     26  C   UNL     1      -9.621  14.140  17.018  0.00  0.00    +0.000 A 
ENDBRANCH   6  21
BRANCH   7  11
ATOM     11  C   UNL     1     -13.914   9.367  21.614  0.00  0.00    +0.020 C 
BRANCH  11  14
ATOM     14  C   UNL     1     -14.140  10.786  21.113  0.00  0.00    +0.084 C 
BRANCH  14   5
ATOM      5  N   UNL     1     -13.172  11.689  21.727  0.00  0.00    -0.303 NA
BRANCH   5  17
ATOM     17  C   UNL     1     -12.256  10.949  22.597  0.00  0.00    +0.081 C 
ATOM     19  C   UNL     1     -12.072  11.658  23.928  0.00  0.00    +0.020 C 
ENDBRANCH   5  17
BRANCH   5  18
ATOM     18  C   UNL     1     -13.856  12.739  22.484  0.00  0.00    +0.081 C 
ATOM     20  C   UNL     1     -14.426  13.800  21.560  0.00  0.00    +0.020 C 
ENDBRANCH   5  18
ENDBRANCH  14   5
ENDBRANCH  11  14
ENDBRANCH   7  11
BRANCH   8  13
ATOM     13  C   UNL     1     -14.345   6.392  22.123  0.00  0.00    +0.124 C 
BRANCH  13  16
ATOM      3  O   UNL     1     -16.100   4.765  21.658  0.00  0.00    -0.251 OA
ATOM     16  C   UNL     1     -14.935   5.023  21.923  0.00  0.00    +0.305 C 
BRANCH  16   1
ATOM      1  O   UNL     1     -13.971   4.081  22.080  0.00  0.00    -0.481 OA
ATOM     28  H   UNL     1     -14.347   3.209  22.325  0.00  0.00    +0.295 HD
ENDBRANCH  16   1
ENDBRANCH  13  16
ENDBRANCH   8  13
TORSDOF 9
ENDMDL
MODEL 9
REMARK VINA RESULT:      -4.8     23.899     27.455
REMARK  Name = 28959550
REMARK  11 active torsions:
REMARK  status: ('A' for Active; 'I' for Inactive)
REMARK    1  A    between atoms: O_1  and  C_16
REMARK    2  A    between atoms: N_5  and  C_14
REMARK    3  A    between atoms: N_5  and  C_17
REMARK    4  A    between atoms: N_5  and  C_18
REMARK    5  A    between atoms: N_6  and  C_21
REMARK    6  A    between atoms: C_7  and  C_11
REMARK    7  A    between atoms: C_8  and  C_13
REMARK    8  A    between atoms: C_11  and  C_14
REMARK    9  A    between atoms: C_13  and  C_16
REMARK   10  A    between atoms: C_17  and  C_19
REMARK   11  A    between atoms: C_18  and  C_20
REMARK                            x       y       z     vdW  Elec       q    Type
REMARK                         _______ _______ _______ _____ _____    ______ ____
ROOT
ATOM      2  O   UNL     1      17.684  -5.676  27.585  0.00  0.00    -0.252 OA
ATOM      4  N   UNL     1      19.033  -5.421  25.725  0.00  0.00    -0.285 N 
ATOM      6  N   UNL     1      18.387  -3.544  26.999  0.00  0.00    -0.269 N 
ATOM      7  C   UNL     1      19.328  -4.784  23.347  0.00  0.00    +0.011 C 
ATOM      8  C   UNL     1      19.269  -6.290  22.974  0.00  0.00    +0.006 C 
ATOM      9  C   UNL     1      18.491  -7.108  24.021  0.00  0.00    +0.023 C 
ATOM     10  C   UNL     1      19.845  -4.632  24.788  0.00  0.00    +0.113 C 
ATOM     12  C   UNL     1      19.015  -6.855  25.434  0.00  0.00    +0.109 C 
ATOM     15  C   UNL     1      18.323  -4.927  26.841  0.00  0.00    +0.306 C 
ATOM     27  H   UNL     1      18.510  -2.974  26.168  0.00  0.00    +0.156 HD
ENDROOT
BRANCH   6  21
ATOM     21  C   UNL     1      18.329  -2.814  28.212  0.00  0.00    +0.035 A 
ATOM     22  C   UNL     1      19.493  -2.265  28.752  0.00  0.00    +0.023 A 
ATOM     23  C   UNL     1      17.109  -2.642  28.865  0.00  0.00    +0.023 A 
ATOM     24  C   UNL     1      19.436  -1.546  29.945  0.00  0.00    +0.002 A 
ATOM     25  C   UNL     1      17.052  -1.924  30.060  0.00  0.00    +0.002 A 
ATOM     26  C   UNL     1      18.216  -1.376  30.600  0.00  0.00    +0.000 A 
ENDBRANCH   6  21
BRANCH   7  11
ATOM     11  C   UNL     1      17.996  -4.045  23.174  0.00  0.00    +0.020 C 
BRANCH  11  14
ATOM     14  C   UNL     1      18.223  -2.551  22.997  0.00  0.00    +0.084 C 
BRANCH  14   5
ATOM      5  N   UNL     1      17.044  -1.815  23.440  0.00  0.00    -0.303 NA
BRANCH   5  17
ATOM     17  C   UNL     1      17.329  -1.080  24.675  0.00  0.00    +0.081 C 
ATOM     19  C   UNL     1      18.825  -0.898  24.871  0.00  0.00    +0.020 C 
ENDBRANCH   5  17
BRANCH   5  18
ATOM     18  C   UNL     1      15.914  -2.724  23.639  0.00  0.00    +0.081 C 
ATOM     20  C   UNL     1      14.959  -2.679  22.458  0.00  0.00    +0.020 C 
ENDBRANCH   5  18
ENDBRANCH  14   5
ENDBRANCH  11  14
ENDBRANCH   7  11
BRANCH   8  13
ATOM     13  C   UNL     1      18.713  -6.539  21.573  0.00  0.00    +0.124 C 
BRANCH  13  16
ATOM      3  O   UNL     1      20.007  -5.096  20.095  0.00  0.00    -0.251 OA
ATOM     16  C   UNL     1      19.723  -6.210  20.508  0.00  0.00    +0.305 C 
BRANCH  16   1
ATOM      1  O   UNL     1      20.297  -7.353  20.053  0.00  0.00    -0.481 OA
ATOM     28  H   UNL     1      21.235  -7.216  19.801  0.00  0.00    +0.295 HD
ENDBRANCH  16   1
ENDBRANCH  13  16
ENDBRANCH   8  13
TORSDOF 9
ENDMDL
MODEL 10
REMARK VINA RESULT:      -4.8     20.728     22.098
REMARK  Name = 28959550
REMARK  11 active torsions:
REMARK  status: ('A' for Active; 'I' for Inactive)
REMARK    1  A    between atoms: O_1  and  C_16
REMARK    2  A    between atoms: N_5  and  C_14
REMARK    3  A    between atoms: N_5  and  C_17
REMARK    4  A    between atoms: N_5  and  C_18
REMARK    5  A    between atoms: N_6  and  C_21
REMARK    6  A    between atoms: C_7  and  C_11
REMARK    7  A    between atoms: C_8  and  C_13
REMARK    8  A    between atoms: C_11  and  C_14
REMARK    9  A    between atoms: C_13  and  C_16
REMARK   10  A    between atoms: C_17  and  C_19
REMARK   11  A    between atoms: C_18  and  C_20
REMARK                            x       y       z     vdW  Elec       q    Type
REMARK                         _______ _______ _______ _____ _____    ______ ____
ROOT
ATOM      2  O   UNL     1     -11.865  12.492  18.647  0.00  0.00    -0.252 OA
ATOM      4  N   UNL     1     -10.969  10.521  19.457  0.00  0.00    -0.285 N 
ATOM      6  N   UNL     1     -10.317  11.352  17.348  0.00  0.00    -0.269 N 
ATOM      7  C   UNL     1     -10.868   8.044  19.472  0.00  0.00    +0.011 C 
ATOM      8  C   UNL     1     -11.749   8.052  20.750  0.00  0.00    +0.006 C 
ATOM      9  C   UNL     1     -12.610   9.325  20.844  0.00  0.00    +0.023 C 
ATOM     10  C   UNL     1     -10.073   9.358  19.388  0.00  0.00    +0.113 C 
ATOM     12  C   UNL     1     -11.762  10.587  20.685  0.00  0.00    +0.109 C 
ATOM     15  C   UNL     1     -11.098  11.539  18.488  0.00  0.00    +0.306 C 
ATOM     27  H   UNL     1     -10.090  10.401  17.075  0.00  0.00    +0.156 HD
ENDROOT
BRANCH   6  21
ATOM     21  C   UNL     1      -9.760  12.353  16.515  0.00  0.00    +0.035 A 
ATOM     22  C   UNL     1      -8.583  13.000  16.894  0.00  0.00    +0.023 A 
ATOM     23  C   UNL     1     -10.386  12.691  15.316  0.00  0.00    +0.023 A 
ATOM     24  C   UNL     1      -8.034  13.985  16.073  0.00  0.00    +0.002 A 
ATOM     25  C   UNL     1      -9.837  13.678  14.495  0.00  0.00    +0.002 A 
ATOM     26  C   UNL     1      -8.661  14.325  14.874  0.00  0.00    +0.000 A 
ENDBRANCH   6  21
BRANCH   7  11
ATOM     11  C   UNL     1     -11.652   7.807  18.175  0.00  0.00    +0.020 C 
BRANCH  11  14
ATOM     14  C   UNL     1     -10.750   7.962  16.960  0.00  0.00    +0.084 C 
BRANCH  14   5
ATOM      5  N   UNL     1     -11.311   8.953  16.049  0.00  0.00    -0.303 NA
BRANCH   5  17
ATOM     17  C   UNL     1     -12.770   8.839  15.998  0.00  0.00    +0.081 C 
ATOM     19  C   UNL     1     -13.416  10.188  15.731  0.00  0.00    +0.020 C 
ENDBRANCH   5  17
BRANCH   5  18
ATOM     18  C   UNL     1     -10.743   8.801  14.708  0.00  0.00    +0.081 C 
ATOM     20  C   UNL     1     -10.337   7.361  14.444  0.00  0.00    +0.020 C 
ENDBRANCH   5  18
ENDBRANCH  14   5
ENDBRANCH  11  14
ENDBRANCH   7  11
BRANCH   8  13
ATOM     13  C   UNL     1     -12.619   6.803  20.887  0.00  0.00    +0.124 C 
BRANCH  13  16
ATOM      3  O   UNL     1     -14.765   7.350  19.869  0.00  0.00    -0.251 OA
ATOM     16  C   UNL     1     -14.084   7.141  20.862  0.00  0.00    +0.305 C 
BRANCH  16   1
ATOM      1  O   UNL     1     -14.566   7.184  22.130  0.00  0.00    -0.481 OA
ATOM     28  H   UNL     1     -15.318   7.808  22.215  0.00  0.00    +0.295 HD
ENDBRANCH  16   1
ENDBRANCH  13  16
ENDBRANCH   8  13
TORSDOF 9
ENDMDL
