REMARK  Name = 38028609
REMARK  13 active torsions:
REMARK  status: ('A' for Active; 'I' for Inactive)
REMARK    1  A    between atoms: S_1  and  N_5
REMARK    2  A    between atoms: S_1  and  C_20
REMARK    3  A    between atoms: N_5  and  C_14
REMARK    4  A    between atoms: N_6  and  C_21
REMARK    5  A    between atoms: C_7  and  C_11
REMARK    6  A    between atoms: C_8  and  C_14
REMARK    7  A    between atoms: C_10  and  C_15
REMARK    8  A    between atoms: C_11  and  C_16
REMARK    9  A    between atoms: C_11  and  C_17
REMARK   10  A    between atoms: C_12  and  C_18
REMARK   11  A    between atoms: C_15  and  C_19
REMARK   12  A    between atoms: C_21  and  C_27
REMARK   13  A    between atoms: C_26  and  C_28
REMARK                            x       y       z     vdW  Elec       q    Type
REMARK                         _______ _______ _______ _____ _____    ______ ____
ROOT
ATOM      7  C   UNL     1       0.380   1.435  -1.124  0.00  0.00    +0.000 C 
ATOM      8  C   UNL     1       1.420   2.473  -0.635  0.00  0.00    +0.030 C 
ATOM      9  C   UNL     1      -1.004   2.087  -1.266  0.00  0.00    +0.012 C 
ATOM     10  C   UNL     1      -1.502   2.690   0.061  0.00  0.00    +0.023 C 
ATOM     12  C   UNL     1      -0.431   3.517   0.742  0.00  0.00    -0.073 C 
ATOM     13  C   UNL     1       0.868   3.416   0.409  0.00  0.00    -0.023 C 
ATOM     18  C   UNL     1      -0.892   4.497   1.785  0.00  0.00    +0.039 C 
ENDROOT
BRANCH   7  11
ATOM     11  C   UNL     1       0.793   0.800  -2.455  0.00  0.00    -0.013 C 
ATOM     16  C   UNL     1      -0.196  -0.292  -2.854  0.00  0.00    +0.007 C 
ATOM     17  C   UNL     1       0.892   1.863  -3.544  0.00  0.00    +0.007 C 
ENDBRANCH   7  11
BRANCH   8  14
ATOM     14  C   UNL     1       2.675   1.784  -0.087  0.00  0.00    +0.113 C 
BRANCH  14   5
ATOM      5  N   UNL     1       2.319   1.029   1.124  0.00  0.00    -0.189 NA
ATOM     30  H   UNL     1       1.875   1.556   1.886  0.00  0.00    +0.148 HD
BRANCH   5   1
ATOM      1  S   UNL     1       3.176  -0.385   1.536  0.00  0.00    +0.058 S 
ATOM      3  O   UNL     1       3.060  -0.617   2.963  0.00  0.00    -0.153 OA
ATOM      4  O   UNL     1       4.482  -0.349   0.906  0.00  0.00    -0.153 OA
BRANCH   1  20
ATOM     20  C   UNL     1       2.236  -1.630   0.704  0.00  0.00    +0.105 A 
ATOM     22  C   UNL     1       2.558  -1.987  -0.606  0.00  0.00    +0.029 A 
ATOM     23  C   UNL     1       1.173  -2.255   1.356  0.00  0.00    +0.029 A 
ATOM     24  C   UNL     1       1.817  -2.969  -1.263  0.00  0.00    +0.005 A 
ATOM     25  C   UNL     1       0.432  -3.236   0.699  0.00  0.00    +0.005 A 
ATOM     26  C   UNL     1       0.753  -3.593  -0.611  0.00  0.00    -0.050 A 
ATOM     28  C   UNL     1      -0.039  -4.644  -1.314  0.00  0.00    +0.044 C 
ENDBRANCH   1  20
ENDBRANCH   5   1
ENDBRANCH  14   5
ENDBRANCH   8  14
BRANCH  10  15
ATOM     15  C   UNL     1      -2.032   1.599   0.999  0.00  0.00    +0.103 C 
BRANCH  15  19
ATOM      2  O   UNL     1      -4.154   1.187  -0.088  0.00  0.00    -0.276 OA
ATOM      6  N   UNL     1      -2.694  -0.583   0.282  0.00  0.00    -0.304 N 
ATOM     19  C   UNL     1      -3.090   0.745   0.337  0.00  0.00    +0.214 C 
ATOM     31  H   UNL     1      -1.796  -0.859   0.667  0.00  0.00    +0.150 HD
BRANCH   6  21
ATOM     21  C   UNL     1      -3.510  -1.626  -0.296  0.00  0.00    +0.193 C 
BRANCH  21  27
ATOM     27  C   UNL     1      -4.386  -2.229   0.708  0.00  0.00    -0.087 C 
ATOM     29  C   UNL     1      -5.106  -2.726   1.530  0.00  0.00    +0.005 C 
ENDBRANCH  21  27
ENDBRANCH   6  21
ENDBRANCH  15  19
ENDBRANCH  10  15
TORSDOF 9
