REMARK  Name = 11884381
REMARK  7 active torsions:
REMARK  status: ('A' for Active; 'I' for Inactive)
REMARK    1  A    between atoms: O_3  and  C_22
REMARK    2  A    between atoms: O_6  and  C_30
REMARK    3  A    between atoms: O_6  and  C_31
REMARK    4  A    between atoms: N_9  and  C_20
REMARK    5  A    between atoms: C_19  and  C_22
REMARK    6  A    between atoms: C_23  and  C_24
REMARK    7  A    between atoms: C_24  and  C_25
REMARK                            x       y       z     vdW  Elec       q    Type
REMARK                         _______ _______ _______ _____ _____    ______ ____
ROOT
ATOM      1  O   UNL     1       0.621   1.375  -2.246  0.00  0.00    -0.266 OA
ATOM      2  O   UNL     1       2.538  -2.376   1.427  0.00  0.00    -0.263 OA
ATOM      7  N   UNL     1       2.341   1.373  -0.665  0.00  0.00    -0.310 N 
ATOM      8  N   UNL     1       4.170  -1.051   0.406  0.00  0.00    -0.291 N 
ATOM     10  C   UNL     1       4.753   0.741  -1.243  0.00  0.00    +0.027 C 
ATOM     11  C   UNL     1       4.173   1.351   1.065  0.00  0.00    +0.054 C 
ATOM     12  C   UNL     1       5.127   1.657  -0.086  0.00  0.00    +0.018 C 
ATOM     13  C   UNL     1       3.333   1.086  -1.709  0.00  0.00    +0.130 C 
ATOM     14  C   UNL     1       4.881  -0.739  -0.836  0.00  0.00    +0.113 C 
ATOM     15  C   UNL     1       4.364  -0.109   1.511  0.00  0.00    +0.118 C 
ATOM     16  C   UNL     1       2.729   1.583   0.662  0.00  0.00    +0.027 A 
ATOM     17  C   UNL     1       1.822   1.961   1.579  0.00  0.00    +0.024 A 
ATOM     18  C   UNL     1       1.006   1.531  -1.086  0.00  0.00    +0.273 A 
ATOM     19  C   UNL     1       3.450  -2.220   0.623  0.00  0.00    +0.324 C 
ATOM     20  C   UNL     1       0.022   1.929  -0.030  0.00  0.00    +0.099 A 
ATOM     21  C   UNL     1       0.442   2.136   1.223  0.00  0.00    +0.030 A 
ENDROOT
BRANCH  20   9
ATOM      5  O   UNL     1      -2.265   1.512   1.640  0.00  0.00    -0.275 OA
ATOM      9  N   UNL     1      -1.284   2.079  -0.395  0.00  0.00    -0.281 N 
ATOM     23  C   UNL     1      -2.354   1.860   0.465  0.00  0.00    +0.222 C 
ATOM     32  H   UNL     1      -1.469   2.131  -1.393  0.00  0.00    +0.155 HD
BRANCH  23  24
ATOM     24  C   UNL     1      -3.679   2.108  -0.232  0.00  0.00    +0.131 C 
BRANCH  24  25
ATOM     25  C   UNL     1      -4.574   0.898  -0.261  0.00  0.00    -0.038 A 
ATOM     26  C   UNL     1      -4.492   0.013  -1.326  0.00  0.00    +0.007 A 
ATOM     27  C   UNL     1      -5.470   0.686   0.777  0.00  0.00    +0.007 A 
ATOM     28  C   UNL     1      -5.322  -1.108  -1.353  0.00  0.00    +0.046 A 
ATOM     29  C   UNL     1      -6.300  -0.434   0.750  0.00  0.00    +0.046 A 
ATOM     30  C   UNL     1      -6.226  -1.331  -0.315  0.00  0.00    +0.120 A 
BRANCH  30   6
ATOM      6  O   UNL     1      -7.035  -2.426  -0.342  0.00  0.00    -0.495 OA
ATOM     31  C   UNL     1      -7.936  -2.594   0.751  0.00  0.00    +0.277 C 
ENDBRANCH  30   6
ENDBRANCH  24  25
ENDBRANCH  23  24
ENDBRANCH  20   9
BRANCH  19  22
ATOM      4  O   UNL     1       4.579  -3.575  -0.961  0.00  0.00    -0.240 OA
ATOM     22  C   UNL     1       3.714  -3.484  -0.113  0.00  0.00    +0.392 C 
BRANCH  22   3
ATOM      3  O   UNL     1       2.872  -4.432   0.320  0.00  0.00    -0.474 OA
ATOM     33  H   UNL     1       3.010  -5.289  -0.137  0.00  0.00    +0.296 HD
ENDBRANCH  22   3
ENDBRANCH  19  22
TORSDOF 6
