MODEL 1
REMARK VINA RESULT:      -7.1      0.000      0.000
REMARK  Name = 45784205
REMARK  3 active torsions:
REMARK  status: ('A' for Active; 'I' for Inactive)
REMARK    1  A    between atoms: N_3  and  C_9
REMARK    2  A    between atoms: C_5  and  C_10
REMARK    3  A    between atoms: C_9  and  C_11
REMARK                            x       y       z     vdW  Elec       q    Type
REMARK                         _______ _______ _______ _____ _____    ______ ____
ROOT
ATOM      3  N   UNL     1      11.818   4.258   1.878  0.00  0.00    -0.297 NA
ATOM      5  C   UNL     1      10.334   5.356   3.324  0.00  0.00    +0.090 C 
ATOM      6  C   UNL     1      11.341   6.370   2.751  0.00  0.00    +0.029 C 
ATOM      7  C   UNL     1      10.955   3.985   3.029  0.00  0.00    +0.097 C 
ATOM      8  C   UNL     1      12.478   5.524   2.194  0.00  0.00    +0.085 C 
ENDROOT
BRANCH   5  10
ATOM      2  O   UNL     1      10.209   4.473   5.593  0.00  0.00    -0.439 OA
ATOM      4  N   UNL     1       9.534   6.626   5.380  0.00  0.00    -0.213 NA
ATOM     10  C   UNL     1      10.000   5.551   4.785  0.00  0.00    +0.201 A 
ATOM     12  C   UNL     1       9.833   4.920   6.827  0.00  0.00    +0.155 A 
ATOM     13  C   UNL     1       9.421   6.238   6.693  0.00  0.00    +0.110 A 
ATOM     16  C   UNL     1       9.847   4.213   8.023  0.00  0.00    +0.048 A 
ATOM     17  C   UNL     1       8.982   6.930   7.831  0.00  0.00    +0.031 A 
ATOM     20  C   UNL     1       9.406   4.918   9.148  0.00  0.00    +0.004 A 
ATOM     21  C   UNL     1       8.982   6.248   9.057  0.00  0.00    +0.002 A 
ENDBRANCH   5  10
BRANCH   3   9
ATOM      9  C   UNL     1      12.768   3.184   1.630  0.00  0.00    +0.122 C 
BRANCH   9  11
ATOM      1  F   UNL     1      15.534   3.393   2.207  0.00  0.00    -0.205 F 
ATOM     11  C   UNL     1      13.797   3.573   0.600  0.00  0.00    +0.002 A 
ATOM     14  C   UNL     1      15.143   3.657   0.953  0.00  0.00    +0.128 A 
ATOM     15  C   UNL     1      13.399   3.850  -0.708  0.00  0.00    +0.008 A 
ATOM     18  C   UNL     1      16.093   4.019  -0.002  0.00  0.00    +0.038 A 
ATOM     19  C   UNL     1      14.349   4.212  -1.663  0.00  0.00    +0.000 A 
ATOM     22  C   UNL     1      15.696   4.295  -1.311  0.00  0.00    +0.003 A 
ENDBRANCH   9  11
ENDBRANCH   3   9
TORSDOF 3
ENDMDL
MODEL 2
REMARK VINA RESULT:      -7.1     16.914     20.056
REMARK  Name = 45784205
REMARK  3 active torsions:
REMARK  status: ('A' for Active; 'I' for Inactive)
REMARK    1  A    between atoms: N_3  and  C_9
REMARK    2  A    between atoms: C_5  and  C_10
REMARK    3  A    between atoms: C_9  and  C_11
REMARK                            x       y       z     vdW  Elec       q    Type
REMARK                         _______ _______ _______ _____ _____    ______ ____
ROOT
ATOM      3  N   UNL     1      11.806   9.967  21.279  0.00  0.00    -0.297 NA
ATOM      5  C   UNL     1      13.619   9.357  19.923  0.00  0.00    +0.090 C 
ATOM      6  C   UNL     1      12.314   8.823  19.308  0.00  0.00    +0.029 C 
ATOM      7  C   UNL     1      13.247   9.724  21.366  0.00  0.00    +0.097 C 
ATOM      8  C   UNL     1      11.291   8.889  20.435  0.00  0.00    +0.085 C 
ENDROOT
BRANCH   5  10
ATOM      2  O   UNL     1      15.797   8.624  20.738  0.00  0.00    -0.439 OA
ATOM      4  N   UNL     1      14.975   7.405  19.013  0.00  0.00    -0.213 NA
ATOM     10  C   UNL     1      14.794   8.410  19.840  0.00  0.00    +0.201 A 
ATOM     12  C   UNL     1      16.705   7.648  20.442  0.00  0.00    +0.155 A 
ATOM     13  C   UNL     1      16.199   6.903  19.386  0.00  0.00    +0.110 A 
ATOM     16  C   UNL     1      17.925   7.412  21.064  0.00  0.00    +0.048 A 
ATOM     17  C   UNL     1      16.953   5.830  18.892  0.00  0.00    +0.031 A 
ATOM     20  C   UNL     1      18.664   6.337  20.558  0.00  0.00    +0.004 A 
ATOM     21  C   UNL     1      18.190   5.560  19.494  0.00  0.00    +0.002 A 
ENDBRANCH   5  10
BRANCH   3   9
ATOM      9  C   UNL     1      11.168  10.000  22.587  0.00  0.00    +0.122 C 
BRANCH   9  11
ATOM      1  F   UNL     1      10.997  10.668  25.334  0.00  0.00    -0.205 F 
ATOM     11  C   UNL     1      10.974  11.410  23.080  0.00  0.00    +0.002 A 
ATOM     14  C   UNL     1      10.898  11.668  24.448  0.00  0.00    +0.128 A 
ATOM     15  C   UNL     1      10.870  12.457  22.165  0.00  0.00    +0.008 A 
ATOM     18  C   UNL     1      10.717  12.975  24.903  0.00  0.00    +0.038 A 
ATOM     19  C   UNL     1      10.689  13.764  22.619  0.00  0.00    +0.000 A 
ATOM     22  C   UNL     1      10.614  14.023  23.987  0.00  0.00    +0.003 A 
ENDBRANCH   9  11
ENDBRANCH   3   9
TORSDOF 3
ENDMDL
MODEL 3
REMARK VINA RESULT:      -6.8     22.300     24.827
REMARK  Name = 45784205
REMARK  3 active torsions:
REMARK  status: ('A' for Active; 'I' for Inactive)
REMARK    1  A    between atoms: N_3  and  C_9
REMARK    2  A    between atoms: C_5  and  C_10
REMARK    3  A    between atoms: C_9  and  C_11
REMARK                            x       y       z     vdW  Elec       q    Type
REMARK                         _______ _______ _______ _____ _____    ______ ____
ROOT
ATOM      3  N   UNL     1      -2.433 -11.284  12.827  0.00  0.00    -0.297 NA
ATOM      5  C   UNL     1      -2.904 -10.468  14.975  0.00  0.00    +0.090 C 
ATOM      6  C   UNL     1      -1.745 -11.478  15.050  0.00  0.00    +0.029 C 
ATOM      7  C   UNL     1      -3.536 -10.704  13.598  0.00  0.00    +0.097 C 
ATOM      8  C   UNL     1      -1.804 -12.243  13.734  0.00  0.00    +0.085 C 
ENDROOT
BRANCH   5  10
ATOM      2  O   UNL     1      -3.501 -11.272  17.198  0.00  0.00    -0.439 OA
ATOM      4  N   UNL     1      -5.110 -10.047  16.175  0.00  0.00    -0.213 NA
ATOM     10  C   UNL     1      -3.902 -10.562  16.106  0.00  0.00    +0.201 A 
ATOM     12  C   UNL     1      -4.571 -11.194  18.042  0.00  0.00    +0.155 A 
ATOM     13  C   UNL     1      -5.554 -10.443  17.413  0.00  0.00    +0.110 A 
ATOM     16  C   UNL     1      -4.692 -11.752  19.309  0.00  0.00    +0.048 A 
ATOM     17  C   UNL     1      -6.765 -10.216  18.081  0.00  0.00    +0.031 A 
ATOM     20  C   UNL     1      -5.906 -11.515  19.962  0.00  0.00    +0.004 A 
ATOM     21  C   UNL     1      -6.924 -10.763  19.362  0.00  0.00    +0.002 A 
ENDBRANCH   5  10
BRANCH   3   9
ATOM      9  C   UNL     1      -2.886 -11.904  11.591  0.00  0.00    +0.122 C 
BRANCH   9  11
ATOM      1  F   UNL     1      -1.820  -9.425  10.726  0.00  0.00    -0.205 F 
ATOM     11  C   UNL     1      -3.651 -10.936  10.727  0.00  0.00    +0.002 A 
ATOM     14  C   UNL     1      -3.066  -9.732  10.337  0.00  0.00    +0.128 A 
ATOM     15  C   UNL     1      -4.948 -11.247  10.317  0.00  0.00    +0.008 A 
ATOM     18  C   UNL     1      -3.777  -8.837   9.537  0.00  0.00    +0.038 A 
ATOM     19  C   UNL     1      -5.659 -10.352   9.518  0.00  0.00    +0.000 A 
ATOM     22  C   UNL     1      -5.074  -9.148   9.127  0.00  0.00    +0.003 A 
ENDBRANCH   9  11
ENDBRANCH   3   9
TORSDOF 3
ENDMDL
MODEL 4
REMARK VINA RESULT:      -6.6     22.799     25.499
REMARK  Name = 45784205
REMARK  3 active torsions:
REMARK  status: ('A' for Active; 'I' for Inactive)
REMARK    1  A    between atoms: N_3  and  C_9
REMARK    2  A    between atoms: C_5  and  C_10
REMARK    3  A    between atoms: C_9  and  C_11
REMARK                            x       y       z     vdW  Elec       q    Type
REMARK                         _______ _______ _______ _____ _____    ______ ____
ROOT
ATOM      3  N   UNL     1      -2.156 -10.784  13.847  0.00  0.00    -0.297 NA
ATOM      5  C   UNL     1      -3.577 -10.406  15.674  0.00  0.00    +0.090 C 
ATOM      6  C   UNL     1      -2.144 -10.654  16.179  0.00  0.00    +0.029 C 
ATOM      7  C   UNL     1      -3.567 -10.898  14.221  0.00  0.00    +0.097 C 
ATOM      8  C   UNL     1      -1.418 -11.293  15.003  0.00  0.00    +0.085 C 
ENDROOT
BRANCH   5  10
ATOM      2  O   UNL     1      -4.673 -10.719  17.829  0.00  0.00    -0.439 OA
ATOM      4  N   UNL     1      -5.603 -11.881  16.120  0.00  0.00    -0.213 NA
ATOM     10  C   UNL     1      -4.663 -11.047  16.506  0.00  0.00    +0.201 A 
ATOM     12  C   UNL     1      -5.731 -11.423  18.326  0.00  0.00    +0.155 A 
ATOM     13  C   UNL     1      -6.299 -12.133  17.278  0.00  0.00    +0.110 A 
ATOM     16  C   UNL     1      -6.188 -11.449  19.638  0.00  0.00    +0.048 A 
ATOM     17  C   UNL     1      -7.414 -12.943  17.533  0.00  0.00    +0.031 A 
ATOM     20  C   UNL     1      -7.302 -12.262  19.875  0.00  0.00    +0.004 A 
ATOM     21  C   UNL     1      -7.904 -12.995  18.846  0.00  0.00    +0.002 A 
ENDBRANCH   5  10
BRANCH   3   9
ATOM      9  C   UNL     1      -1.845 -11.511  12.625  0.00  0.00    +0.122 C 
BRANCH   9  11
ATOM      1  F   UNL     1      -3.500 -13.176  11.040  0.00  0.00    -0.205 F 
ATOM     11  C   UNL     1      -2.641 -11.002  11.453  0.00  0.00    +0.002 A 
ATOM     14  C   UNL     1      -3.436 -11.877  10.714  0.00  0.00    +0.128 A 
ATOM     15  C   UNL     1      -2.580  -9.652  11.106  0.00  0.00    +0.008 A 
ATOM     18  C   UNL     1      -4.172 -11.404   9.628  0.00  0.00    +0.038 A 
ATOM     19  C   UNL     1      -3.316  -9.178  10.019  0.00  0.00    +0.000 A 
ATOM     22  C   UNL     1      -4.112 -10.053   9.281  0.00  0.00    +0.003 A 
ENDBRANCH   9  11
ENDBRANCH   3   9
TORSDOF 3
ENDMDL
MODEL 5
REMARK VINA RESULT:      -6.5     23.275     26.060
REMARK  Name = 45784205
REMARK  3 active torsions:
REMARK  status: ('A' for Active; 'I' for Inactive)
REMARK    1  A    between atoms: N_3  and  C_9
REMARK    2  A    between atoms: C_5  and  C_10
REMARK    3  A    between atoms: C_9  and  C_11
REMARK                            x       y       z     vdW  Elec       q    Type
REMARK                         _______ _______ _______ _____ _____    ______ ____
ROOT
ATOM      3  N   UNL     1      -4.133 -10.774  14.625  0.00  0.00    -0.297 NA
ATOM      5  C   UNL     1      -5.412  -9.764  16.311  0.00  0.00    +0.090 C 
ATOM      6  C   UNL     1      -4.316 -10.637  16.949  0.00  0.00    +0.029 C 
ATOM      7  C   UNL     1      -5.471 -10.222  14.849  0.00  0.00    +0.097 C 
ATOM      8  C   UNL     1      -3.840 -11.552  15.828  0.00  0.00    +0.085 C 
ENDROOT
BRANCH   5  10
ATOM      2  O   UNL     1      -6.848 -10.696  18.047  0.00  0.00    -0.439 OA
ATOM      4  N   UNL     1      -7.844  -9.142  16.731  0.00  0.00    -0.213 NA
ATOM     10  C   UNL     1      -6.754  -9.824  17.004  0.00  0.00    +0.201 A 
ATOM     12  C   UNL     1      -8.136 -10.547  18.474  0.00  0.00    +0.155 A 
ATOM     13  C   UNL     1      -8.743  -9.595  17.667  0.00  0.00    +0.110 A 
ATOM     16  C   UNL     1      -8.761 -11.209  19.523  0.00  0.00    +0.048 A 
ATOM     17  C   UNL     1     -10.083  -9.259  17.906  0.00  0.00    +0.031 A 
ATOM     20  C   UNL     1     -10.097 -10.862  19.748  0.00  0.00    +0.004 A 
ATOM     21  C   UNL     1     -10.747  -9.908  18.957  0.00  0.00    +0.002 A 
ENDBRANCH   5  10
BRANCH   3   9
ATOM      9  C   UNL     1      -4.060 -11.577  13.413  0.00  0.00    +0.122 C 
BRANCH   9  11
ATOM      1  F   UNL     1      -1.539 -10.520  12.670  0.00  0.00    -0.205 F 
ATOM     11  C   UNL     1      -3.854 -10.725  12.188  0.00  0.00    +0.002 A 
ATOM     14  C   UNL     1      -2.584 -10.237  11.882  0.00  0.00    +0.128 A 
ATOM     15  C   UNL     1      -4.936 -10.425  11.362  0.00  0.00    +0.008 A 
ATOM     18  C   UNL     1      -2.396  -9.446  10.747  0.00  0.00    +0.038 A 
ATOM     19  C   UNL     1      -4.748  -9.634  10.227  0.00  0.00    +0.000 A 
ATOM     22  C   UNL     1      -3.479  -9.147   9.919  0.00  0.00    +0.003 A 
ENDBRANCH   9  11
ENDBRANCH   3   9
TORSDOF 3
ENDMDL
MODEL 6
REMARK VINA RESULT:      -6.4      2.441      8.258
REMARK  Name = 45784205
REMARK  3 active torsions:
REMARK  status: ('A' for Active; 'I' for Inactive)
REMARK    1  A    between atoms: N_3  and  C_9
REMARK    2  A    between atoms: C_5  and  C_10
REMARK    3  A    between atoms: C_9  and  C_11
REMARK                            x       y       z     vdW  Elec       q    Type
REMARK                         _______ _______ _______ _____ _____    ______ ____
ROOT
ATOM      3  N   UNL     1      10.712   5.431   4.126  0.00  0.00    -0.297 NA
ATOM      5  C   UNL     1      11.995   4.622   2.336  0.00  0.00    +0.090 C 
ATOM      6  C   UNL     1      12.419   6.065   2.663  0.00  0.00    +0.029 C 
ATOM      7  C   UNL     1      10.646   4.443   3.046  0.00  0.00    +0.097 C 
ATOM      8  C   UNL     1      11.283   6.627   3.508  0.00  0.00    +0.085 C 
ENDROOT
BRANCH   5  10
ATOM      2  O   UNL     1      13.120   4.332   0.193  0.00  0.00    -0.439 OA
ATOM      4  N   UNL     1      10.882   3.983   0.138  0.00  0.00    -0.213 NA
ATOM     10  C   UNL     1      11.933   4.297   0.862  0.00  0.00    +0.201 A 
ATOM     12  C   UNL     1      12.777   4.006  -1.087  0.00  0.00    +0.155 A 
ATOM     13  C   UNL     1      11.406   3.793  -1.117  0.00  0.00    +0.110 A 
ATOM     16  C   UNL     1      13.619   3.897  -2.187  0.00  0.00    +0.048 A 
ATOM     17  C   UNL     1      10.802   3.441  -2.332  0.00  0.00    +0.031 A 
ATOM     20  C   UNL     1      13.000   3.545  -3.391  0.00  0.00    +0.004 A 
ATOM     21  C   UNL     1      11.620   3.321  -3.465  0.00  0.00    +0.002 A 
ENDBRANCH   5  10
BRANCH   3   9
ATOM      9  C   UNL     1       9.411   5.683   4.727  0.00  0.00    +0.122 C 
BRANCH   9  11
ATOM      1  F   UNL     1       9.954   3.245   6.062  0.00  0.00    -0.205 F 
ATOM     11  C   UNL     1       9.454   5.559   6.228  0.00  0.00    +0.002 A 
ATOM     14  C   UNL     1       9.728   4.327   6.819  0.00  0.00    +0.128 A 
ATOM     15  C   UNL     1       9.220   6.680   7.024  0.00  0.00    +0.008 A 
ATOM     18  C   UNL     1       9.766   4.214   8.210  0.00  0.00    +0.038 A 
ATOM     19  C   UNL     1       9.258   6.567   8.414  0.00  0.00    +0.000 A 
ATOM     22  C   UNL     1       9.532   5.335   9.007  0.00  0.00    +0.003 A 
ENDBRANCH   9  11
ENDBRANCH   3   9
TORSDOF 3
ENDMDL
MODEL 7
REMARK VINA RESULT:      -6.4     29.362     33.425
REMARK  Name = 45784205
REMARK  3 active torsions:
REMARK  status: ('A' for Active; 'I' for Inactive)
REMARK    1  A    between atoms: N_3  and  C_9
REMARK    2  A    between atoms: C_5  and  C_10
REMARK    3  A    between atoms: C_9  and  C_11
REMARK                            x       y       z     vdW  Elec       q    Type
REMARK                         _______ _______ _______ _____ _____    ______ ____
ROOT
ATOM      3  N   UNL     1     -15.037   5.861  21.982  0.00  0.00    -0.297 NA
ATOM      5  C   UNL     1     -15.883   3.918  22.986  0.00  0.00    +0.090 C 
ATOM      6  C   UNL     1     -17.049   4.789  22.485  0.00  0.00    +0.029 C 
ATOM      7  C   UNL     1     -14.669   4.855  22.980  0.00  0.00    +0.097 C 
ATOM      8  C   UNL     1     -16.441   6.166  22.254  0.00  0.00    +0.085 C 
ENDROOT
BRANCH   5  10
ATOM      2  O   UNL     1     -15.934   4.051  25.420  0.00  0.00    -0.439 OA
ATOM      4  N   UNL     1     -16.465   2.016  24.575  0.00  0.00    -0.213 NA
ATOM     10  C   UNL     1     -16.113   3.258  24.326  0.00  0.00    +0.201 A 
ATOM     12  C   UNL     1     -16.202   3.218  26.467  0.00  0.00    +0.155 A 
ATOM     13  C   UNL     1     -16.527   1.973  25.947  0.00  0.00    +0.110 A 
ATOM     16  C   UNL     1     -16.166   3.524  27.822  0.00  0.00    +0.048 A 
ATOM     17  C   UNL     1     -16.846   0.932  26.829  0.00  0.00    +0.031 A 
ATOM     20  C   UNL     1     -16.488   2.474  28.689  0.00  0.00    +0.004 A 
ATOM     21  C   UNL     1     -16.821   1.203  28.205  0.00  0.00    +0.002 A 
ENDBRANCH   5  10
BRANCH   3   9
ATOM      9  C   UNL     1     -14.190   7.043  22.045  0.00  0.00    +0.122 C 
BRANCH   9  11
ATOM      1  F   UNL     1     -11.517   6.264  21.525  0.00  0.00    -0.205 F 
ATOM     11  C   UNL     1     -13.497   7.306  20.734  0.00  0.00    +0.002 A 
ATOM     14  C   UNL     1     -12.178   6.896  20.546  0.00  0.00    +0.128 A 
ATOM     15  C   UNL     1     -14.178   7.963  19.709  0.00  0.00    +0.008 A 
ATOM     18  C   UNL     1     -11.538   7.142  19.331  0.00  0.00    +0.038 A 
ATOM     19  C   UNL     1     -13.537   8.210  18.494  0.00  0.00    +0.000 A 
ATOM     22  C   UNL     1     -12.219   7.798  18.305  0.00  0.00    +0.003 A 
ENDBRANCH   9  11
ENDBRANCH   3   9
TORSDOF 3
ENDMDL
MODEL 8
REMARK VINA RESULT:      -6.4     13.881     15.557
REMARK  Name = 45784205
REMARK  3 active torsions:
REMARK  status: ('A' for Active; 'I' for Inactive)
REMARK    1  A    between atoms: N_3  and  C_9
REMARK    2  A    between atoms: C_5  and  C_10
REMARK    3  A    between atoms: C_9  and  C_11
REMARK                            x       y       z     vdW  Elec       q    Type
REMARK                         _______ _______ _______ _____ _____    ______ ____
ROOT
ATOM      3  N   UNL     1       2.242   4.340  -5.281  0.00  0.00    -0.297 NA
ATOM      5  C   UNL     1       1.451   2.133  -5.291  0.00  0.00    +0.090 C 
ATOM      6  C   UNL     1       2.740   2.222  -6.128  0.00  0.00    +0.029 C 
ATOM      7  C   UNL     1       0.996   3.588  -5.124  0.00  0.00    +0.097 C 
ATOM      8  C   UNL     1       2.925   3.707  -6.409  0.00  0.00    +0.085 C 
ENDROOT
BRANCH   5  10
ATOM      2  O   UNL     1      -0.369   1.784  -6.875  0.00  0.00    -0.439 OA
ATOM      4  N   UNL     1       0.071   0.008  -5.537  0.00  0.00    -0.213 NA
ATOM     10  C   UNL     1       0.378   1.241  -5.872  0.00  0.00    +0.201 A 
ATOM     12  C   UNL     1      -1.239   0.784  -7.203  0.00  0.00    +0.155 A 
ATOM     13  C   UNL     1      -0.967  -0.302  -6.383  0.00  0.00    +0.110 A 
ATOM     16  C   UNL     1      -2.230   0.811  -8.177  0.00  0.00    +0.048 A 
ATOM     17  C   UNL     1      -1.732  -1.467  -6.526  0.00  0.00    +0.031 A 
ATOM     20  C   UNL     1      -2.984  -0.360  -8.306  0.00  0.00    +0.004 A 
ATOM     21  C   UNL     1      -2.742  -1.478  -7.498  0.00  0.00    +0.002 A 
ENDBRANCH   5  10
BRANCH   3   9
ATOM      9  C   UNL     1       2.010   5.760  -5.499  0.00  0.00    +0.122 C 
BRANCH   9  11
ATOM      1  F   UNL     1       2.073   8.587  -5.674  0.00  0.00    -0.205 F 
ATOM     11  C   UNL     1       2.962   6.613  -4.702  0.00  0.00    +0.002 A 
ATOM     14  C   UNL     1       2.939   8.000  -4.837  0.00  0.00    +0.128 A 
ATOM     15  C   UNL     1       3.868   6.010  -3.829  0.00  0.00    +0.008 A 
ATOM     18  C   UNL     1       3.823   8.787  -4.098  0.00  0.00    +0.038 A 
ATOM     19  C   UNL     1       4.752   6.798  -3.090  0.00  0.00    +0.000 A 
ATOM     22  C   UNL     1       4.728   8.185  -3.224  0.00  0.00    +0.003 A 
ENDBRANCH   9  11
ENDBRANCH   3   9
TORSDOF 3
ENDMDL
MODEL 9
REMARK VINA RESULT:      -6.3     17.118     18.491
REMARK  Name = 45784205
REMARK  3 active torsions:
REMARK  status: ('A' for Active; 'I' for Inactive)
REMARK    1  A    between atoms: N_3  and  C_9
REMARK    2  A    between atoms: C_5  and  C_10
REMARK    3  A    between atoms: C_9  and  C_11
REMARK                            x       y       z     vdW  Elec       q    Type
REMARK                         _______ _______ _______ _____ _____    ______ ____
ROOT
ATOM      3  N   UNL     1      18.771   6.482  20.342  0.00  0.00    -0.297 NA
ATOM      5  C   UNL     1      16.854   7.828  20.237  0.00  0.00    +0.090 C 
ATOM      6  C   UNL     1      17.644   8.156  21.517  0.00  0.00    +0.029 C 
ATOM      7  C   UNL     1      17.427   6.488  19.759  0.00  0.00    +0.097 C 
ATOM      8  C   UNL     1      18.593   6.979  21.706  0.00  0.00    +0.085 C 
ENDROOT
BRANCH   5  10
ATOM      2  O   UNL     1      14.642   8.611  19.574  0.00  0.00    -0.439 OA
ATOM      4  N   UNL     1      14.641   7.093  21.258  0.00  0.00    -0.213 NA
ATOM     10  C   UNL     1      15.353   7.800  20.408  0.00  0.00    +0.201 A 
ATOM     12  C   UNL     1      13.346   8.389  19.940  0.00  0.00    +0.155 A 
ATOM     13  C   UNL     1      13.348   7.460  20.971  0.00  0.00    +0.110 A 
ATOM     16  C   UNL     1      12.204   8.970  19.401  0.00  0.00    +0.048 A 
ATOM     17  C   UNL     1      12.125   7.061  21.526  0.00  0.00    +0.031 A 
ATOM     20  C   UNL     1      10.992   8.560  19.967  0.00  0.00    +0.004 A 
ATOM     21  C   UNL     1      10.950   7.626  21.008  0.00  0.00    +0.002 A 
ENDBRANCH   5  10
BRANCH   3   9
ATOM      9  C   UNL     1      19.384   5.162  20.308  0.00  0.00    +0.122 C 
BRANCH   9  11
ATOM      1  F   UNL     1      20.964   2.891  20.916  0.00  0.00    -0.205 F 
ATOM     11  C   UNL     1      20.873   5.231  20.529  0.00  0.00    +0.002 A 
ATOM     14  C   UNL     1      21.590   4.073  20.826  0.00  0.00    +0.128 A 
ATOM     15  C   UNL     1      21.532   6.457  20.438  0.00  0.00    +0.008 A 
ATOM     18  C   UNL     1      22.968   4.139  21.031  0.00  0.00    +0.038 A 
ATOM     19  C   UNL     1      22.911   6.523  20.643  0.00  0.00    +0.000 A 
ATOM     22  C   UNL     1      23.628   5.365  20.939  0.00  0.00    +0.003 A 
ENDBRANCH   9  11
ENDBRANCH   3   9
TORSDOF 3
ENDMDL
MODEL 10
REMARK VINA RESULT:      -6.3     27.445     31.435
REMARK  Name = 45784205
REMARK  3 active torsions:
REMARK  status: ('A' for Active; 'I' for Inactive)
REMARK    1  A    between atoms: N_3  and  C_9
REMARK    2  A    between atoms: C_5  and  C_10
REMARK    3  A    between atoms: C_9  and  C_11
REMARK                            x       y       z     vdW  Elec       q    Type
REMARK                         _______ _______ _______ _____ _____    ______ ____
ROOT
ATOM      3  N   UNL     1     -12.965   7.441  20.745  0.00  0.00    -0.297 NA
ATOM      5  C   UNL     1     -14.861   6.257  21.455  0.00  0.00    +0.090 C 
ATOM      6  C   UNL     1     -14.980   7.728  21.891  0.00  0.00    +0.029 C 
ATOM      7  C   UNL     1     -13.382   6.079  21.086  0.00  0.00    +0.097 C 
ATOM      8  C   UNL     1     -13.569   8.289  21.773  0.00  0.00    +0.085 C 
ENDROOT
BRANCH   5  10
ATOM      2  O   UNL     1     -16.249   4.338  22.034  0.00  0.00    -0.439 OA
ATOM      4  N   UNL     1     -14.990   5.142  23.739  0.00  0.00    -0.213 NA
ATOM     10  C   UNL     1     -15.339   5.251  22.477  0.00  0.00    +0.201 A 
ATOM     12  C   UNL     1     -16.498   3.574  23.137  0.00  0.00    +0.155 A 
ATOM     13  C   UNL     1     -15.726   4.068  24.180  0.00  0.00    +0.110 A 
ATOM     16  C   UNL     1     -17.361   2.489  23.238  0.00  0.00    +0.048 A 
ATOM     17  C   UNL     1     -15.804   3.448  25.434  0.00  0.00    +0.031 A 
ATOM     20  C   UNL     1     -17.426   1.882  24.497  0.00  0.00    +0.004 A 
ATOM     21  C   UNL     1     -16.665   2.349  25.574  0.00  0.00    +0.002 A 
ENDBRANCH   5  10
BRANCH   3   9
ATOM      9  C   UNL     1     -11.518   7.581  20.690  0.00  0.00    +0.122 C 
BRANCH   9  11
ATOM      1  F   UNL     1     -10.809  10.320  20.546  0.00  0.00    -0.205 F 
ATOM     11  C   UNL     1     -11.068   8.249  19.417  0.00  0.00    +0.002 A 
ATOM     14  C   UNL     1     -10.734   9.603  19.417  0.00  0.00    +0.128 A 
ATOM     15  C   UNL     1     -10.987   7.510  18.237  0.00  0.00    +0.008 A 
ATOM     18  C   UNL     1     -10.319  10.219  18.236  0.00  0.00    +0.038 A 
ATOM     19  C   UNL     1     -10.572   8.126  17.056  0.00  0.00    +0.000 A 
ATOM     22  C   UNL     1     -10.237   9.480  17.056  0.00  0.00    +0.003 A 
ENDBRANCH   9  11
ENDBRANCH   3   9
TORSDOF 3
ENDMDL
