MODEL 1
REMARK VINA RESULT:      -8.3      0.000      0.000
REMARK  Name = 7674790
REMARK  4 active torsions:
REMARK  status: ('A' for Active; 'I' for Inactive)
REMARK    1  A    between atoms: N_5  and  C_19
REMARK    2  A    between atoms: C_13  and  C_18
REMARK    3  A    between atoms: C_19  and  C_25
REMARK    4  A    between atoms: C_19  and  C_26
REMARK                            x       y       z     vdW  Elec       q    Type
REMARK                         _______ _______ _______ _____ _____    ______ ____
ROOT
ATOM      1  O   UNL     1      11.696   7.529  18.406  0.00  0.00    -0.268 OA
ATOM      2  O   UNL     1      15.795   9.310  22.278  0.00  0.00    -0.253 OA
ATOM      3  N   UNL     1      15.273  10.467  20.334  0.00  0.00    -0.285 N 
ATOM      4  N   UNL     1      12.359   9.562  19.359  0.00  0.00    -0.311 N 
ATOM      5  N   UNL     1      16.634   8.535  20.289  0.00  0.00    -0.297 N 
ATOM      6  C   UNL     1      14.080  11.079  18.219  0.00  0.00    +0.027 C 
ATOM      7  C   UNL     1      13.120  11.729  20.382  0.00  0.00    +0.054 C 
ATOM      8  C   UNL     1      13.370  12.203  18.952  0.00  0.00    +0.018 C 
ATOM      9  C   UNL     1      15.419  10.724  18.895  0.00  0.00    +0.114 C 
ATOM     10  C   UNL     1      13.140   9.875  18.155  0.00  0.00    +0.130 C 
ATOM     11  C   UNL     1      14.474  11.457  21.064  0.00  0.00    +0.119 C 
ATOM     12  C   UNL     1      12.242  10.476  20.424  0.00  0.00    +0.034 A 
ATOM     13  C   UNL     1      11.392  10.211  21.451  0.00  0.00    +0.002 A 
ATOM     14  C   UNL     1      11.644   8.352  19.319  0.00  0.00    +0.252 A 
ATOM     15  C   UNL     1      15.892   9.429  21.052  0.00  0.00    +0.302 C 
ATOM     16  C   UNL     1      10.643   8.969  21.449  0.00  0.00    +0.015 A 
ATOM     17  C   UNL     1      10.753   8.073  20.468  0.00  0.00    +0.071 A 
ATOM     31  H   UNL     1      16.836   8.718  19.317  0.00  0.00    +0.150 HD
ENDROOT
BRANCH  13  18
ATOM     18  C   UNL     1      11.223  11.147  22.585  0.00  0.00    -0.016 A 
ATOM     20  C   UNL     1      10.844  12.464  22.344  0.00  0.00    +0.017 A 
ATOM     21  C   UNL     1      11.442  10.703  23.882  0.00  0.00    +0.009 A 
ATOM     22  C   UNL     1      10.679  13.364  23.408  0.00  0.00    -0.017 A 
ATOM     23  C   UNL     1      11.283  11.583  24.952  0.00  0.00    +0.009 A 
ATOM     24  C   UNL     1      10.902  12.917  24.733  0.00  0.00    -0.018 A 
ATOM     27  C   UNL     1      10.297  14.697  23.189  0.00  0.00    +0.008 A 
ATOM     28  C   UNL     1      10.737  13.817  25.798  0.00  0.00    +0.008 A 
ATOM     29  C   UNL     1      10.138  15.578  24.260  0.00  0.00    +0.001 A 
ATOM     30  C   UNL     1      10.358  15.138  25.562  0.00  0.00    +0.001 A 
ENDBRANCH  13  18
BRANCH   5  19
ATOM     19  C   UNL     1      17.335   7.416  20.880  0.00  0.00    +0.068 C 
ATOM     25  C   UNL     1      18.684   7.864  21.426  0.00  0.00    +0.027 C 
ATOM     26  C   UNL     1      17.497   6.291  19.866  0.00  0.00    +0.027 C 
ENDBRANCH   5  19
TORSDOF 2
ENDMDL
MODEL 2
REMARK VINA RESULT:      -7.8     28.087     30.304
REMARK  Name = 7674790
REMARK  4 active torsions:
REMARK  status: ('A' for Active; 'I' for Inactive)
REMARK    1  A    between atoms: N_5  and  C_19
REMARK    2  A    between atoms: C_13  and  C_18
REMARK    3  A    between atoms: C_19  and  C_25
REMARK    4  A    between atoms: C_19  and  C_26
REMARK                            x       y       z     vdW  Elec       q    Type
REMARK                         _______ _______ _______ _____ _____    ______ ____
ROOT
ATOM      1  O   UNL     1      -7.833 -14.805  17.504  0.00  0.00    -0.268 OA
ATOM      2  O   UNL     1      -8.099  -9.126  15.876  0.00  0.00    -0.253 OA
ATOM      3  N   UNL     1      -6.736  -9.912  17.584  0.00  0.00    -0.285 N 
ATOM      4  N   UNL     1      -6.305 -13.061  17.178  0.00  0.00    -0.311 N 
ATOM      5  N   UNL     1      -9.054  -9.581  17.912  0.00  0.00    -0.297 N 
ATOM      6  C   UNL     1      -5.583 -11.533  19.104  0.00  0.00    +0.027 C 
ATOM      7  C   UNL     1      -4.700 -11.154  16.846  0.00  0.00    +0.054 C 
ATOM      8  C   UNL     1      -4.303 -11.362  18.305  0.00  0.00    +0.018 C 
ATOM      9  C   UNL     1      -6.492 -10.296  18.981  0.00  0.00    +0.114 C 
ATOM     10  C   UNL     1      -6.285 -12.804  18.625  0.00  0.00    +0.130 C 
ATOM     11  C   UNL     1      -5.542  -9.868  16.735  0.00  0.00    +0.119 C 
ATOM     12  C   UNL     1      -5.478 -12.348  16.288  0.00  0.00    +0.034 A 
ATOM     13  C   UNL     1      -5.418 -12.716  14.981  0.00  0.00    +0.002 A 
ATOM     14  C   UNL     1      -7.107 -14.139  16.766  0.00  0.00    +0.252 A 
ATOM     15  C   UNL     1      -7.971  -9.514  17.042  0.00  0.00    +0.302 C 
ATOM     16  C   UNL     1      -6.236 -13.819  14.517  0.00  0.00    +0.015 A 
ATOM     17  C   UNL     1      -7.048 -14.495  15.330  0.00  0.00    +0.071 A 
ATOM     31  H   UNL     1      -8.923  -9.752  18.899  0.00  0.00    +0.150 HD
ENDROOT
BRANCH  13  18
ATOM     18  C   UNL     1      -4.553 -12.009  14.011  0.00  0.00    -0.016 A 
ATOM     20  C   UNL     1      -5.119 -11.129  13.094  0.00  0.00    +0.017 A 
ATOM     21  C   UNL     1      -3.181 -12.229  14.023  0.00  0.00    +0.009 A 
ATOM     22  C   UNL     1      -4.312 -10.450  12.167  0.00  0.00    -0.017 A 
ATOM     23  C   UNL     1      -2.364 -11.562  13.110  0.00  0.00    +0.009 A 
ATOM     24  C   UNL     1      -2.914 -10.670  12.175  0.00  0.00    -0.018 A 
ATOM     27  C   UNL     1      -4.860  -9.557  11.233  0.00  0.00    +0.008 A 
ATOM     28  C   UNL     1      -2.106  -9.991  11.248  0.00  0.00    +0.008 A 
ATOM     29  C   UNL     1      -4.043  -8.891  10.318  0.00  0.00    +0.001 A 
ATOM     30  C   UNL     1      -2.668  -9.108  10.326  0.00  0.00    +0.001 A 
ENDBRANCH  13  18
BRANCH   5  19
ATOM     19  C   UNL     1     -10.389  -9.202  17.508  0.00  0.00    +0.068 C 
ATOM     25  C   UNL     1     -10.496  -7.688  17.386  0.00  0.00    +0.027 C 
ATOM     26  C   UNL     1     -11.420  -9.750  18.487  0.00  0.00    +0.027 C 
ENDBRANCH   5  19
TORSDOF 2
ENDMDL
MODEL 3
REMARK VINA RESULT:      -7.7     14.648     18.731
REMARK  Name = 7674790
REMARK  4 active torsions:
REMARK  status: ('A' for Active; 'I' for Inactive)
REMARK    1  A    between atoms: N_5  and  C_19
REMARK    2  A    between atoms: C_13  and  C_18
REMARK    3  A    between atoms: C_19  and  C_25
REMARK    4  A    between atoms: C_19  and  C_26
REMARK                            x       y       z     vdW  Elec       q    Type
REMARK                         _______ _______ _______ _____ _____    ______ ____
ROOT
ATOM      1  O   UNL     1       7.067   9.330   4.749  0.00  0.00    -0.268 OA
ATOM      2  O   UNL     1      12.844   9.047   5.977  0.00  0.00    -0.253 OA
ATOM      3  N   UNL     1      11.237   7.755   7.045  0.00  0.00    -0.285 N 
ATOM      4  N   UNL     1       8.624   7.640   5.195  0.00  0.00    -0.311 N 
ATOM      5  N   UNL     1      11.568  10.027   7.613  0.00  0.00    -0.297 N 
ATOM      6  C   UNL     1       9.002   6.757   7.569  0.00  0.00    +0.027 C 
ATOM      7  C   UNL     1      10.322   5.857   5.707  0.00  0.00    +0.054 C 
ATOM      8  C   UNL     1       9.420   5.472   6.876  0.00  0.00    +0.018 C 
ATOM      9  C   UNL     1      10.223   7.540   8.087  0.00  0.00    +0.114 C 
ATOM     10  C   UNL     1       8.169   7.585   6.590  0.00  0.00    +0.130 C 
ATOM     11  C   UNL     1      11.575   6.569   6.253  0.00  0.00    +0.119 C 
ATOM     12  C   UNL     1       9.600   6.754   4.697  0.00  0.00    +0.034 A 
ATOM     13  C   UNL     1       9.885   6.740   3.369  0.00  0.00    +0.002 A 
ATOM     14  C   UNL     1       7.938   8.548   4.369  0.00  0.00    +0.252 A 
ATOM     15  C   UNL     1      11.944   8.949   6.818  0.00  0.00    +0.302 C 
ATOM     16  C   UNL     1       9.202   7.667   2.488  0.00  0.00    +0.015 A 
ATOM     17  C   UNL     1       8.294   8.536   2.933  0.00  0.00    +0.071 A 
ATOM     31  H   UNL     1      10.943   9.906   8.397  0.00  0.00    +0.150 HD
ENDROOT
BRANCH  13  18
ATOM     18  C   UNL     1      10.890   5.817   2.797  0.00  0.00    -0.016 A 
ATOM     20  C   UNL     1      12.143   6.299   2.430  0.00  0.00    +0.017 A 
ATOM     21  C   UNL     1      10.576   4.474   2.631  0.00  0.00    +0.009 A 
ATOM     22  C   UNL     1      13.107   5.436   1.886  0.00  0.00    -0.017 A 
ATOM     23  C   UNL     1      11.522   3.602   2.092  0.00  0.00    +0.009 A 
ATOM     24  C   UNL     1      12.792   4.067   1.714  0.00  0.00    -0.018 A 
ATOM     27  C   UNL     1      14.377   5.901   1.509  0.00  0.00    +0.008 A 
ATOM     28  C   UNL     1      13.757   3.203   1.170  0.00  0.00    +0.008 A 
ATOM     29  C   UNL     1      15.324   5.029   0.969  0.00  0.00    +0.001 A 
ATOM     30  C   UNL     1      15.014   3.682   0.801  0.00  0.00    +0.001 A 
ENDBRANCH  13  18
BRANCH   5  19
ATOM     19  C   UNL     1      12.202  11.321   7.504  0.00  0.00    +0.068 C 
ATOM     25  C   UNL     1      12.407  11.929   8.885  0.00  0.00    +0.027 C 
ATOM     26  C   UNL     1      11.383  12.245   6.611  0.00  0.00    +0.027 C 
ENDBRANCH   5  19
TORSDOF 2
ENDMDL
MODEL 4
REMARK VINA RESULT:      -7.2     15.331     18.653
REMARK  Name = 7674790
REMARK  4 active torsions:
REMARK  status: ('A' for Active; 'I' for Inactive)
REMARK    1  A    between atoms: N_5  and  C_19
REMARK    2  A    between atoms: C_13  and  C_18
REMARK    3  A    between atoms: C_19  and  C_25
REMARK    4  A    between atoms: C_19  and  C_26
REMARK                            x       y       z     vdW  Elec       q    Type
REMARK                         _______ _______ _______ _____ _____    ______ ____
ROOT
ATOM      1  O   UNL     1       9.913   9.984   8.341  0.00  0.00    -0.268 OA
ATOM      2  O   UNL     1      12.209   8.003   3.265  0.00  0.00    -0.253 OA
ATOM      3  N   UNL     1      10.884   6.712   4.668  0.00  0.00    -0.285 N 
ATOM      4  N   UNL     1       9.181   8.668   6.549  0.00  0.00    -0.311 N 
ATOM      5  N   UNL     1      13.162   7.116   5.154  0.00  0.00    -0.297 N 
ATOM      6  C   UNL     1       9.391   6.115   6.587  0.00  0.00    +0.027 C 
ATOM      7  C   UNL     1       8.443   7.234   4.620  0.00  0.00    +0.054 C 
ATOM      8  C   UNL     1       8.192   6.141   5.655  0.00  0.00    +0.018 C 
ATOM      9  C   UNL     1      10.694   5.820   5.820  0.00  0.00    +0.114 C 
ATOM     10  C   UNL     1       9.457   7.452   7.326  0.00  0.00    +0.130 C 
ATOM     11  C   UNL     1       9.705   6.878   3.811  0.00  0.00    +0.119 C 
ATOM     12  C   UNL     1       8.598   8.613   5.268  0.00  0.00    +0.034 A 
ATOM     13  C   UNL     1       8.223   9.761   4.646  0.00  0.00    +0.002 A 
ATOM     14  C   UNL     1       9.423   9.881   7.217  0.00  0.00    +0.252 A 
ATOM     15  C   UNL     1      12.092   7.325   4.291  0.00  0.00    +0.302 C 
ATOM     16  C   UNL     1       8.464  11.032   5.301  0.00  0.00    +0.015 A 
ATOM     17  C   UNL     1       9.038  11.118   6.501  0.00  0.00    +0.071 A 
ATOM     31  H   UNL     1      13.105   6.443   5.905  0.00  0.00    +0.150 HD
ENDROOT
BRANCH  13  18
ATOM     18  C   UNL     1       7.593   9.753   3.307  0.00  0.00    -0.016 A 
ATOM     20  C   UNL     1       6.207   9.809   3.196  0.00  0.00    +0.017 A 
ATOM     21  C   UNL     1       8.390   9.692   2.172  0.00  0.00    +0.009 A 
ATOM     22  C   UNL     1       5.594   9.803   1.933  0.00  0.00    -0.017 A 
ATOM     23  C   UNL     1       7.797   9.686   0.909  0.00  0.00    +0.009 A 
ATOM     24  C   UNL     1       6.401   9.740   0.772  0.00  0.00    -0.018 A 
ATOM     27  C   UNL     1       4.198   9.858   1.796  0.00  0.00    +0.008 A 
ATOM     28  C   UNL     1       5.788   9.735  -0.492  0.00  0.00    +0.008 A 
ATOM     29  C   UNL     1       3.605   9.851   0.532  0.00  0.00    +0.001 A 
ATOM     30  C   UNL     1       4.399   9.789  -0.610  0.00  0.00    +0.001 A 
ENDBRANCH  13  18
BRANCH   5  19
ATOM     19  C   UNL     1      14.471   7.675   4.904  0.00  0.00    +0.068 C 
ATOM     25  C   UNL     1      15.241   6.805   3.919  0.00  0.00    +0.027 C 
ATOM     26  C   UNL     1      15.240   7.842   6.209  0.00  0.00    +0.027 C 
ENDBRANCH   5  19
TORSDOF 2
ENDMDL
MODEL 5
REMARK VINA RESULT:      -7.2     17.643     20.979
REMARK  Name = 7674790
REMARK  4 active torsions:
REMARK  status: ('A' for Active; 'I' for Inactive)
REMARK    1  A    between atoms: N_5  and  C_19
REMARK    2  A    between atoms: C_13  and  C_18
REMARK    3  A    between atoms: C_19  and  C_25
REMARK    4  A    between atoms: C_19  and  C_26
REMARK                            x       y       z     vdW  Elec       q    Type
REMARK                         _______ _______ _______ _____ _____    ______ ____
ROOT
ATOM      1  O   UNL     1      14.780   7.627  -0.785  0.00  0.00    -0.268 OA
ATOM      2  O   UNL     1       9.445   5.078  -0.789  0.00  0.00    -0.253 OA
ATOM      3  N   UNL     1      11.407   3.953  -0.262  0.00  0.00    -0.285 N 
ATOM      4  N   UNL     1      13.626   6.109   0.573  0.00  0.00    -0.311 N 
ATOM      5  N   UNL     1      10.819   4.419  -2.504  0.00  0.00    -0.297 N 
ATOM      6  C   UNL     1      13.833   3.578   0.231  0.00  0.00    +0.027 C 
ATOM      7  C   UNL     1      12.363   4.458   1.988  0.00  0.00    +0.054 C 
ATOM      8  C   UNL     1      13.512   3.492   1.713  0.00  0.00    +0.018 C 
ATOM      9  C   UNL     1      12.614   3.201  -0.632  0.00  0.00    +0.114 C 
ATOM     10  C   UNL     1      14.329   4.993  -0.073  0.00  0.00    +0.130 C 
ATOM     11  C   UNL     1      11.131   4.015   1.176  0.00  0.00    +0.119 C 
ATOM     12  C   UNL     1      12.734   5.903   1.644  0.00  0.00    +0.034 A 
ATOM     13  C   UNL     1      12.220   6.970   2.309  0.00  0.00    +0.002 A 
ATOM     14  C   UNL     1      13.994   7.392   0.133  0.00  0.00    +0.252 A 
ATOM     15  C   UNL     1      10.486   4.523  -1.158  0.00  0.00    +0.302 C 
ATOM     16  C   UNL     1      12.572   8.310   1.879  0.00  0.00    +0.015 A 
ATOM     17  C   UNL     1      13.391   8.536   0.853  0.00  0.00    +0.071 A 
ATOM     31  H   UNL     1      11.586   3.838  -2.811  0.00  0.00    +0.150 HD
ENDROOT
BRANCH  13  18
ATOM     18  C   UNL     1      11.293   6.805   3.450  0.00  0.00    -0.016 A 
ATOM     20  C   UNL     1      11.800   6.585   4.727  0.00  0.00    +0.017 A 
ATOM     21  C   UNL     1       9.922   6.872   3.239  0.00  0.00    +0.009 A 
ATOM     22  C   UNL     1      10.934   6.427   5.821  0.00  0.00    -0.017 A 
ATOM     23  C   UNL     1       9.046   6.718   4.314  0.00  0.00    +0.009 A 
ATOM     24  C   UNL     1       9.536   6.494   5.611  0.00  0.00    -0.018 A 
ATOM     27  C   UNL     1      11.423   6.203   7.117  0.00  0.00    +0.008 A 
ATOM     28  C   UNL     1       8.668   6.335   6.704  0.00  0.00    +0.008 A 
ATOM     29  C   UNL     1      10.547   6.048   8.193  0.00  0.00    +0.001 A 
ATOM     30  C   UNL     1       9.172   6.114   7.986  0.00  0.00    +0.001 A 
ENDBRANCH  13  18
BRANCH   5  19
ATOM     19  C   UNL     1       9.972   4.950  -3.549  0.00  0.00    +0.068 C 
ATOM     25  C   UNL     1       9.055   3.863  -4.092  0.00  0.00    +0.027 C 
ATOM     26  C   UNL     1      10.815   5.565  -4.659  0.00  0.00    +0.027 C 
ENDBRANCH   5  19
TORSDOF 2
ENDMDL
MODEL 6
REMARK VINA RESULT:      -7.2     18.579     22.205
REMARK  Name = 7674790
REMARK  4 active torsions:
REMARK  status: ('A' for Active; 'I' for Inactive)
REMARK    1  A    between atoms: N_5  and  C_19
REMARK    2  A    between atoms: C_13  and  C_18
REMARK    3  A    between atoms: C_19  and  C_25
REMARK    4  A    between atoms: C_19  and  C_26
REMARK                            x       y       z     vdW  Elec       q    Type
REMARK                         _______ _______ _______ _____ _____    ______ ____
ROOT
ATOM      1  O   UNL     1      -5.314  12.837  35.513  0.00  0.00    -0.268 OA
ATOM      2  O   UNL     1       0.402  11.586  34.665  0.00  0.00    -0.253 OA
ATOM      3  N   UNL     1      -0.390  12.825  36.463  0.00  0.00    -0.285 N 
ATOM      4  N   UNL     1      -3.506  12.184  36.849  0.00  0.00    -0.311 N 
ATOM      5  N   UNL     1      -0.156  13.783  34.314  0.00  0.00    -0.297 N 
ATOM      6  C   UNL     1      -2.019  13.905  38.028  0.00  0.00    +0.027 C 
ATOM      7  C   UNL     1      -1.531  11.511  38.252  0.00  0.00    +0.054 C 
ATOM      8  C   UNL     1      -1.774  12.797  39.037  0.00  0.00    +0.018 C 
ATOM      9  C   UNL     1      -0.812  14.086  37.087  0.00  0.00    +0.114 C 
ATOM     10  C   UNL     1      -3.298  13.580  37.255  0.00  0.00    +0.130 C 
ATOM     11  C   UNL     1      -0.274  11.686  37.379  0.00  0.00    +0.119 C 
ATOM     12  C   UNL     1      -2.734  11.134  37.383  0.00  0.00    +0.034 A 
ATOM     13  C   UNL     1      -3.055   9.845  37.095  0.00  0.00    +0.002 A 
ATOM     14  C   UNL     1      -4.598  11.959  35.993  0.00  0.00    +0.252 A 
ATOM     15  C   UNL     1      -0.020  12.656  35.116  0.00  0.00    +0.302 C 
ATOM     16  C   UNL     1      -4.171   9.574  36.209  0.00  0.00    +0.015 A 
ATOM     17  C   UNL     1      -4.903  10.547  35.667  0.00  0.00    +0.071 A 
ATOM     31  H   UNL     1      -0.355  14.690  34.713  0.00  0.00    +0.150 HD
ENDROOT
BRANCH  13  18
ATOM     18  C   UNL     1      -2.284   8.708  37.644  0.00  0.00    -0.016 A 
ATOM     20  C   UNL     1      -2.789   7.986  38.721  0.00  0.00    +0.017 A 
ATOM     21  C   UNL     1      -1.062   8.368  37.079  0.00  0.00    +0.009 A 
ATOM     22  C   UNL     1      -2.070   6.904  39.253  0.00  0.00    -0.017 A 
ATOM     23  C   UNL     1      -0.334   7.295  37.595  0.00  0.00    +0.009 A 
ATOM     24  C   UNL     1      -0.824   6.554  38.682  0.00  0.00    -0.018 A 
ATOM     27  C   UNL     1      -2.560   6.162  40.340  0.00  0.00    +0.008 A 
ATOM     28  C   UNL     1      -0.104   5.471  39.214  0.00  0.00    +0.008 A 
ATOM     29  C   UNL     1      -1.832   5.089  40.857  0.00  0.00    +0.001 A 
ATOM     30  C   UNL     1      -0.606   4.745  40.294  0.00  0.00    +0.001 A 
ENDBRANCH  13  18
BRANCH   5  19
ATOM     19  C   UNL     1       0.187  13.773  32.910  0.00  0.00    +0.068 C 
ATOM     25  C   UNL     1       1.542  14.432  32.690  0.00  0.00    +0.027 C 
ATOM     26  C   UNL     1      -0.898  14.458  32.089  0.00  0.00    +0.027 C 
ENDBRANCH   5  19
TORSDOF 2
ENDMDL
MODEL 7
REMARK VINA RESULT:      -7.2     14.055     16.874
REMARK  Name = 7674790
REMARK  4 active torsions:
REMARK  status: ('A' for Active; 'I' for Inactive)
REMARK    1  A    between atoms: N_5  and  C_19
REMARK    2  A    between atoms: C_13  and  C_18
REMARK    3  A    between atoms: C_19  and  C_25
REMARK    4  A    between atoms: C_19  and  C_26
REMARK                            x       y       z     vdW  Elec       q    Type
REMARK                         _______ _______ _______ _____ _____    ______ ____
ROOT
ATOM      1  O   UNL     1      20.529  -5.410  22.406  0.00  0.00    -0.268 OA
ATOM      2  O   UNL     1      19.513  -1.841  27.010  0.00  0.00    -0.253 OA
ATOM      3  N   UNL     1      18.250  -1.818  25.061  0.00  0.00    -0.285 N 
ATOM      4  N   UNL     1      18.649  -4.617  23.554  0.00  0.00    -0.311 N 
ATOM      5  N   UNL     1      20.378  -0.792  25.162  0.00  0.00    -0.297 N 
ATOM      6  C   UNL     1      17.414  -2.502  22.802  0.00  0.00    +0.027 C 
ATOM      7  C   UNL     1      16.654  -3.718  24.793  0.00  0.00    +0.054 C 
ATOM      8  C   UNL     1      16.202  -3.145  23.453  0.00  0.00    +0.018 C 
ATOM      9  C   UNL     1      17.995  -1.379  23.682  0.00  0.00    +0.114 C 
ATOM     10  C   UNL     1      18.447  -3.593  22.519  0.00  0.00    +0.130 C 
ATOM     11  C   UNL     1      17.157  -2.568  25.686  0.00  0.00    +0.119 C 
ATOM     12  C   UNL     1      17.748  -4.777  24.624  0.00  0.00    +0.034 A 
ATOM     13  C   UNL     1      17.889  -5.827  25.474  0.00  0.00    +0.002 A 
ATOM     14  C   UNL     1      19.725  -5.495  23.334  0.00  0.00    +0.252 A 
ATOM     15  C   UNL     1      19.389  -1.509  25.826  0.00  0.00    +0.302 C 
ATOM     16  C   UNL     1      18.991  -6.750  25.284  0.00  0.00    +0.015 A 
ATOM     17  C   UNL     1      19.875  -6.609  24.297  0.00  0.00    +0.071 A 
ATOM     31  H   UNL     1      20.213  -0.393  24.249  0.00  0.00    +0.150 HD
ENDROOT
BRANCH  13  18
ATOM     18  C   UNL     1      16.959  -6.046  26.604  0.00  0.00    -0.016 A 
ATOM     20  C   UNL     1      17.206  -5.437  27.831  0.00  0.00    +0.017 A 
ATOM     21  C   UNL     1      15.845  -6.858  26.432  0.00  0.00    +0.009 A 
ATOM     22  C   UNL     1      16.332  -5.635  28.913  0.00  0.00    -0.017 A 
ATOM     23  C   UNL     1      14.967  -7.065  27.496  0.00  0.00    +0.009 A 
ATOM     24  C   UNL     1      15.196  -6.461  28.742  0.00  0.00    -0.018 A 
ATOM     27  C   UNL     1      16.561  -5.031  30.159  0.00  0.00    +0.008 A 
ATOM     28  C   UNL     1      14.322  -6.659  29.824  0.00  0.00    +0.008 A 
ATOM     29  C   UNL     1      15.683  -5.239  31.224  0.00  0.00    +0.001 A 
ATOM     30  C   UNL     1      14.565  -6.052  31.056  0.00  0.00    +0.001 A 
ENDBRANCH  13  18
BRANCH   5  19
ATOM     19  C   UNL     1      21.607  -0.394  25.813  0.00  0.00    +0.068 C 
ATOM     25  C   UNL     1      22.130   0.903  25.209  0.00  0.00    +0.027 C 
ATOM     26  C   UNL     1      22.646  -1.504  25.719  0.00  0.00    +0.027 C 
ENDBRANCH   5  19
TORSDOF 2
ENDMDL
MODEL 8
REMARK VINA RESULT:      -7.1     15.993     18.923
REMARK  Name = 7674790
REMARK  4 active torsions:
REMARK  status: ('A' for Active; 'I' for Inactive)
REMARK    1  A    between atoms: N_5  and  C_19
REMARK    2  A    between atoms: C_13  and  C_18
REMARK    3  A    between atoms: C_19  and  C_25
REMARK    4  A    between atoms: C_19  and  C_26
REMARK                            x       y       z     vdW  Elec       q    Type
REMARK                         _______ _______ _______ _____ _____    ______ ____
ROOT
ATOM      1  O   UNL     1      12.938   9.206   6.059  0.00  0.00    -0.268 OA
ATOM      2  O   UNL     1      10.200   6.063   1.865  0.00  0.00    -0.253 OA
ATOM      3  N   UNL     1       9.933   5.680   4.139  0.00  0.00    -0.285 N 
ATOM      4  N   UNL     1      10.793   8.326   5.728  0.00  0.00    -0.311 N 
ATOM      5  N   UNL     1      11.853   4.930   2.980  0.00  0.00    -0.297 N 
ATOM      6  C   UNL     1      10.144   6.011   6.612  0.00  0.00    +0.027 C 
ATOM      7  C   UNL     1       8.512   7.338   5.348  0.00  0.00    +0.054 C 
ATOM      8  C   UNL     1       8.734   6.574   6.650  0.00  0.00    +0.018 C 
ATOM      9  C   UNL     1      10.340   5.066   5.411  0.00  0.00    +0.114 C 
ATOM     10  C   UNL     1      11.130   7.179   6.583  0.00  0.00    +0.130 C 
ATOM     11  C   UNL     1       8.634   6.359   4.165  0.00  0.00    +0.119 C 
ATOM     12  C   UNL     1       9.504   8.494   5.186  0.00  0.00    +0.034 A 
ATOM     13  C   UNL     1       9.193   9.639   4.525  0.00  0.00    +0.002 A 
ATOM     14  C   UNL     1      11.802   9.295   5.591  0.00  0.00    +0.252 A 
ATOM     15  C   UNL     1      10.632   5.592   2.922  0.00  0.00    +0.302 C 
ATOM     16  C   UNL     1      10.210  10.659   4.358  0.00  0.00    +0.015 A 
ATOM     17  C   UNL     1      11.446  10.518   4.836  0.00  0.00    +0.071 A 
ATOM     31  H   UNL     1      12.132   4.417   3.805  0.00  0.00    +0.150 HD
ENDROOT
BRANCH  13  18
ATOM     18  C   UNL     1       7.848   9.869   3.952  0.00  0.00    -0.016 A 
ATOM     20  C   UNL     1       7.604   9.562   2.617  0.00  0.00    +0.017 A 
ATOM     21  C   UNL     1       6.839  10.388   4.752  0.00  0.00    +0.009 A 
ATOM     22  C   UNL     1       6.334   9.773   2.059  0.00  0.00    -0.017 A 
ATOM     23  C   UNL     1       5.570  10.604   4.214  0.00  0.00    +0.009 A 
ATOM     24  C   UNL     1       5.301  10.303   2.869  0.00  0.00    -0.018 A 
ATOM     27  C   UNL     1       6.064   9.470   0.714  0.00  0.00    +0.008 A 
ATOM     28  C   UNL     1       4.030  10.514   2.310  0.00  0.00    +0.008 A 
ATOM     29  C   UNL     1       4.795   9.688   0.175  0.00  0.00    +0.001 A 
ATOM     30  C   UNL     1       3.780  10.209   0.973  0.00  0.00    +0.001 A 
ENDBRANCH  13  18
BRANCH   5  19
ATOM     19  C   UNL     1      12.688   4.752   1.813  0.00  0.00    +0.068 C 
ATOM     25  C   UNL     1      13.019   3.279   1.618  0.00  0.00    +0.027 C 
ATOM     26  C   UNL     1      13.954   5.591   1.929  0.00  0.00    +0.027 C 
ENDBRANCH   5  19
TORSDOF 2
ENDMDL
MODEL 9
REMARK VINA RESULT:      -7.0     16.671     19.873
REMARK  Name = 7674790
REMARK  4 active torsions:
REMARK  status: ('A' for Active; 'I' for Inactive)
REMARK    1  A    between atoms: N_5  and  C_19
REMARK    2  A    between atoms: C_13  and  C_18
REMARK    3  A    between atoms: C_19  and  C_25
REMARK    4  A    between atoms: C_19  and  C_26
REMARK                            x       y       z     vdW  Elec       q    Type
REMARK                         _______ _______ _______ _____ _____    ______ ____
ROOT
ATOM      1  O   UNL     1       9.598   9.749   0.133  0.00  0.00    -0.268 OA
ATOM      2  O   UNL     1      10.490   3.908   0.372  0.00  0.00    -0.253 OA
ATOM      3  N   UNL     1      12.171   5.480   0.681  0.00  0.00    -0.285 N 
ATOM      4  N   UNL     1      10.822   8.274   1.478  0.00  0.00    -0.311 N 
ATOM      5  N   UNL     1      11.377   4.934  -1.478  0.00  0.00    -0.297 N 
ATOM      6  C   UNL     1      13.269   7.712   0.968  0.00  0.00    +0.027 C 
ATOM      7  C   UNL     1      12.146   6.661   2.880  0.00  0.00    +0.054 C 
ATOM      8  C   UNL     1      13.378   7.459   2.462  0.00  0.00    +0.018 C 
ATOM      9  C   UNL     1      13.207   6.391   0.177  0.00  0.00    +0.114 C 
ATOM     10  C   UNL     1      12.038   8.584   0.714  0.00  0.00    +0.130 C 
ATOM     11  C   UNL     1      12.147   5.311   2.137  0.00  0.00    +0.119 C 
ATOM     12  C   UNL     1      10.847   7.421   2.599  0.00  0.00    +0.034 A 
ATOM     13  C   UNL     1       9.734   7.279   3.364  0.00  0.00    +0.002 A 
ATOM     14  C   UNL     1       9.669   8.979   1.091  0.00  0.00    +0.252 A 
ATOM     15  C   UNL     1      11.289   4.719  -0.107  0.00  0.00    +0.302 C 
ATOM     16  C   UNL     1       8.523   7.984   2.992  0.00  0.00    +0.015 A 
ATOM     17  C   UNL     1       8.461   8.777   1.923  0.00  0.00    +0.071 A 
ATOM     31  H   UNL     1      12.128   5.480  -1.876  0.00  0.00    +0.150 HD
ENDROOT
BRANCH  13  18
ATOM     18  C   UNL     1       9.716   6.406   4.559  0.00  0.00    -0.016 A 
ATOM     20  C   UNL     1       9.500   6.961   5.817  0.00  0.00    +0.017 A 
ATOM     21  C   UNL     1       9.913   5.039   4.417  0.00  0.00    +0.009 A 
ATOM     22  C   UNL     1       9.478   6.147   6.961  0.00  0.00    -0.017 A 
ATOM     23  C   UNL     1       9.895   4.215   5.543  0.00  0.00    +0.009 A 
ATOM     24  C   UNL     1       9.680   4.753   6.821  0.00  0.00    -0.018 A 
ATOM     27  C   UNL     1       9.262   6.685   8.240  0.00  0.00    +0.008 A 
ATOM     28  C   UNL     1       9.659   3.938   7.966  0.00  0.00    +0.008 A 
ATOM     29  C   UNL     1       9.245   5.861   9.366  0.00  0.00    +0.001 A 
ATOM     30  C   UNL     1       9.443   4.489   9.228  0.00  0.00    +0.001 A 
ENDBRANCH  13  18
BRANCH   5  19
ATOM     19  C   UNL     1      10.542   4.226  -2.422  0.00  0.00    +0.068 C 
ATOM     25  C   UNL     1      11.373   3.234  -3.225  0.00  0.00    +0.027 C 
ATOM     26  C   UNL     1       9.818   5.206  -3.336  0.00  0.00    +0.027 C 
ENDBRANCH   5  19
TORSDOF 2
ENDMDL
MODEL 10
REMARK VINA RESULT:      -6.9     16.653     20.770
REMARK  Name = 7674790
REMARK  4 active torsions:
REMARK  status: ('A' for Active; 'I' for Inactive)
REMARK    1  A    between atoms: N_5  and  C_19
REMARK    2  A    between atoms: C_13  and  C_18
REMARK    3  A    between atoms: C_19  and  C_25
REMARK    4  A    between atoms: C_19  and  C_26
REMARK                            x       y       z     vdW  Elec       q    Type
REMARK                         _______ _______ _______ _____ _____    ______ ____
ROOT
ATOM      1  O   UNL     1      10.215   6.349   7.061  0.00  0.00    -0.268 OA
ATOM      2  O   UNL     1       9.240   8.905   1.818  0.00  0.00    -0.253 OA
ATOM      3  N   UNL     1      11.226   9.117   3.003  0.00  0.00    -0.285 N 
ATOM      4  N   UNL     1      11.432   6.695   5.091  0.00  0.00    -0.311 N 
ATOM      5  N   UNL     1       9.302  10.359   3.592  0.00  0.00    -0.297 N 
ATOM      6  C   UNL     1      12.941   8.744   4.789  0.00  0.00    +0.027 C 
ATOM      7  C   UNL     1      12.715   7.114   2.969  0.00  0.00    +0.054 C 
ATOM      8  C   UNL     1      13.726   7.854   3.841  0.00  0.00    +0.018 C 
ATOM      9  C   UNL     1      12.072   9.757   4.020  0.00  0.00    +0.114 C 
ATOM     10  C   UNL     1      12.099   7.852   5.703  0.00  0.00    +0.130 C 
ATOM     11  C   UNL     1      11.912   8.142   2.150  0.00  0.00    +0.119 C 
ATOM     12  C   UNL     1      11.770   6.242   3.801  0.00  0.00    +0.034 A 
ATOM     13  C   UNL     1      11.238   5.084   3.331  0.00  0.00    +0.002 A 
ATOM     14  C   UNL     1      10.531   6.006   5.922  0.00  0.00    +0.252 A 
ATOM     15  C   UNL     1       9.879   9.423   2.741  0.00  0.00    +0.302 C 
ATOM     16  C   UNL     1      10.299   4.349   4.156  0.00  0.00    +0.015 A 
ATOM     17  C   UNL     1       9.939   4.767   5.370  0.00  0.00    +0.071 A 
ATOM     31  H   UNL     1       9.863  10.889   4.244  0.00  0.00    +0.150 HD
ENDROOT
BRANCH  13  18
ATOM     18  C   UNL     1      11.574   4.558   1.989  0.00  0.00    -0.016 A 
ATOM     20  C   UNL     1      10.759   4.863   0.903  0.00  0.00    +0.017 A 
ATOM     21  C   UNL     1      12.703   3.766   1.823  0.00  0.00    +0.009 A 
ATOM     22  C   UNL     1      11.065   4.373  -0.376  0.00  0.00    -0.017 A 
ATOM     23  C   UNL     1      13.022   3.271   0.558  0.00  0.00    +0.009 A 
ATOM     24  C   UNL     1      12.213   3.564  -0.551  0.00  0.00    -0.018 A 
ATOM     27  C   UNL     1      10.257   4.667  -1.486  0.00  0.00    +0.008 A 
ATOM     28  C   UNL     1      12.519   3.074  -1.832  0.00  0.00    +0.008 A 
ATOM     29  C   UNL     1      10.576   4.170  -2.751  0.00  0.00    +0.001 A 
ATOM     30  C   UNL     1      11.706   3.375  -2.923  0.00  0.00    +0.001 A 
ENDBRANCH  13  18
BRANCH   5  19
ATOM     19  C   UNL     1       7.927  10.783   3.450  0.00  0.00    +0.068 C 
ATOM     25  C   UNL     1       7.804  12.279   3.708  0.00  0.00    +0.027 C 
ATOM     26  C   UNL     1       7.023   9.987   4.383  0.00  0.00    +0.027 C 
ENDBRANCH   5  19
TORSDOF 2
ENDMDL
