REMARK  Name = 45783972
REMARK  15 active torsions:
REMARK  status: ('A' for Active; 'I' for Inactive)
REMARK    1  A    between atoms: N_2  and  C_13
REMARK    2  A    between atoms: N_2  and  C_19
REMARK    3  A    between atoms: N_5  and  C_28
REMARK    4  A    between atoms: N_5  and  C_29
REMARK    5  A    between atoms: N_5  and  C_30
REMARK    6  A    between atoms: C_6  and  C_10
REMARK    7  A    between atoms: C_7  and  C_13
REMARK    8  A    between atoms: C_9  and  C_14
REMARK    9  A    between atoms: C_10  and  C_15
REMARK   10  A    between atoms: C_10  and  C_16
REMARK   11  A    between atoms: C_11  and  C_17
REMARK   12  A    between atoms: C_14  and  C_18
REMARK   13  A    between atoms: C_19  and  C_20
REMARK   14  A    between atoms: C_19  and  C_21
REMARK   15  A    between atoms: C_22  and  C_23
REMARK                            x       y       z     vdW  Elec       q    Type
REMARK                         _______ _______ _______ _____ _____    ______ ____
ROOT
ATOM      6  C   UNL     1       2.321   0.227   1.166  0.00  0.00    +0.000 C 
ATOM      7  C   UNL     1       3.865   0.348   1.145  0.00  0.00    +0.029 C 
ATOM      8  C   UNL     1       1.900  -1.242   1.323  0.00  0.00    +0.012 C 
ATOM      9  C   UNL     1       2.443  -2.128   0.186  0.00  0.00    +0.024 C 
ATOM     11  C   UNL     1       3.913  -1.870  -0.075  0.00  0.00    -0.073 C 
ATOM     12  C   UNL     1       4.535  -0.765   0.372  0.00  0.00    -0.023 C 
ATOM     17  C   UNL     1       4.664  -2.935  -0.825  0.00  0.00    +0.039 C 
ENDROOT
BRANCH   6  10
ATOM     10  C   UNL     1       1.700   1.068   2.286  0.00  0.00    -0.013 C 
ATOM     15  C   UNL     1       1.775   0.322   3.614  0.00  0.00    +0.007 C 
ATOM     16  C   UNL     1       0.256   1.424   1.946  0.00  0.00    +0.007 C 
ENDBRANCH   6  10
BRANCH   7  13
ATOM     13  C   UNL     1       4.307   1.701   0.577  0.00  0.00    +0.089 C 
BRANCH  13   2
ATOM      2  N   UNL     1       3.918   1.824  -0.818  0.00  0.00    -0.313 NA
ATOM     31  H   UNL     1       4.350   1.076  -1.358  0.00  0.00    +0.122 HD
BRANCH   2  19
ATOM     19  C   UNL     1       4.325   3.113  -1.364  0.00  0.00    +0.047 C 
ATOM     20  C   UNL     1       4.407   3.017  -2.884  0.00  0.00    +0.023 C 
ATOM     21  C   UNL     1       3.346   4.203  -0.935  0.00  0.00    +0.023 C 
ENDBRANCH   2  19
ENDBRANCH  13   2
ENDBRANCH   7  13
BRANCH   9  14
ATOM     14  C   UNL     1       1.618  -1.952  -1.093  0.00  0.00    +0.105 C 
BRANCH  14  18
ATOM      1  O   UNL     1      -0.668  -1.167  -0.758  0.00  0.00    -0.420 OA
ATOM      3  N   UNL     1      -0.449  -3.393  -0.716  0.00  0.00    -0.112 NA
ATOM      4  N   UNL     1      -1.782  -3.091  -0.515  0.00  0.00    -0.107 NA
ATOM     18  C   UNL     1       0.164  -2.240  -0.853  0.00  0.00    +0.218 A 
ATOM     22  C   UNL     1      -1.864  -1.782  -0.547  0.00  0.00    +0.248 A 
BRANCH  22  23
ATOM     23  C   UNL     1      -2.997  -0.915  -0.398  0.00  0.00    +0.039 A 
ATOM     24  C   UNL     1      -4.264  -1.456  -0.178  0.00  0.00    +0.015 A 
ATOM     25  C   UNL     1      -2.831   0.468  -0.471  0.00  0.00    +0.015 A 
ATOM     26  C   UNL     1      -5.366  -0.613  -0.033  0.00  0.00    +0.024 A 
ATOM     27  C   UNL     1      -3.933   1.311  -0.325  0.00  0.00    +0.024 A 
ATOM     28  C   UNL     1      -5.200   0.770  -0.106  0.00  0.00    +0.029 A 
BRANCH  28   5
ATOM      5  N   UNL     1      -6.315   1.622   0.040  0.00  0.00    -0.336 N 
ATOM     29  C   UNL     1      -6.153   3.061  -0.027  0.00  0.00    +0.129 C 
ATOM     30  C   UNL     1      -7.636   1.070   0.267  0.00  0.00    +0.129 C 
ENDBRANCH  28   5
ENDBRANCH  22  23
ENDBRANCH  14  18
ENDBRANCH   9  14
TORSDOF 8
