REMARK  Name = 45361666
REMARK  8 active torsions:
REMARK  status: ('A' for Active; 'I' for Inactive)
REMARK    1  A    between atoms: O_2  and  C_11
REMARK    2  A    between atoms: N_5  and  C_15
REMARK    3  A    between atoms: N_7  and  C_28
REMARK    4  A    between atoms: C_8  and  C_18
REMARK    5  A    between atoms: C_10  and  C_20
REMARK    6  A    between atoms: C_13  and  C_19
REMARK    7  A    between atoms: C_19  and  C_21
REMARK    8  A    between atoms: C_19  and  C_22
REMARK                            x       y       z     vdW  Elec       q    Type
REMARK                         _______ _______ _______ _____ _____    ______ ____
ROOT
ATOM      8  C   UNL     1      -1.144   1.655   0.934  0.00  0.00    -0.027 C 
ATOM      9  C   UNL     1      -1.024   0.438  -0.044  0.00  0.00    +0.028 C 
ATOM     10  C   UNL     1       0.364   0.447  -0.779  0.00  0.00    +0.012 C 
ATOM     11  C   UNL     1      -2.271   0.333  -0.969  0.00  0.00    +0.122 C 
ATOM     12  C   UNL     1      -2.471   1.553   1.723  0.00  0.00    +0.007 C 
ATOM     13  C   UNL     1      -3.600   0.337  -0.179  0.00  0.00    +0.029 C 
ATOM     14  C   UNL     1       0.016   1.598   1.954  0.00  0.00    +0.009 C 
ATOM     15  C   UNL     1       1.522   0.466   0.257  0.00  0.00    +0.078 C 
ATOM     16  C   UNL     1      -3.696   1.490   0.821  0.00  0.00    +0.007 C 
ATOM     17  C   UNL     1       1.389   1.578   1.297  0.00  0.00    +0.023 C 
ATOM     18  C   UNL     1      -1.108   3.016   0.195  0.00  0.00    +0.011 C 
ATOM     20  C   UNL     1       0.561  -0.740  -1.737  0.00  0.00    +0.010 C 
ENDROOT
BRANCH  15   5
ATOM      4  O   UNL     1       4.003  -0.638   1.169  0.00  0.00    -0.253 OA
ATOM      5  N   UNL     1       2.814   0.592  -0.386  0.00  0.00    -0.296 N 
ATOM      7  N   UNL     1       5.066   0.306  -0.699  0.00  0.00    -0.269 N 
ATOM     23  C   UNL     1       3.979   0.019   0.130  0.00  0.00    +0.304 C 
ATOM     34  H   UNL     1       2.889   1.189  -1.203  0.00  0.00    +0.151 HD
ATOM     36  H   UNL     1       4.874   0.865  -1.527  0.00  0.00    +0.156 HD
BRANCH   7  28
ATOM      1  F   UNL     1       8.467  -1.988   1.794  0.00  0.00    -0.205 F 
ATOM     28  C   UNL     1       6.414  -0.088  -0.532  0.00  0.00    +0.037 A 
ATOM     29  C   UNL     1       6.783  -0.860   0.570  0.00  0.00    +0.061 A 
ATOM     30  C   UNL     1       7.374   0.295  -1.468  0.00  0.00    +0.023 A 
ATOM     31  C   UNL     1       8.112  -1.248   0.736  0.00  0.00    +0.125 A 
ATOM     32  C   UNL     1       8.704  -0.094  -1.302  0.00  0.00    +0.005 A 
ATOM     33  C   UNL     1       9.073  -0.865  -0.201  0.00  0.00    +0.038 A 
ENDBRANCH   7  28
ENDBRANCH  15   5
BRANCH  11   2
ATOM      2  O   UNL     1      -2.228  -0.900  -1.689  0.00  0.00    -0.391 OA
ATOM     35  H   UNL     1      -2.229  -1.627  -1.044  0.00  0.00    +0.210 HD
ENDBRANCH  11   2
BRANCH  13  19
ATOM     19  C   UNL     1      -4.817   0.365  -1.112  0.00  0.00    +0.078 C 
ATOM     21  C   UNL     1      -4.821   1.618  -1.968  0.00  0.00    +0.017 C 
BRANCH  19  22
ATOM      3  O   UNL     1      -6.623   1.343   0.093  0.00  0.00    -0.275 OA
ATOM      6  N   UNL     1      -6.516  -0.964   0.041  0.00  0.00    -0.301 N 
ATOM     22  C   UNL     1      -6.068   0.306  -0.273  0.00  0.00    +0.219 C 
ATOM     24  C   UNL     1      -5.910  -2.228  -0.364  0.00  0.00    +0.108 C 
ATOM     25  C   UNL     1      -7.707  -1.191   0.848  0.00  0.00    +0.108 C 
ATOM     26  C   UNL     1      -6.628  -3.278   0.472  0.00  0.00    +0.020 C 
ATOM     27  C   UNL     1      -8.010  -2.670   0.670  0.00  0.00    +0.020 C 
ENDBRANCH  19  22
ENDBRANCH  13  19
TORSDOF 5
