MODEL 1
REMARK VINA RESULT:      -7.7      0.000      0.000
REMARK  Name = 26742941
REMARK  7 active torsions:
REMARK  status: ('A' for Active; 'I' for Inactive)
REMARK    1  A    between atoms: N_6  and  C_19
REMARK    2  A    between atoms: C_8  and  C_14
REMARK    3  A    between atoms: C_9  and  C_13
REMARK    4  A    between atoms: C_13  and  C_15
REMARK    5  A    between atoms: C_14  and  C_16
REMARK    6  A    between atoms: C_18  and  C_20
REMARK    7  A    between atoms: C_19  and  C_21
REMARK                            x       y       z     vdW  Elec       q    Type
REMARK                         _______ _______ _______ _____ _____    ______ ____
ROOT
ATOM      5  N   UNL     1      13.979   8.578  15.894  0.00  0.00    -0.316 NA
ATOM      8  C   UNL     1      13.069   9.074  18.656  0.00  0.00    +0.004 C 
ATOM      9  C   UNL     1      14.215   8.093  18.318  0.00  0.00    +0.012 C 
ATOM     10  C   UNL     1      12.951  10.115  17.530  0.00  0.00    +0.019 C 
ATOM     11  C   UNL     1      14.071   7.518  16.898  0.00  0.00    +0.085 C 
ATOM     12  C   UNL     1      12.852   9.471  16.149  0.00  0.00    +0.081 C 
ATOM     30  H   UNL     1      13.876   8.159  14.970  0.00  0.00    +0.122 HD
ENDROOT
BRANCH   9  13
ATOM     13  C   UNL     1      14.361   6.966  19.342  0.00  0.00    +0.064 C 
BRANCH  13  15
ATOM      4  O   UNL     1      17.734   5.722  19.143  0.00  0.00    -0.354 OA
ATOM      7  N   UNL     1      16.446   5.870  18.643  0.00  0.00    -0.083 NA
ATOM     15  C   UNL     1      15.802   6.603  19.555  0.00  0.00    +0.085 A 
ATOM     17  C   UNL     1      16.624   6.946  20.642  0.00  0.00    +0.076 A 
ATOM     18  C   UNL     1      17.828   6.368  20.334  0.00  0.00    +0.167 A 
BRANCH  18  20
ATOM      2  F   UNL     1      22.793   6.113  22.832  0.00  0.00    -0.205 F 
ATOM     20  C   UNL     1      19.108   6.303  20.976  0.00  0.00    +0.020 A 
ATOM     22  C   UNL     1      20.067   5.390  20.533  0.00  0.00    +0.014 A 
ATOM     23  C   UNL     1      19.396   7.150  22.047  0.00  0.00    +0.014 A 
ATOM     25  C   UNL     1      21.311   5.327  21.160  0.00  0.00    +0.039 A 
ATOM     26  C   UNL     1      20.640   7.086  22.673  0.00  0.00    +0.039 A 
ATOM     29  C   UNL     1      21.598   6.174  22.229  0.00  0.00    +0.123 A 
ENDBRANCH  18  20
ENDBRANCH  13  15
ENDBRANCH   9  13
BRANCH   8  14
ATOM     14  C   UNL     1      11.718   8.393  18.913  0.00  0.00    +0.099 C 
BRANCH  14  16
ATOM      3  O   UNL     1      10.536   7.646  20.887  0.00  0.00    -0.276 OA
ATOM      6  N   UNL     1      11.960   9.477  21.034  0.00  0.00    -0.311 N 
ATOM     16  C   UNL     1      11.323   8.437  20.373  0.00  0.00    +0.214 C 
ATOM     31  H   UNL     1      12.635  10.044  20.532  0.00  0.00    +0.149 HD
BRANCH   6  19
ATOM     19  C   UNL     1      11.766   9.755  22.439  0.00  0.00    +0.146 C 
BRANCH  19  21
ATOM      1  S   UNL     1      10.874  11.662  24.252  0.00  0.00    -0.100 S 
ATOM     21  C   UNL     1      11.328  11.171  22.675  0.00  0.00    +0.007 A 
ATOM     24  C   UNL     1      11.228  12.201  21.765  0.00  0.00    +0.013 A 
ATOM     27  C   UNL     1      10.774  13.408  22.370  0.00  0.00    +0.008 A 
ATOM     28  C   UNL     1      10.543  13.255  23.719  0.00  0.00    +0.045 A 
ENDBRANCH  19  21
ENDBRANCH   6  19
ENDBRANCH  14  16
ENDBRANCH   8  14
TORSDOF 7
ENDMDL
MODEL 2
REMARK VINA RESULT:      -7.2      1.885      2.225
REMARK  Name = 26742941
REMARK  7 active torsions:
REMARK  status: ('A' for Active; 'I' for Inactive)
REMARK    1  A    between atoms: N_6  and  C_19
REMARK    2  A    between atoms: C_8  and  C_14
REMARK    3  A    between atoms: C_9  and  C_13
REMARK    4  A    between atoms: C_13  and  C_15
REMARK    5  A    between atoms: C_14  and  C_16
REMARK    6  A    between atoms: C_18  and  C_20
REMARK    7  A    between atoms: C_19  and  C_21
REMARK                            x       y       z     vdW  Elec       q    Type
REMARK                         _______ _______ _______ _____ _____    ______ ____
ROOT
ATOM      5  N   UNL     1      12.066   7.194  17.488  0.00  0.00    -0.316 NA
ATOM      8  C   UNL     1      13.484   9.102  19.235  0.00  0.00    +0.004 C 
ATOM      9  C   UNL     1      13.885   7.612  19.127  0.00  0.00    +0.012 C 
ATOM     10  C   UNL     1      12.755   9.520  17.947  0.00  0.00    +0.019 C 
ATOM     11  C   UNL     1      12.688   6.730  18.728  0.00  0.00    +0.085 C 
ATOM     12  C   UNL     1      11.607   8.576  17.594  0.00  0.00    +0.081 C 
ATOM     30  H   UNL     1      11.275   6.592  17.262  0.00  0.00    +0.122 HD
ENDROOT
BRANCH   9  13
ATOM     13  C   UNL     1      14.548   7.075  20.396  0.00  0.00    +0.064 C 
BRANCH  13  15
ATOM      4  O   UNL     1      17.638   5.752  19.109  0.00  0.00    -0.354 OA
ATOM      7  N   UNL     1      16.268   5.968  19.035  0.00  0.00    -0.083 NA
ATOM     15  C   UNL     1      15.966   6.658  20.138  0.00  0.00    +0.085 A 
ATOM     17  C   UNL     1      17.095   6.905  20.938  0.00  0.00    +0.076 A 
ATOM     18  C   UNL     1      18.119   6.314  20.246  0.00  0.00    +0.167 A 
BRANCH  18  20
ATOM      2  F   UNL     1      23.593   5.757  21.075  0.00  0.00    -0.205 F 
ATOM     20  C   UNL     1      19.530   6.171  20.462  0.00  0.00    +0.020 A 
ATOM     22  C   UNL     1      20.292   7.272  20.853  0.00  0.00    +0.014 A 
ATOM     23  C   UNL     1      20.142   4.930  20.276  0.00  0.00    +0.014 A 
ATOM     25  C   UNL     1      21.664   7.132  21.061  0.00  0.00    +0.039 A 
ATOM     26  C   UNL     1      21.513   4.791  20.484  0.00  0.00    +0.039 A 
ATOM     29  C   UNL     1      22.275   5.891  20.877  0.00  0.00    +0.123 A 
ENDBRANCH  18  20
ENDBRANCH  13  15
ENDBRANCH   9  13
BRANCH   8  14
ATOM     14  C   UNL     1      12.641   9.434  20.473  0.00  0.00    +0.099 C 
BRANCH  14  16
ATOM      3  O   UNL     1      13.553  11.653  20.784  0.00  0.00    -0.276 OA
ATOM      6  N   UNL     1      13.341  10.238  22.616  0.00  0.00    -0.311 N 
ATOM     16  C   UNL     1      13.226  10.576  21.276  0.00  0.00    +0.214 C 
ATOM     31  H   UNL     1      12.993   9.341  22.933  0.00  0.00    +0.149 HD
BRANCH   6  19
ATOM     19  C   UNL     1      13.872  11.140  23.613  0.00  0.00    +0.146 C 
BRANCH  19  21
ATOM      1  S   UNL     1      13.144  13.317  25.178  0.00  0.00    -0.100 S 
ATOM     21  C   UNL     1      12.783  11.860  24.355  0.00  0.00    +0.007 A 
ATOM     24  C   UNL     1      11.457  11.509  24.484  0.00  0.00    +0.013 A 
ATOM     27  C   UNL     1      10.728  12.449  25.269  0.00  0.00    +0.008 A 
ATOM     28  C   UNL     1      11.525  13.482  25.710  0.00  0.00    +0.045 A 
ENDBRANCH  19  21
ENDBRANCH   6  19
ENDBRANCH  14  16
ENDBRANCH   8  14
TORSDOF 7
ENDMDL
MODEL 3
REMARK VINA RESULT:      -7.1      3.718      7.644
REMARK  Name = 26742941
REMARK  7 active torsions:
REMARK  status: ('A' for Active; 'I' for Inactive)
REMARK    1  A    between atoms: N_6  and  C_19
REMARK    2  A    between atoms: C_8  and  C_14
REMARK    3  A    between atoms: C_9  and  C_13
REMARK    4  A    between atoms: C_13  and  C_15
REMARK    5  A    between atoms: C_14  and  C_16
REMARK    6  A    between atoms: C_18  and  C_20
REMARK    7  A    between atoms: C_19  and  C_21
REMARK                            x       y       z     vdW  Elec       q    Type
REMARK                         _______ _______ _______ _____ _____    ______ ____
ROOT
ATOM      5  N   UNL     1      11.963  10.202  15.112  0.00  0.00    -0.316 NA
ATOM      8  C   UNL     1      12.012   8.861  17.739  0.00  0.00    +0.004 C 
ATOM      9  C   UNL     1      12.824  10.143  17.440  0.00  0.00    +0.012 C 
ATOM     10  C   UNL     1      10.811   8.792  16.781  0.00  0.00    +0.019 C 
ATOM     11  C   UNL     1      13.164  10.264  15.945  0.00  0.00    +0.085 C 
ATOM     12  C   UNL     1      11.222   8.960  15.319  0.00  0.00    +0.081 C 
ATOM     30  H   UNL     1      12.229  10.276  14.130  0.00  0.00    +0.122 HD
ENDROOT
BRANCH   9  13
ATOM     13  C   UNL     1      14.089  10.263  18.291  0.00  0.00    +0.064 C 
BRANCH  13  15
ATOM      4  O   UNL     1      13.956  10.595  21.872  0.00  0.00    -0.354 OA
ATOM      7  N   UNL     1      14.533  10.117  20.703  0.00  0.00    -0.083 NA
ATOM     15  C   UNL     1      13.761  10.586  19.719  0.00  0.00    +0.085 A 
ATOM     17  C   UNL     1      12.692  11.359  20.203  0.00  0.00    +0.076 A 
ATOM     18  C   UNL     1      12.861  11.333  21.562  0.00  0.00    +0.167 A 
BRANCH  18  20
ATOM      2  F   UNL     1      10.128  13.522  25.886  0.00  0.00    -0.205 F 
ATOM     20  C   UNL     1      12.155  11.897  22.676  0.00  0.00    +0.020 A 
ATOM     22  C   UNL     1      11.164  12.856  22.462  0.00  0.00    +0.014 A 
ATOM     23  C   UNL     1      12.461  11.488  23.975  0.00  0.00    +0.014 A 
ATOM     25  C   UNL     1      10.480  13.404  23.547  0.00  0.00    +0.039 A 
ATOM     26  C   UNL     1      11.776  12.036  25.058  0.00  0.00    +0.039 A 
ATOM     29  C   UNL     1      10.785  12.994  24.844  0.00  0.00    +0.123 A 
ENDBRANCH  18  20
ENDBRANCH  13  15
ENDBRANCH   9  13
BRANCH   8  14
ATOM     14  C   UNL     1      12.837   7.569  17.674  0.00  0.00    +0.099 C 
BRANCH  14  16
ATOM      3  O   UNL     1      12.258   6.565  19.797  0.00  0.00    -0.276 OA
ATOM      6  N   UNL     1      14.483   7.052  19.334  0.00  0.00    -0.311 N 
ATOM     16  C   UNL     1      13.127   7.004  19.047  0.00  0.00    +0.214 C 
ATOM     31  H   UNL     1      15.128   7.384  18.625  0.00  0.00    +0.149 HD
BRANCH   6  19
ATOM     19  C   UNL     1      15.043   6.579  20.579  0.00  0.00    +0.146 C 
BRANCH  19  21
ATOM      1  S   UNL     1      17.315   7.921  21.449  0.00  0.00    -0.100 S 
ATOM     21  C   UNL     1      16.542   6.660  20.586  0.00  0.00    +0.007 A 
ATOM     24  C   UNL     1      17.448   5.825  19.969  0.00  0.00    +0.013 A 
ATOM     27  C   UNL     1      18.795   6.227  20.208  0.00  0.00    +0.008 A 
ATOM     28  C   UNL     1      18.866   7.353  20.997  0.00  0.00    +0.045 A 
ENDBRANCH  19  21
ENDBRANCH   6  19
ENDBRANCH  14  16
ENDBRANCH   8  14
TORSDOF 7
ENDMDL
MODEL 4
REMARK VINA RESULT:      -7.1      3.039      4.148
REMARK  Name = 26742941
REMARK  7 active torsions:
REMARK  status: ('A' for Active; 'I' for Inactive)
REMARK    1  A    between atoms: N_6  and  C_19
REMARK    2  A    between atoms: C_8  and  C_14
REMARK    3  A    between atoms: C_9  and  C_13
REMARK    4  A    between atoms: C_13  and  C_15
REMARK    5  A    between atoms: C_14  and  C_16
REMARK    6  A    between atoms: C_18  and  C_20
REMARK    7  A    between atoms: C_19  and  C_21
REMARK                            x       y       z     vdW  Elec       q    Type
REMARK                         _______ _______ _______ _____ _____    ______ ____
ROOT
ATOM      5  N   UNL     1      11.953   7.229  17.646  0.00  0.00    -0.316 NA
ATOM      8  C   UNL     1      14.199   8.825  18.700  0.00  0.00    +0.004 C 
ATOM      9  C   UNL     1      14.067   7.304  18.947  0.00  0.00    +0.012 C 
ATOM     10  C   UNL     1      13.431   9.195  17.421  0.00  0.00    +0.019 C 
ATOM     11  C   UNL     1      12.599   6.847  18.902  0.00  0.00    +0.085 C 
ATOM     12  C   UNL     1      11.995   8.674  17.432  0.00  0.00    +0.081 C 
ATOM     30  H   UNL     1      10.982   6.918  17.658  0.00  0.00    +0.122 HD
ENDROOT
BRANCH   9  13
ATOM     13  C   UNL     1      14.733   6.847  20.245  0.00  0.00    +0.064 C 
BRANCH  13  15
ATOM      4  O   UNL     1      17.885   5.626  19.009  0.00  0.00    -0.354 OA
ATOM      7  N   UNL     1      16.516   5.829  18.895  0.00  0.00    -0.083 NA
ATOM     15  C   UNL     1      16.165   6.460  20.019  0.00  0.00    +0.085 A 
ATOM     17  C   UNL     1      17.261   6.681  20.871  0.00  0.00    +0.076 A 
ATOM     18  C   UNL     1      18.318   6.137  20.189  0.00  0.00    +0.167 A 
BRANCH  18  20
ATOM      2  F   UNL     1      23.763   5.607  21.203  0.00  0.00    -0.205 F 
ATOM     20  C   UNL     1      19.722   6.000  20.449  0.00  0.00    +0.020 A 
ATOM     22  C   UNL     1      20.317   4.739  20.419  0.00  0.00    +0.014 A 
ATOM     23  C   UNL     1      20.492   7.128  20.734  0.00  0.00    +0.014 A 
ATOM     25  C   UNL     1      21.682   4.606  20.674  0.00  0.00    +0.039 A 
ATOM     26  C   UNL     1      21.856   6.995  20.988  0.00  0.00    +0.039 A 
ATOM     29  C   UNL     1      22.452   5.734  20.958  0.00  0.00    +0.123 A 
ENDBRANCH  18  20
ENDBRANCH  13  15
ENDBRANCH   9  13
BRANCH   8  14
ATOM     14  C   UNL     1      13.743   9.691  19.881  0.00  0.00    +0.099 C 
BRANCH  14  16
ATOM      3  O   UNL     1      14.124  12.042  20.304  0.00  0.00    -0.276 OA
ATOM      6  N   UNL     1      15.933  10.658  19.844  0.00  0.00    -0.311 N 
ATOM     16  C   UNL     1      14.588  10.937  20.039  0.00  0.00    +0.214 C 
ATOM     31  H   UNL     1      16.222   9.699  19.682  0.00  0.00    +0.149 HD
BRANCH   6  19
ATOM     19  C   UNL     1      16.968  11.663  19.933  0.00  0.00    +0.146 C 
BRANCH  19  21
ATOM      1  S   UNL     1      18.922  12.580  21.682  0.00  0.00    -0.100 S 
ATOM     21  C   UNL     1      17.986  11.327  20.983  0.00  0.00    +0.007 A 
ATOM     24  C   UNL     1      18.305  10.092  21.505  0.00  0.00    +0.013 A 
ATOM     27  C   UNL     1      19.331  10.176  22.491  0.00  0.00    +0.008 A 
ATOM     28  C   UNL     1      19.757  11.472  22.685  0.00  0.00    +0.045 A 
ENDBRANCH  19  21
ENDBRANCH   6  19
ENDBRANCH  14  16
ENDBRANCH   8  14
TORSDOF 7
ENDMDL
MODEL 5
REMARK VINA RESULT:      -7.0      5.306     11.070
REMARK  Name = 26742941
REMARK  7 active torsions:
REMARK  status: ('A' for Active; 'I' for Inactive)
REMARK    1  A    between atoms: N_6  and  C_19
REMARK    2  A    between atoms: C_8  and  C_14
REMARK    3  A    between atoms: C_9  and  C_13
REMARK    4  A    between atoms: C_13  and  C_15
REMARK    5  A    between atoms: C_14  and  C_16
REMARK    6  A    between atoms: C_18  and  C_20
REMARK    7  A    between atoms: C_19  and  C_21
REMARK                            x       y       z     vdW  Elec       q    Type
REMARK                         _______ _______ _______ _____ _____    ______ ____
ROOT
ATOM      5  N   UNL     1      20.719   9.153  21.689  0.00  0.00    -0.316 NA
ATOM      8  C   UNL     1      21.617   6.634  20.443  0.00  0.00    +0.004 C 
ATOM      9  C   UNL     1      20.123   6.997  20.611  0.00  0.00    +0.012 C 
ATOM     10  C   UNL     1      22.447   7.928  20.420  0.00  0.00    +0.019 C 
ATOM     11  C   UNL     1      19.899   7.947  21.801  0.00  0.00    +0.085 C 
ATOM     12  C   UNL     1      22.143   8.837  21.610  0.00  0.00    +0.081 C 
ATOM     30  H   UNL     1      20.550   9.751  22.497  0.00  0.00    +0.122 HD
ENDROOT
BRANCH   9  13
ATOM     13  C   UNL     1      19.217   5.770  20.726  0.00  0.00    +0.064 C 
BRANCH  13  15
ATOM      4  O   UNL     1      16.247   6.051  18.711  0.00  0.00    -0.354 OA
ATOM      7  N   UNL     1      17.563   5.653  18.913  0.00  0.00    -0.083 NA
ATOM     15  C   UNL     1      17.855   6.040  20.158  0.00  0.00    +0.085 A 
ATOM     17  C   UNL     1      16.772   6.681  20.785  0.00  0.00    +0.076 A 
ATOM     18  C   UNL     1      15.787   6.661  19.832  0.00  0.00    +0.167 A 
BRANCH  18  20
ATOM      2  F   UNL     1      10.532   8.474  19.601  0.00  0.00    -0.205 F 
ATOM     20  C   UNL     1      14.433   7.130  19.774  0.00  0.00    +0.020 A 
ATOM     22  C   UNL     1      13.652   7.156  20.930  0.00  0.00    +0.014 A 
ATOM     23  C   UNL     1      13.894   7.557  18.559  0.00  0.00    +0.014 A 
ATOM     25  C   UNL     1      12.335   7.611  20.872  0.00  0.00    +0.039 A 
ATOM     26  C   UNL     1      12.577   8.011  18.502  0.00  0.00    +0.039 A 
ATOM     29  C   UNL     1      11.797   8.038  19.658  0.00  0.00    +0.123 A 
ENDBRANCH  18  20
ENDBRANCH  13  15
ENDBRANCH   9  13
BRANCH   8  14
ATOM     14  C   UNL     1      22.147   5.663  21.505  0.00  0.00    +0.099 C 
BRANCH  14  16
ATOM      3  O   UNL     1      21.788   3.358  20.863  0.00  0.00    -0.276 OA
ATOM      6  N   UNL     1      23.847   4.351  20.446  0.00  0.00    -0.311 N 
ATOM     16  C   UNL     1      22.541   4.327  20.913  0.00  0.00    +0.214 C 
ATOM     31  H   UNL     1      24.372   5.218  20.484  0.00  0.00    +0.149 HD
BRANCH   6  19
ATOM     19  C   UNL     1      24.487   3.209  19.832  0.00  0.00    +0.146 C 
BRANCH  19  21
ATOM      1  S   UNL     1      26.611   2.582  21.509  0.00  0.00    -0.100 S 
ATOM     21  C   UNL     1      25.060   2.270  20.854  0.00  0.00    +0.007 A 
ATOM     24  C   UNL     1      24.498   1.127  21.379  0.00  0.00    +0.013 A 
ATOM     27  C   UNL     1      25.351   0.499  22.332  0.00  0.00    +0.008 A 
ATOM     28  C   UNL     1      26.534   1.186  22.498  0.00  0.00    +0.045 A 
ENDBRANCH  19  21
ENDBRANCH   6  19
ENDBRANCH  14  16
ENDBRANCH   8  14
TORSDOF 7
ENDMDL
MODEL 6
REMARK VINA RESULT:      -6.8      4.560      6.684
REMARK  Name = 26742941
REMARK  7 active torsions:
REMARK  status: ('A' for Active; 'I' for Inactive)
REMARK    1  A    between atoms: N_6  and  C_19
REMARK    2  A    between atoms: C_8  and  C_14
REMARK    3  A    between atoms: C_9  and  C_13
REMARK    4  A    between atoms: C_13  and  C_15
REMARK    5  A    between atoms: C_14  and  C_16
REMARK    6  A    between atoms: C_18  and  C_20
REMARK    7  A    between atoms: C_19  and  C_21
REMARK                            x       y       z     vdW  Elec       q    Type
REMARK                         _______ _______ _______ _____ _____    ______ ____
ROOT
ATOM      5  N   UNL     1      17.642  12.461  14.132  0.00  0.00    -0.316 NA
ATOM      8  C   UNL     1      15.845  12.352  16.470  0.00  0.00    +0.004 C 
ATOM      9  C   UNL     1      15.619  11.496  15.202  0.00  0.00    +0.012 C 
ATOM     10  C   UNL     1      17.335  12.718  16.569  0.00  0.00    +0.019 C 
ATOM     11  C   UNL     1      16.221  12.162  13.952  0.00  0.00    +0.085 C 
ATOM     12  C   UNL     1      17.871  13.336  15.279  0.00  0.00    +0.081 C 
ATOM     30  H   UNL     1      18.001  12.908  13.289  0.00  0.00    +0.122 HD
ENDROOT
BRANCH   9  13
ATOM     13  C   UNL     1      14.148  11.146  14.968  0.00  0.00    +0.064 C 
BRANCH  13  15
ATOM      4  O   UNL     1      13.269   8.033  16.547  0.00  0.00    -0.354 OA
ATOM      7  N   UNL     1      13.754   8.775  15.477  0.00  0.00    -0.083 NA
ATOM     15  C   UNL     1      13.695  10.047  15.883  0.00  0.00    +0.085 A 
ATOM     17  C   UNL     1      13.188  10.167  17.188  0.00  0.00    +0.076 A 
ATOM     18  C   UNL     1      12.936   8.872  17.560  0.00  0.00    +0.167 A 
BRANCH  18  20
ATOM      2  F   UNL     1      10.912   6.440  22.137  0.00  0.00    -0.205 F 
ATOM     20  C   UNL     1      12.416   8.246  18.740  0.00  0.00    +0.020 A 
ATOM     22  C   UNL     1      12.974   7.053  19.201  0.00  0.00    +0.014 A 
ATOM     23  C   UNL     1      11.349   8.827  19.427  0.00  0.00    +0.014 A 
ATOM     25  C   UNL     1      12.466   6.443  20.349  0.00  0.00    +0.039 A 
ATOM     26  C   UNL     1      10.843   8.218  20.574  0.00  0.00    +0.039 A 
ATOM     29  C   UNL     1      11.401   7.026  21.035  0.00  0.00    +0.123 A 
ENDBRANCH  18  20
ENDBRANCH  13  15
ENDBRANCH   9  13
BRANCH   8  14
ATOM     14  C   UNL     1      14.968  13.609  16.539  0.00  0.00    +0.099 C 
BRANCH  14  16
ATOM      3  O   UNL     1      13.116  14.339  17.913  0.00  0.00    -0.276 OA
ATOM      6  N   UNL     1      14.652  12.826  18.779  0.00  0.00    -0.311 N 
ATOM     16  C   UNL     1      14.128  13.653  17.797  0.00  0.00    +0.214 C 
ATOM     31  H   UNL     1      15.464  12.257  18.567  0.00  0.00    +0.149 HD
BRANCH   6  19
ATOM     19  C   UNL     1      14.052  12.674  20.086  0.00  0.00    +0.146 C 
BRANCH  19  21
ATOM      1  S   UNL     1      13.440  10.806  22.048  0.00  0.00    -0.100 S 
ATOM     21  C   UNL     1      14.321  11.319  20.672  0.00  0.00    +0.007 A 
ATOM     24  C   UNL     1      15.222  10.366  20.251  0.00  0.00    +0.013 A 
ATOM     27  C   UNL     1      15.188   9.198  21.067  0.00  0.00    +0.008 A 
ATOM     28  C   UNL     1      14.263   9.304  22.082  0.00  0.00    +0.045 A 
ENDBRANCH  19  21
ENDBRANCH   6  19
ENDBRANCH  14  16
ENDBRANCH   8  14
TORSDOF 7
ENDMDL
MODEL 7
REMARK VINA RESULT:      -6.6     14.817     18.425
REMARK  Name = 26742941
REMARK  7 active torsions:
REMARK  status: ('A' for Active; 'I' for Inactive)
REMARK    1  A    between atoms: N_6  and  C_19
REMARK    2  A    between atoms: C_8  and  C_14
REMARK    3  A    between atoms: C_9  and  C_13
REMARK    4  A    between atoms: C_13  and  C_15
REMARK    5  A    between atoms: C_14  and  C_16
REMARK    6  A    between atoms: C_18  and  C_20
REMARK    7  A    between atoms: C_19  and  C_21
REMARK                            x       y       z     vdW  Elec       q    Type
REMARK                         _______ _______ _______ _____ _____    ______ ____
ROOT
ATOM      5  N   UNL     1      10.540   3.902  -1.822  0.00  0.00    -0.316 NA
ATOM      8  C   UNL     1      12.458   4.520   0.333  0.00  0.00    +0.004 C 
ATOM      9  C   UNL     1      10.938   4.768   0.472  0.00  0.00    +0.012 C 
ATOM     10  C   UNL     1      12.694   3.419  -0.714  0.00  0.00    +0.019 C 
ATOM     11  C   UNL     1      10.274   5.003  -0.896  0.00  0.00    +0.085 C 
ATOM     12  C   UNL     1      11.972   3.702  -2.030  0.00  0.00    +0.081 C 
ATOM     30  H   UNL     1      10.093   4.098  -2.717  0.00  0.00    +0.122 HD
ENDROOT
BRANCH   9  13
ATOM     13  C   UNL     1      10.601   5.907   1.435  0.00  0.00    +0.064 C 
BRANCH  13  15
ATOM      4  O   UNL     1      10.479   4.009   4.492  0.00  0.00    -0.354 OA
ATOM      7  N   UNL     1      10.732   4.134   3.132  0.00  0.00    -0.083 NA
ATOM     15  C   UNL     1      10.442   5.405   2.841  0.00  0.00    +0.085 A 
ATOM     17  C   UNL     1      10.005   6.124   3.967  0.00  0.00    +0.076 A 
ATOM     18  C   UNL     1      10.047   5.200   4.978  0.00  0.00    +0.167 A 
BRANCH  18  20
ATOM      2  F   UNL     1       8.861   5.300  10.413  0.00  0.00    -0.205 F 
ATOM     20  C   UNL     1       9.743   5.226   6.380  0.00  0.00    +0.020 A 
ATOM     22  C   UNL     1       9.959   4.091   7.162  0.00  0.00    +0.014 A 
ATOM     23  C   UNL     1       9.229   6.385   6.961  0.00  0.00    +0.014 A 
ATOM     25  C   UNL     1       9.661   4.116   8.524  0.00  0.00    +0.039 A 
ATOM     26  C   UNL     1       8.932   6.410   8.323  0.00  0.00    +0.039 A 
ATOM     29  C   UNL     1       9.148   5.276   9.105  0.00  0.00    +0.123 A 
ENDBRANCH  18  20
ENDBRANCH  13  15
ENDBRANCH   9  13
BRANCH   8  14
ATOM     14  C   UNL     1      13.268   5.779  -0.006  0.00  0.00    +0.099 C 
BRANCH  14  16
ATOM      3  O   UNL     1      15.565   5.419   0.663  0.00  0.00    -0.276 OA
ATOM      6  N   UNL     1      14.186   6.744   1.983  0.00  0.00    -0.311 N 
ATOM     16  C   UNL     1      14.476   5.941   0.890  0.00  0.00    +0.214 C 
ATOM     31  H   UNL     1      13.270   7.173   2.054  0.00  0.00    +0.149 HD
BRANCH   6  19
ATOM     19  C   UNL     1      15.156   7.067   3.005  0.00  0.00    +0.146 C 
BRANCH  19  21
ATOM      1  S   UNL     1      15.401   8.321   5.472  0.00  0.00    -0.100 S 
ATOM     21  C   UNL     1      14.500   7.461   4.297  0.00  0.00    +0.007 A 
ATOM     24  C   UNL     1      13.208   7.223   4.709  0.00  0.00    +0.013 A 
ATOM     27  C   UNL     1      12.953   7.753   6.007  0.00  0.00    +0.008 A 
ATOM     28  C   UNL     1      14.062   8.376   6.537  0.00  0.00    +0.045 A 
ENDBRANCH  19  21
ENDBRANCH   6  19
ENDBRANCH  14  16
ENDBRANCH   8  14
TORSDOF 7
ENDMDL
MODEL 8
REMARK VINA RESULT:      -6.5      5.052     10.524
REMARK  Name = 26742941
REMARK  7 active torsions:
REMARK  status: ('A' for Active; 'I' for Inactive)
REMARK    1  A    between atoms: N_6  and  C_19
REMARK    2  A    between atoms: C_8  and  C_14
REMARK    3  A    between atoms: C_9  and  C_13
REMARK    4  A    between atoms: C_13  and  C_15
REMARK    5  A    between atoms: C_14  and  C_16
REMARK    6  A    between atoms: C_18  and  C_20
REMARK    7  A    between atoms: C_19  and  C_21
REMARK                            x       y       z     vdW  Elec       q    Type
REMARK                         _______ _______ _______ _____ _____    ______ ____
ROOT
ATOM      5  N   UNL     1      19.803   9.586  21.826  0.00  0.00    -0.316 NA
ATOM      8  C   UNL     1      21.209   7.011  21.516  0.00  0.00    +0.004 C 
ATOM      9  C   UNL     1      19.778   7.251  20.980  0.00  0.00    +0.012 C 
ATOM     10  C   UNL     1      21.938   8.360  21.624  0.00  0.00    +0.019 C 
ATOM     11  C   UNL     1      19.044   8.336  21.787  0.00  0.00    +0.085 C 
ATOM     12  C   UNL     1      21.132   9.398  22.404  0.00  0.00    +0.081 C 
ATOM     30  H   UNL     1      19.291  10.275  22.375  0.00  0.00    +0.122 HD
ENDROOT
BRANCH   9  13
ATOM     13  C   UNL     1      18.941   5.974  20.911  0.00  0.00    +0.064 C 
BRANCH  13  15
ATOM      4  O   UNL     1      16.358   5.974  18.403  0.00  0.00    -0.354 OA
ATOM      7  N   UNL     1      17.602   5.588  18.887  0.00  0.00    -0.083 NA
ATOM     15  C   UNL     1      17.705   6.173  20.084  0.00  0.00    +0.085 A 
ATOM     17  C   UNL     1      16.567   6.933  20.405  0.00  0.00    +0.076 A 
ATOM     18  C   UNL     1      15.751   6.774  19.316  0.00  0.00    +0.167 A 
BRANCH  18  20
ATOM      2  F   UNL     1      10.703   8.645  17.913  0.00  0.00    -0.205 F 
ATOM     20  C   UNL     1      14.450   7.255  18.953  0.00  0.00    +0.020 A 
ATOM     22  C   UNL     1      14.241   7.824  17.696  0.00  0.00    +0.014 A 
ATOM     23  C   UNL     1      13.392   7.158  19.858  0.00  0.00    +0.014 A 
ATOM     25  C   UNL     1      12.975   8.293  17.345  0.00  0.00    +0.039 A 
ATOM     26  C   UNL     1      12.127   7.626  19.507  0.00  0.00    +0.039 A 
ATOM     29  C   UNL     1      11.918   8.194  18.250  0.00  0.00    +0.123 A 
ENDBRANCH  18  20
ENDBRANCH  13  15
ENDBRANCH   9  13
BRANCH   8  14
ATOM     14  C   UNL     1      21.257   6.255  22.850  0.00  0.00    +0.099 C 
BRANCH  14  16
ATOM      3  O   UNL     1      22.159   4.169  23.679  0.00  0.00    -0.276 OA
ATOM      6  N   UNL     1      22.420   4.713  21.435  0.00  0.00    -0.311 N 
ATOM     16  C   UNL     1      21.985   4.933  22.734  0.00  0.00    +0.214 C 
ATOM     31  H   UNL     1      22.180   5.381  20.711  0.00  0.00    +0.149 HD
BRANCH   6  19
ATOM     19  C   UNL     1      23.146   3.528  21.037  0.00  0.00    +0.146 C 
BRANCH  19  21
ATOM      1  S   UNL     1      25.051   5.438  20.371  0.00  0.00    -0.100 S 
ATOM     21  C   UNL     1      24.385   3.865  20.257  0.00  0.00    +0.007 A 
ATOM     24  C   UNL     1      25.113   3.056  19.413  0.00  0.00    +0.013 A 
ATOM     27  C   UNL     1      26.232   3.736  18.852  0.00  0.00    +0.008 A 
ATOM     28  C   UNL     1      26.317   5.039  19.289  0.00  0.00    +0.045 A 
ENDBRANCH  19  21
ENDBRANCH   6  19
ENDBRANCH  14  16
ENDBRANCH   8  14
TORSDOF 7
ENDMDL
MODEL 9
REMARK VINA RESULT:      -6.5      5.195      7.274
REMARK  Name = 26742941
REMARK  7 active torsions:
REMARK  status: ('A' for Active; 'I' for Inactive)
REMARK    1  A    between atoms: N_6  and  C_19
REMARK    2  A    between atoms: C_8  and  C_14
REMARK    3  A    between atoms: C_9  and  C_13
REMARK    4  A    between atoms: C_13  and  C_15
REMARK    5  A    between atoms: C_14  and  C_16
REMARK    6  A    between atoms: C_18  and  C_20
REMARK    7  A    between atoms: C_19  and  C_21
REMARK                            x       y       z     vdW  Elec       q    Type
REMARK                         _______ _______ _______ _____ _____    ______ ____
ROOT
ATOM      5  N   UNL     1      16.383  13.847  16.966  0.00  0.00    -0.316 NA
ATOM      8  C   UNL     1      14.178  11.893  16.797  0.00  0.00    +0.004 C 
ATOM      9  C   UNL     1      15.125  11.981  18.017  0.00  0.00    +0.012 C 
ATOM     10  C   UNL     1      14.154  13.254  16.082  0.00  0.00    +0.019 C 
ATOM     11  C   UNL     1      16.502  12.547  17.628  0.00  0.00    +0.085 C 
ATOM     12  C   UNL     1      15.556  13.771  15.764  0.00  0.00    +0.081 C 
ATOM     30  H   UNL     1      17.312  14.184  16.717  0.00  0.00    +0.122 HD
ENDROOT
BRANCH   9  13
ATOM     13  C   UNL     1      15.281  10.648  18.752  0.00  0.00    +0.064 C 
BRANCH  13  15
ATOM      4  O   UNL     1      14.190  10.098  22.137  0.00  0.00    -0.354 OA
ATOM      7  N   UNL     1      14.943   9.764  21.019  0.00  0.00    -0.083 NA
ATOM     15  C   UNL     1      14.641  10.693  20.108  0.00  0.00    +0.085 A 
ATOM     17  C   UNL     1      13.711  11.631  20.591  0.00  0.00    +0.076 A 
ATOM     18  C   UNL     1      13.461  11.211  21.871  0.00  0.00    +0.167 A 
BRANCH  18  20
ATOM      2  F   UNL     1      10.228  13.032  26.017  0.00  0.00    -0.205 F 
ATOM     20  C   UNL     1      12.627  11.679  22.939  0.00  0.00    +0.020 A 
ATOM     22  C   UNL     1      11.300  12.032  22.686  0.00  0.00    +0.014 A 
ATOM     23  C   UNL     1      13.141  11.783  24.232  0.00  0.00    +0.014 A 
ATOM     25  C   UNL     1      10.491  12.489  23.726  0.00  0.00    +0.039 A 
ATOM     26  C   UNL     1      12.331  12.239  25.270  0.00  0.00    +0.039 A 
ATOM     29  C   UNL     1      11.006  12.592  25.018  0.00  0.00    +0.123 A 
ENDBRANCH  18  20
ENDBRANCH  13  15
ENDBRANCH   9  13
BRANCH   8  14
ATOM     14  C   UNL     1      14.526  10.767  15.815  0.00  0.00    +0.099 C 
BRANCH  14  16
ATOM      3  O   UNL     1      13.709   8.551  15.292  0.00  0.00    -0.276 OA
ATOM      6  N   UNL     1      12.643   9.801  16.935  0.00  0.00    -0.311 N 
ATOM     16  C   UNL     1      13.604   9.575  15.961  0.00  0.00    +0.214 C 
ATOM     31  H   UNL     1      12.672  10.661  17.471  0.00  0.00    +0.149 HD
BRANCH   6  19
ATOM     19  C   UNL     1      11.629   8.831  17.283  0.00  0.00    +0.146 C 
BRANCH  19  21
ATOM      1  S   UNL     1      12.933   7.154  19.073  0.00  0.00    -0.100 S 
ATOM     21  C   UNL     1      11.771   8.355  18.699  0.00  0.00    +0.007 A 
ATOM     24  C   UNL     1      11.069   8.759  19.814  0.00  0.00    +0.013 A 
ATOM     27  C   UNL     1      11.490   8.074  20.990  0.00  0.00    +0.008 A 
ATOM     28  C   UNL     1      12.498   7.172  20.729  0.00  0.00    +0.045 A 
ENDBRANCH  19  21
ENDBRANCH   6  19
ENDBRANCH  14  16
ENDBRANCH   8  14
TORSDOF 7
ENDMDL
MODEL 10
REMARK VINA RESULT:      -6.5      4.212      6.106
REMARK  Name = 26742941
REMARK  7 active torsions:
REMARK  status: ('A' for Active; 'I' for Inactive)
REMARK    1  A    between atoms: N_6  and  C_19
REMARK    2  A    between atoms: C_8  and  C_14
REMARK    3  A    between atoms: C_9  and  C_13
REMARK    4  A    between atoms: C_13  and  C_15
REMARK    5  A    between atoms: C_14  and  C_16
REMARK    6  A    between atoms: C_18  and  C_20
REMARK    7  A    between atoms: C_19  and  C_21
REMARK                            x       y       z     vdW  Elec       q    Type
REMARK                         _______ _______ _______ _____ _____    ______ ____
ROOT
ATOM      5  N   UNL     1      14.624   6.786  19.512  0.00  0.00    -0.316 NA
ATOM      8  C   UNL     1      11.908   7.809  20.045  0.00  0.00    +0.004 C 
ATOM      9  C   UNL     1      12.475   7.651  18.615  0.00  0.00    +0.012 C 
ATOM     10  C   UNL     1      12.643   6.841  20.987  0.00  0.00    +0.019 C 
ATOM     11  C   UNL     1      14.011   7.751  18.598  0.00  0.00    +0.085 C 
ATOM     12  C   UNL     1      14.162   6.970  20.886  0.00  0.00    +0.081 C 
ATOM     30  H   UNL     1      15.637   6.889  19.480  0.00  0.00    +0.122 HD
ENDROOT
BRANCH   9  13
ATOM     13  C   UNL     1      11.862   8.632  17.614  0.00  0.00    +0.064 C 
BRANCH  13  15
ATOM      4  O   UNL     1      14.183   9.410  14.975  0.00  0.00    -0.354 OA
ATOM      7  N   UNL     1      13.192   8.623  15.548  0.00  0.00    -0.083 NA
ATOM     15  C   UNL     1      12.908   9.217  16.711  0.00  0.00    +0.085 A 
ATOM     17  C   UNL     1      13.680  10.372  16.922  0.00  0.00    +0.076 A 
ATOM     18  C   UNL     1      14.464  10.448  15.801  0.00  0.00    +0.167 A 
BRANCH  18  20
ATOM      2  F   UNL     1      18.385  13.964  14.006  0.00  0.00    -0.205 F 
ATOM     20  C   UNL     1      15.476  11.354  15.339  0.00  0.00    +0.020 A 
ATOM     22  C   UNL     1      16.099  12.221  16.237  0.00  0.00    +0.014 A 
ATOM     23  C   UNL     1      15.836  11.369  13.991  0.00  0.00    +0.014 A 
ATOM     25  C   UNL     1      17.082  13.103  15.786  0.00  0.00    +0.039 A 
ATOM     26  C   UNL     1      16.819  12.250  13.542  0.00  0.00    +0.039 A 
ATOM     29  C   UNL     1      17.442  13.117  14.439  0.00  0.00    +0.123 A 
ENDBRANCH  18  20
ENDBRANCH  13  15
ENDBRANCH   9  13
BRANCH   8  14
ATOM     14  C   UNL     1      11.965   9.244  20.584  0.00  0.00    +0.099 C 
BRANCH  14  16
ATOM      3  O   UNL     1      10.203   8.688  22.145  0.00  0.00    -0.276 OA
ATOM      6  N   UNL     1      11.600  10.489  22.596  0.00  0.00    -0.311 N 
ATOM     16  C   UNL     1      11.146   9.415  21.845  0.00  0.00    +0.214 C 
ATOM     31  H   UNL     1      12.422  10.997  22.289  0.00  0.00    +0.149 HD
BRANCH   6  19
ATOM     19  C   UNL     1      11.000  10.884  23.851  0.00  0.00    +0.146 C 
BRANCH  19  21
ATOM      1  S   UNL     1      10.806  13.294  22.482  0.00  0.00    -0.100 S 
ATOM     21  C   UNL     1      10.771  12.366  23.921  0.00  0.00    +0.007 A 
ATOM     24  C   UNL     1      10.520  13.144  25.030  0.00  0.00    +0.013 A 
ATOM     27  C   UNL     1      10.356  14.519  24.695  0.00  0.00    +0.008 A 
ATOM     28  C   UNL     1      10.487  14.740  23.341  0.00  0.00    +0.045 A 
ENDBRANCH  19  21
ENDBRANCH   6  19
ENDBRANCH  14  16
ENDBRANCH   8  14
TORSDOF 7
ENDMDL
