MODEL 1
REMARK VINA RESULT:      -7.1      0.000      0.000
REMARK  Name = 7144017
REMARK  7 active torsions:
REMARK  status: ('A' for Active; 'I' for Inactive)
REMARK    1  A    between atoms: S_1  and  C_29
REMARK    2  A    between atoms: S_1  and  C_31
REMARK    3  A    between atoms: O_3  and  C_26
REMARK    4  A    between atoms: O_3  and  C_30
REMARK    5  A    between atoms: N_4  and  C_13
REMARK    6  A    between atoms: C_13  and  C_18
REMARK    7  A    between atoms: C_16  and  C_19
REMARK                            x       y       z     vdW  Elec       q    Type
REMARK                         _______ _______ _______ _____ _____    ______ ____
ROOT
ATOM      2  O   UNL     1      -6.010 -11.887  11.080  0.00  0.00    -0.267 OA
ATOM      4  N   UNL     1      -3.172 -11.305  15.175  0.00  0.00    -0.297 NA
ATOM      5  N   UNL     1      -3.927 -11.879  12.129  0.00  0.00    -0.311 N 
ATOM      6  C   UNL     1      -3.313 -13.516  14.001  0.00  0.00    +0.024 C 
ATOM      7  C   UNL     1      -1.674 -11.857  13.253  0.00  0.00    +0.050 C 
ATOM      8  C   UNL     1      -1.892 -13.352  13.478  0.00  0.00    +0.017 C 
ATOM      9  C   UNL     1      -3.485 -12.732  15.319  0.00  0.00    +0.090 C 
ATOM     10  C   UNL     1      -1.837 -11.104  14.593  0.00  0.00    +0.094 C 
ATOM     11  C   UNL     1      -4.296 -13.066  12.913  0.00  0.00    +0.130 C 
ATOM     12  C   UNL     1      -2.649 -11.321  12.221  0.00  0.00    +0.026 A 
ATOM     14  C   UNL     1      -2.296 -10.307  11.414  0.00  0.00    +0.022 A 
ATOM     15  C   UNL     1      -4.885 -11.400  11.213  0.00  0.00    +0.259 A 
ATOM     16  C   UNL     1      -4.473 -10.241  10.348  0.00  0.00    +0.047 A 
ATOM     17  C   UNL     1      -3.227  -9.759  10.470  0.00  0.00    +0.015 A 
ENDROOT
BRANCH  16  19
ATOM     19  C   UNL     1      -5.410  -9.634   9.387  0.00  0.00    -0.013 A 
ATOM     22  C   UNL     1      -5.454 -10.090   8.069  0.00  0.00    +0.010 A 
ATOM     23  C   UNL     1      -6.256  -8.601   9.794  0.00  0.00    +0.010 A 
ATOM     27  C   UNL     1      -6.342  -9.515   7.160  0.00  0.00    +0.015 A 
ATOM     28  C   UNL     1      -7.144  -8.026   8.885  0.00  0.00    +0.015 A 
ATOM     29  C   UNL     1      -7.187  -8.483   7.568  0.00  0.00    +0.008 A 
BRANCH  29   1
ATOM      1  S   UNL     1      -8.319  -7.746   6.406  0.00  0.00    -0.129 S 
ATOM     31  C   UNL     1      -9.146  -6.500   7.434  0.00  0.00    +0.090 C 
ENDBRANCH  29   1
ENDBRANCH  16  19
BRANCH   4  13
ATOM     13  C   UNL     1      -3.297 -10.610  16.453  0.00  0.00    +0.119 C 
BRANCH  13  18
ATOM     18  C   UNL     1      -4.737 -10.367  16.821  0.00  0.00    -0.033 A 
ATOM     20  C   UNL     1      -5.598  -9.816  15.883  0.00  0.00    +0.008 A 
ATOM     21  C   UNL     1      -5.181 -10.698  18.094  0.00  0.00    +0.008 A 
ATOM     24  C   UNL     1      -6.932  -9.592  16.226  0.00  0.00    +0.046 A 
ATOM     25  C   UNL     1      -6.515 -10.473  18.435  0.00  0.00    +0.046 A 
ATOM     26  C   UNL     1      -7.391  -9.919  17.502  0.00  0.00    +0.120 A 
BRANCH  26   3
ATOM      3  O   UNL     1      -8.692  -9.701  17.833  0.00  0.00    -0.495 OA
ATOM     30  C   UNL     1      -9.336  -8.580  17.227  0.00  0.00    +0.277 C 
ENDBRANCH  26   3
ENDBRANCH  13  18
ENDBRANCH   4  13
TORSDOF 5
ENDMDL
MODEL 2
REMARK VINA RESULT:      -6.6     19.173     22.303
REMARK  Name = 7144017
REMARK  7 active torsions:
REMARK  status: ('A' for Active; 'I' for Inactive)
REMARK    1  A    between atoms: S_1  and  C_29
REMARK    2  A    between atoms: S_1  and  C_31
REMARK    3  A    between atoms: O_3  and  C_26
REMARK    4  A    between atoms: O_3  and  C_30
REMARK    5  A    between atoms: N_4  and  C_13
REMARK    6  A    between atoms: C_13  and  C_18
REMARK    7  A    between atoms: C_16  and  C_19
REMARK                            x       y       z     vdW  Elec       q    Type
REMARK                         _______ _______ _______ _____ _____    ______ ____
ROOT
ATOM      2  O   UNL     1      -6.551   9.749   5.230  0.00  0.00    -0.267 OA
ATOM      4  N   UNL     1      -1.756  10.387   3.906  0.00  0.00    -0.297 NA
ATOM      5  N   UNL     1      -4.280   9.312   5.532  0.00  0.00    -0.311 N 
ATOM      6  C   UNL     1      -2.590  11.137   6.148  0.00  0.00    +0.024 C 
ATOM      7  C   UNL     1      -1.831   8.826   5.856  0.00  0.00    +0.050 C 
ATOM      8  C   UNL     1      -1.837  10.002   6.830  0.00  0.00    +0.017 C 
ATOM      9  C   UNL     1      -1.887  11.521   4.829  0.00  0.00    +0.090 C 
ATOM     10  C   UNL     1      -1.107   9.238   4.554  0.00  0.00    +0.094 C 
ATOM     11  C   UNL     1      -4.047  10.706   5.937  0.00  0.00    +0.130 C 
ATOM     12  C   UNL     1      -3.247   8.372   5.553  0.00  0.00    +0.026 A 
ATOM     14  C   UNL     1      -3.505   7.081   5.289  0.00  0.00    +0.022 A 
ATOM     15  C   UNL     1      -5.608   8.955   5.225  0.00  0.00    +0.259 A 
ATOM     16  C   UNL     1      -5.860   7.508   4.900  0.00  0.00    +0.047 A 
ATOM     17  C   UNL     1      -4.831   6.649   4.952  0.00  0.00    +0.015 A 
ENDROOT
BRANCH  16  19
ATOM     19  C   UNL     1      -7.203   7.032   4.522  0.00  0.00    -0.013 A 
ATOM     22  C   UNL     1      -7.850   7.575   3.411  0.00  0.00    +0.010 A 
ATOM     23  C   UNL     1      -7.829   6.038   5.275  0.00  0.00    +0.010 A 
ATOM     27  C   UNL     1      -9.120   7.124   3.054  0.00  0.00    +0.015 A 
ATOM     28  C   UNL     1      -9.100   5.587   4.918  0.00  0.00    +0.015 A 
ATOM     29  C   UNL     1      -9.745   6.130   3.807  0.00  0.00    +0.008 A 
BRANCH  29   1
ATOM      1  S   UNL     1     -11.369   5.556   3.352  0.00  0.00    -0.129 S 
ATOM     31  C   UNL     1     -12.081   5.140   4.969  0.00  0.00    +0.090 C 
ENDBRANCH  29   1
ENDBRANCH  16  19
BRANCH   4  13
ATOM     13  C   UNL     1      -1.040  10.779   2.694  0.00  0.00    +0.119 C 
BRANCH  13  18
ATOM     18  C   UNL     1      -1.825  10.453   1.451  0.00  0.00    -0.033 A 
ATOM     20  C   UNL     1      -3.108  10.959   1.300  0.00  0.00    +0.008 A 
ATOM     21  C   UNL     1      -1.252   9.651   0.474  0.00  0.00    +0.008 A 
ATOM     24  C   UNL     1      -3.834  10.656   0.147  0.00  0.00    +0.046 A 
ATOM     25  C   UNL     1      -1.979   9.348  -0.679  0.00  0.00    +0.046 A 
ATOM     26  C   UNL     1      -3.269   9.851  -0.842  0.00  0.00    +0.120 A 
BRANCH  26   3
ATOM      3  O   UNL     1      -3.979   9.558  -1.966  0.00  0.00    -0.495 OA
ATOM     30  C   UNL     1      -5.399   9.492  -1.838  0.00  0.00    +0.277 C 
ENDBRANCH  26   3
ENDBRANCH  13  18
ENDBRANCH   4  13
TORSDOF 5
ENDMDL
MODEL 3
REMARK VINA RESULT:      -6.6     23.384     25.335
REMARK  Name = 7144017
REMARK  7 active torsions:
REMARK  status: ('A' for Active; 'I' for Inactive)
REMARK    1  A    between atoms: S_1  and  C_29
REMARK    2  A    between atoms: S_1  and  C_31
REMARK    3  A    between atoms: O_3  and  C_26
REMARK    4  A    between atoms: O_3  and  C_30
REMARK    5  A    between atoms: N_4  and  C_13
REMARK    6  A    between atoms: C_13  and  C_18
REMARK    7  A    between atoms: C_16  and  C_19
REMARK                            x       y       z     vdW  Elec       q    Type
REMARK                         _______ _______ _______ _____ _____    ______ ____
ROOT
ATOM      2  O   UNL     1      10.208   3.880   3.222  0.00  0.00    -0.267 OA
ATOM      4  N   UNL     1       9.284   8.047   5.855  0.00  0.00    -0.297 NA
ATOM      5  N   UNL     1      10.905   5.568   4.672  0.00  0.00    -0.311 N 
ATOM      6  C   UNL     1       9.889   5.900   7.001  0.00  0.00    +0.024 C 
ATOM      7  C   UNL     1      11.668   7.395   6.227  0.00  0.00    +0.050 C 
ATOM      8  C   UNL     1      11.261   6.454   7.359  0.00  0.00    +0.017 C 
ATOM      9  C   UNL     1       8.874   7.054   6.856  0.00  0.00    +0.090 C 
ATOM     10  C   UNL     1      10.642   8.547   6.119  0.00  0.00    +0.094 C 
ATOM     11  C   UNL     1      10.013   5.060   5.723  0.00  0.00    +0.130 C 
ATOM     12  C   UNL     1      11.762   6.645   4.912  0.00  0.00    +0.026 A 
ATOM     14  C   UNL     1      12.649   7.022   3.976  0.00  0.00    +0.022 A 
ATOM     15  C   UNL     1      10.925   4.855   3.457  0.00  0.00    +0.259 A 
ATOM     16  C   UNL     1      11.904   5.323   2.415  0.00  0.00    +0.047 A 
ATOM     17  C   UNL     1      12.713   6.352   2.709  0.00  0.00    +0.015 A 
ENDROOT
BRANCH  16  19
ATOM     19  C   UNL     1      11.978   4.678   1.092  0.00  0.00    -0.013 A 
ATOM     22  C   UNL     1      11.016   4.959   0.122  0.00  0.00    +0.010 A 
ATOM     23  C   UNL     1      13.012   3.783   0.808  0.00  0.00    +0.010 A 
ATOM     27  C   UNL     1      11.087   4.349  -1.130  0.00  0.00    +0.015 A 
ATOM     28  C   UNL     1      13.083   3.173  -0.444  0.00  0.00    +0.015 A 
ATOM     29  C   UNL     1      12.121   3.455  -1.413  0.00  0.00    +0.008 A 
BRANCH  29   1
ATOM      1  S   UNL     1      12.210   2.673  -3.011  0.00  0.00    -0.129 S 
ATOM     31  C   UNL     1      10.512   2.879  -3.619  0.00  0.00    +0.090 C 
ENDBRANCH  29   1
ENDBRANCH  16  19
BRANCH   4  13
ATOM     13  C   UNL     1       8.326   9.147   5.786  0.00  0.00    +0.119 C 
BRANCH  13  18
ATOM     18  C   UNL     1       7.738   9.292   4.407  0.00  0.00    -0.033 A 
ATOM     20  C   UNL     1       6.549   9.987   4.241  0.00  0.00    +0.008 A 
ATOM     21  C   UNL     1       8.394   8.726   3.323  0.00  0.00    +0.008 A 
ATOM     24  C   UNL     1       6.005  10.120   2.963  0.00  0.00    +0.046 A 
ATOM     25  C   UNL     1       7.849   8.859   2.046  0.00  0.00    +0.046 A 
ATOM     26  C   UNL     1       6.654   9.555   1.865  0.00  0.00    +0.120 A 
BRANCH  26   3
ATOM      3  O   UNL     1       6.122   9.687   0.620  0.00  0.00    -0.495 OA
ATOM     30  C   UNL     1       4.714   9.496   0.492  0.00  0.00    +0.277 C 
ENDBRANCH  26   3
ENDBRANCH  13  18
ENDBRANCH   4  13
TORSDOF 5
ENDMDL
MODEL 4
REMARK VINA RESULT:      -6.4     24.618     26.651
REMARK  Name = 7144017
REMARK  7 active torsions:
REMARK  status: ('A' for Active; 'I' for Inactive)
REMARK    1  A    between atoms: S_1  and  C_29
REMARK    2  A    between atoms: S_1  and  C_31
REMARK    3  A    between atoms: O_3  and  C_26
REMARK    4  A    between atoms: O_3  and  C_30
REMARK    5  A    between atoms: N_4  and  C_13
REMARK    6  A    between atoms: C_13  and  C_18
REMARK    7  A    between atoms: C_16  and  C_19
REMARK                            x       y       z     vdW  Elec       q    Type
REMARK                         _______ _______ _______ _____ _____    ______ ____
ROOT
ATOM      2  O   UNL     1      12.112   7.868   2.270  0.00  0.00    -0.267 OA
ATOM      4  N   UNL     1      13.513   4.204  -0.855  0.00  0.00    -0.297 NA
ATOM      5  N   UNL     1      12.688   5.644   1.868  0.00  0.00    -0.311 N 
ATOM      6  C   UNL     1      15.003   4.945   1.021  0.00  0.00    +0.024 C 
ATOM      7  C   UNL     1      13.296   3.239   1.439  0.00  0.00    +0.050 C 
ATOM      8  C   UNL     1      14.727   3.652   1.777  0.00  0.00    +0.017 C 
ATOM      9  C   UNL     1      14.842   4.714  -0.497  0.00  0.00    +0.090 C 
ATOM     10  C   UNL     1      13.173   3.000  -0.083  0.00  0.00    +0.094 C 
ATOM     11  C   UNL     1      14.068   6.039   1.553  0.00  0.00    +0.130 C 
ATOM     12  C   UNL     1      12.309   4.299   1.890  0.00  0.00    +0.026 A 
ATOM     14  C   UNL     1      11.074   3.954   2.290  0.00  0.00    +0.022 A 
ATOM     15  C   UNL     1      11.804   6.675   2.244  0.00  0.00    +0.259 A 
ATOM     16  C   UNL     1      10.417   6.259   2.653  0.00  0.00    +0.047 A 
ATOM     17  C   UNL     1      10.117   4.952   2.670  0.00  0.00    +0.015 A 
ENDROOT
BRANCH  16  19
ATOM     19  C   UNL     1       9.398   7.257   3.023  0.00  0.00    -0.013 A 
ATOM     22  C   UNL     1       8.996   7.386   4.353  0.00  0.00    +0.010 A 
ATOM     23  C   UNL     1       8.833   8.075   2.043  0.00  0.00    +0.010 A 
ATOM     27  C   UNL     1       8.032   8.332   4.703  0.00  0.00    +0.015 A 
ATOM     28  C   UNL     1       7.869   9.020   2.393  0.00  0.00    +0.015 A 
ATOM     29  C   UNL     1       7.469   9.149   3.723  0.00  0.00    +0.008 A 
BRANCH  29   1
ATOM      1  S   UNL     1       6.235  10.355   4.169  0.00  0.00    -0.129 S 
ATOM     31  C   UNL     1       5.073  10.226   2.780  0.00  0.00    +0.090 C 
ENDBRANCH  29   1
ENDBRANCH  16  19
BRANCH   4  13
ATOM     13  C   UNL     1      13.420   3.950  -2.291  0.00  0.00    +0.119 C 
BRANCH  13  18
ATOM     18  C   UNL     1      12.011   4.109  -2.797  0.00  0.00    -0.033 A 
ATOM     20  C   UNL     1      11.397   5.352  -2.732  0.00  0.00    +0.008 A 
ATOM     21  C   UNL     1      11.345   3.010  -3.321  0.00  0.00    +0.008 A 
ATOM     24  C   UNL     1      10.091   5.499  -3.201  0.00  0.00    +0.046 A 
ATOM     25  C   UNL     1      10.039   3.157  -3.790  0.00  0.00    +0.046 A 
ATOM     26  C   UNL     1       9.412   4.401  -3.729  0.00  0.00    +0.120 A 
BRANCH  26   3
ATOM      3  O   UNL     1       8.139   4.547  -4.187  0.00  0.00    -0.495 OA
ATOM     30  C   UNL     1       7.551   5.842  -4.068  0.00  0.00    +0.277 C 
ENDBRANCH  26   3
ENDBRANCH  13  18
ENDBRANCH   4  13
TORSDOF 5
ENDMDL
MODEL 5
REMARK VINA RESULT:      -6.3     22.045     25.688
REMARK  Name = 7144017
REMARK  7 active torsions:
REMARK  status: ('A' for Active; 'I' for Inactive)
REMARK    1  A    between atoms: S_1  and  C_29
REMARK    2  A    between atoms: S_1  and  C_31
REMARK    3  A    between atoms: O_3  and  C_26
REMARK    4  A    between atoms: O_3  and  C_30
REMARK    5  A    between atoms: N_4  and  C_13
REMARK    6  A    between atoms: C_13  and  C_18
REMARK    7  A    between atoms: C_16  and  C_19
REMARK                            x       y       z     vdW  Elec       q    Type
REMARK                         _______ _______ _______ _____ _____    ______ ____
ROOT
ATOM      2  O   UNL     1      12.430  -7.760  33.149  0.00  0.00    -0.267 OA
ATOM      4  N   UNL     1       7.510  -6.965  33.710  0.00  0.00    -0.297 NA
ATOM      5  N   UNL     1      10.652  -6.470  33.934  0.00  0.00    -0.311 N 
ATOM      6  C   UNL     1       8.998  -7.319  35.697  0.00  0.00    +0.024 C 
ATOM      7  C   UNL     1       8.738  -5.066  34.773  0.00  0.00    +0.050 C 
ATOM      8  C   UNL     1       8.875  -5.850  36.076  0.00  0.00    +0.017 C 
ATOM      9  C   UNL     1       7.746  -7.770  34.915  0.00  0.00    +0.090 C 
ATOM     10  C   UNL     1       7.468  -5.529  34.023  0.00  0.00    +0.094 C 
ATOM     11  C   UNL     1      10.294  -7.518  34.900  0.00  0.00    +0.130 C 
ATOM     12  C   UNL     1       9.966  -5.254  33.901  0.00  0.00    +0.026 A 
ATOM     14  C   UNL     1      10.380  -4.268  33.088  0.00  0.00    +0.022 A 
ATOM     15  C   UNL     1      11.779  -6.713  33.123  0.00  0.00    +0.259 A 
ATOM     16  C   UNL     1      12.198  -5.603  32.198  0.00  0.00    +0.047 A 
ATOM     17  C   UNL     1      11.510  -4.452  32.223  0.00  0.00    +0.015 A 
ENDROOT
BRANCH  16  19
ATOM     19  C   UNL     1      13.335  -5.766  31.275  0.00  0.00    -0.013 A 
ATOM     22  C   UNL     1      13.266  -6.698  30.239  0.00  0.00    +0.010 A 
ATOM     23  C   UNL     1      14.482  -4.987  31.435  0.00  0.00    +0.010 A 
ATOM     27  C   UNL     1      14.342  -6.852  29.365  0.00  0.00    +0.015 A 
ATOM     28  C   UNL     1      15.558  -5.140  30.561  0.00  0.00    +0.015 A 
ATOM     29  C   UNL     1      15.488  -6.073  29.526  0.00  0.00    +0.008 A 
BRANCH  29   1
ATOM      1  S   UNL     1      16.864  -6.270  28.411  0.00  0.00    -0.129 S 
ATOM     31  C   UNL     1      16.021  -6.644  26.847  0.00  0.00    +0.090 C 
ENDBRANCH  29   1
ENDBRANCH  16  19
BRANCH   4  13
ATOM     13  C   UNL     1       6.289  -7.389  33.029  0.00  0.00    +0.119 C 
BRANCH  13  18
ATOM     18  C   UNL     1       6.501  -8.648  32.231  0.00  0.00    -0.033 A 
ATOM     20  C   UNL     1       6.753  -8.560  30.869  0.00  0.00    +0.008 A 
ATOM     21  C   UNL     1       6.440  -9.879  32.869  0.00  0.00    +0.008 A 
ATOM     24  C   UNL     1       6.949  -9.728  30.131  0.00  0.00    +0.046 A 
ATOM     25  C   UNL     1       6.636 -11.046  32.130  0.00  0.00    +0.046 A 
ATOM     26  C   UNL     1       6.890 -10.971  30.761  0.00  0.00    +0.120 A 
BRANCH  26   3
ATOM      3  O   UNL     1       7.082 -12.108  30.039  0.00  0.00    -0.495 OA
ATOM     30  C   UNL     1       6.009 -13.049  30.013  0.00  0.00    +0.277 C 
ENDBRANCH  26   3
ENDBRANCH  13  18
ENDBRANCH   4  13
TORSDOF 5
ENDMDL
MODEL 6
REMARK VINA RESULT:      -6.3      2.991      6.921
REMARK  Name = 7144017
REMARK  7 active torsions:
REMARK  status: ('A' for Active; 'I' for Inactive)
REMARK    1  A    between atoms: S_1  and  C_29
REMARK    2  A    between atoms: S_1  and  C_31
REMARK    3  A    between atoms: O_3  and  C_26
REMARK    4  A    between atoms: O_3  and  C_30
REMARK    5  A    between atoms: N_4  and  C_13
REMARK    6  A    between atoms: C_13  and  C_18
REMARK    7  A    between atoms: C_16  and  C_19
REMARK                            x       y       z     vdW  Elec       q    Type
REMARK                         _______ _______ _______ _____ _____    ______ ____
ROOT
ATOM      2  O   UNL     1      -7.849  -8.880  17.483  0.00  0.00    -0.267 OA
ATOM      4  N   UNL     1      -4.040 -11.623  15.717  0.00  0.00    -0.297 NA
ATOM      5  N   UNL     1      -6.767 -10.929  17.218  0.00  0.00    -0.311 N 
ATOM      6  C   UNL     1      -4.440 -11.400  18.182  0.00  0.00    +0.024 C 
ATOM      7  C   UNL     1      -5.611 -13.146  16.924  0.00  0.00    +0.050 C 
ATOM      8  C   UNL     1      -4.924 -12.843  18.254  0.00  0.00    +0.017 C 
ATOM      9  C   UNL     1      -3.456 -11.231  17.005  0.00  0.00    +0.090 C 
ATOM     10  C   UNL     1      -4.595 -12.984  15.770  0.00  0.00    +0.094 C 
ATOM     11  C   UNL     1      -5.658 -10.474  18.070  0.00  0.00    +0.130 C 
ATOM     12  C   UNL     1      -6.803 -12.231  16.713  0.00  0.00    +0.026 A 
ATOM     14  C   UNL     1      -7.878 -12.660  16.032  0.00  0.00    +0.022 A 
ATOM     15  C   UNL     1      -7.830 -10.024  17.025  0.00  0.00    +0.259 A 
ATOM     16  C   UNL     1      -9.005 -10.522  16.228  0.00  0.00    +0.047 A 
ATOM     17  C   UNL     1      -8.989 -11.788  15.783  0.00  0.00    +0.015 A 
ENDROOT
BRANCH  16  19
ATOM     19  C   UNL     1     -10.151  -9.646  15.928  0.00  0.00    -0.013 A 
ATOM     22  C   UNL     1     -11.145  -9.444  16.887  0.00  0.00    +0.010 A 
ATOM     23  C   UNL     1     -10.245  -9.019  14.685  0.00  0.00    +0.010 A 
ATOM     27  C   UNL     1     -12.230  -8.614  16.603  0.00  0.00    +0.015 A 
ATOM     28  C   UNL     1     -11.330  -8.189  14.401  0.00  0.00    +0.015 A 
ATOM     29  C   UNL     1     -12.322  -7.987  15.360  0.00  0.00    +0.008 A 
BRANCH  29   1
ATOM      1  S   UNL     1     -13.710  -6.930  14.997  0.00  0.00    -0.129 S 
ATOM     31  C   UNL     1     -12.894  -5.497  14.238  0.00  0.00    +0.090 C 
ENDBRANCH  29   1
ENDBRANCH  16  19
BRANCH   4  13
ATOM     13  C   UNL     1      -3.062 -11.498  14.639  0.00  0.00    +0.119 C 
BRANCH  13  18
ATOM     18  C   UNL     1      -3.645 -10.816  13.430  0.00  0.00    -0.033 A 
ATOM     20  C   UNL     1      -4.973 -10.415  13.445  0.00  0.00    +0.008 A 
ATOM     21  C   UNL     1      -2.845 -10.600  12.316  0.00  0.00    +0.008 A 
ATOM     24  C   UNL     1      -5.512  -9.784  12.324  0.00  0.00    +0.046 A 
ATOM     25  C   UNL     1      -3.385  -9.969  11.195  0.00  0.00    +0.046 A 
ATOM     26  C   UNL     1      -4.718  -9.561  11.199  0.00  0.00    +0.120 A 
BRANCH  26   3
ATOM      3  O   UNL     1      -5.246  -8.944  10.106  0.00  0.00    -0.495 OA
ATOM     30  C   UNL     1      -4.541  -9.092   8.874  0.00  0.00    +0.277 C 
ENDBRANCH  26   3
ENDBRANCH  13  18
ENDBRANCH   4  13
TORSDOF 5
ENDMDL
MODEL 7
REMARK VINA RESULT:      -6.3      3.068      5.965
REMARK  Name = 7144017
REMARK  7 active torsions:
REMARK  status: ('A' for Active; 'I' for Inactive)
REMARK    1  A    between atoms: S_1  and  C_29
REMARK    2  A    between atoms: S_1  and  C_31
REMARK    3  A    between atoms: O_3  and  C_26
REMARK    4  A    between atoms: O_3  and  C_30
REMARK    5  A    between atoms: N_4  and  C_13
REMARK    6  A    between atoms: C_13  and  C_18
REMARK    7  A    between atoms: C_16  and  C_19
REMARK                            x       y       z     vdW  Elec       q    Type
REMARK                         _______ _______ _______ _____ _____    ______ ____
ROOT
ATOM      2  O   UNL     1      -7.127 -12.334  14.339  0.00  0.00    -0.267 OA
ATOM      4  N   UNL     1      -9.467 -10.868  18.525  0.00  0.00    -0.297 NA
ATOM      5  N   UNL     1      -7.129 -11.935  16.636  0.00  0.00    -0.311 N 
ATOM      6  C   UNL     1      -8.636 -13.219  18.263  0.00  0.00    +0.024 C 
ATOM      7  C   UNL     1      -7.121 -11.494  19.115  0.00  0.00    +0.050 C 
ATOM      8  C   UNL     1      -7.523 -12.959  19.269  0.00  0.00    +0.017 C 
ATOM      9  C   UNL     1      -9.835 -12.289  18.549  0.00  0.00    +0.090 C 
ATOM     10  C   UNL     1      -8.337 -10.590  19.424  0.00  0.00    +0.094 C 
ATOM     11  C   UNL     1      -8.075 -13.040  16.846  0.00  0.00    +0.130 C 
ATOM     12  C   UNL     1      -6.601 -11.222  17.716  0.00  0.00    +0.026 A 
ATOM     14  C   UNL     1      -5.654 -10.292  17.510  0.00  0.00    +0.022 A 
ATOM     15  C   UNL     1      -6.709 -11.703  15.311  0.00  0.00    +0.259 A 
ATOM     16  C   UNL     1      -5.673 -10.631  15.109  0.00  0.00    +0.047 A 
ATOM     17  C   UNL     1      -5.191  -9.992  16.186  0.00  0.00    +0.015 A 
ENDROOT
BRANCH  16  19
ATOM     19  C   UNL     1      -5.194 -10.276  13.762  0.00  0.00    -0.013 A 
ATOM     22  C   UNL     1      -3.925 -10.677  13.343  0.00  0.00    +0.010 A 
ATOM     23  C   UNL     1      -6.010  -9.537  12.903  0.00  0.00    +0.010 A 
ATOM     27  C   UNL     1      -3.472 -10.340  12.067  0.00  0.00    +0.015 A 
ATOM     28  C   UNL     1      -5.557  -9.201  11.627  0.00  0.00    +0.015 A 
ATOM     29  C   UNL     1      -4.288  -9.602  11.209  0.00  0.00    +0.008 A 
BRANCH  29   1
ATOM      1  S   UNL     1      -3.709  -9.171   9.581  0.00  0.00    -0.129 S 
ATOM     31  C   UNL     1      -4.855 -10.098   8.523  0.00  0.00    +0.090 C 
ENDBRANCH  29   1
ENDBRANCH  16  19
BRANCH   4  13
ATOM     13  C   UNL     1     -10.615 -10.025  18.851  0.00  0.00    +0.119 C 
BRANCH  13  18
ATOM     18  C   UNL     1     -10.878  -8.999  17.781  0.00  0.00    -0.033 A 
ATOM     20  C   UNL     1     -12.154  -8.880  17.247  0.00  0.00    +0.008 A 
ATOM     21  C   UNL     1      -9.841  -8.188  17.343  0.00  0.00    +0.008 A 
ATOM     24  C   UNL     1     -12.396  -7.929  16.255  0.00  0.00    +0.046 A 
ATOM     25  C   UNL     1     -10.085  -7.238  16.351  0.00  0.00    +0.046 A 
ATOM     26  C   UNL     1     -11.362  -7.108  15.807  0.00  0.00    +0.120 A 
BRANCH  26   3
ATOM      3  O   UNL     1     -11.601  -6.181  14.840  0.00  0.00    -0.495 OA
ATOM     30  C   UNL     1     -12.673  -6.448  13.936  0.00  0.00    +0.277 C 
ENDBRANCH  26   3
ENDBRANCH  13  18
ENDBRANCH   4  13
TORSDOF 5
ENDMDL
MODEL 8
REMARK VINA RESULT:      -6.3     28.276     30.627
REMARK  Name = 7144017
REMARK  7 active torsions:
REMARK  status: ('A' for Active; 'I' for Inactive)
REMARK    1  A    between atoms: S_1  and  C_29
REMARK    2  A    between atoms: S_1  and  C_31
REMARK    3  A    between atoms: O_3  and  C_26
REMARK    4  A    between atoms: O_3  and  C_30
REMARK    5  A    between atoms: N_4  and  C_13
REMARK    6  A    between atoms: C_13  and  C_18
REMARK    7  A    between atoms: C_16  and  C_19
REMARK                            x       y       z     vdW  Elec       q    Type
REMARK                         _______ _______ _______ _____ _____    ______ ____
ROOT
ATOM      2  O   UNL     1      16.035   6.109  18.768  0.00  0.00    -0.267 OA
ATOM      4  N   UNL     1      13.454  10.250  17.607  0.00  0.00    -0.297 NA
ATOM      5  N   UNL     1      14.582   7.835  19.359  0.00  0.00    -0.311 N 
ATOM      6  C   UNL     1      12.279   8.138  18.276  0.00  0.00    +0.024 C 
ATOM      7  C   UNL     1      13.023   9.703  20.007  0.00  0.00    +0.050 C 
ATOM      8  C   UNL     1      11.894   8.753  19.615  0.00  0.00    +0.017 C 
ATOM      9  C   UNL     1      12.456   9.246  17.217  0.00  0.00    +0.090 C 
ATOM     10  C   UNL     1      13.163  10.809  18.936  0.00  0.00    +0.094 C 
ATOM     11  C   UNL     1      13.547   7.295  18.465  0.00  0.00    +0.130 C 
ATOM     12  C   UNL     1      14.331   8.949  20.164  0.00  0.00    +0.026 A 
ATOM     14  C   UNL     1      15.249   9.357  21.055  0.00  0.00    +0.022 A 
ATOM     15  C   UNL     1      15.791   7.115  19.437  0.00  0.00    +0.259 A 
ATOM     16  C   UNL     1      16.814   7.618  20.419  0.00  0.00    +0.047 A 
ATOM     17  C   UNL     1      16.509   8.682  21.176  0.00  0.00    +0.015 A 
ENDROOT
BRANCH  16  19
ATOM     19  C   UNL     1      18.130   6.968  20.551  0.00  0.00    -0.013 A 
ATOM     22  C   UNL     1      18.357   5.723  19.963  0.00  0.00    +0.010 A 
ATOM     23  C   UNL     1      19.151   7.597  21.266  0.00  0.00    +0.010 A 
ATOM     27  C   UNL     1      19.603   5.108  20.088  0.00  0.00    +0.015 A 
ATOM     28  C   UNL     1      20.396   6.982  21.391  0.00  0.00    +0.015 A 
ATOM     29  C   UNL     1      20.623   5.738  20.802  0.00  0.00    +0.008 A 
BRANCH  29   1
ATOM      1  S   UNL     1      22.213   4.952  20.964  0.00  0.00    -0.129 S 
ATOM     31  C   UNL     1      22.124   4.282  22.649  0.00  0.00    +0.090 C 
ENDBRANCH  29   1
ENDBRANCH  16  19
BRANCH   4  13
ATOM     13  C   UNL     1      13.553  11.307  16.605  0.00  0.00    +0.119 C 
BRANCH  13  18
ATOM     18  C   UNL     1      14.985  11.620  16.261  0.00  0.00    -0.033 A 
ATOM     20  C   UNL     1      15.754  12.363  17.146  0.00  0.00    +0.008 A 
ATOM     21  C   UNL     1      15.515  11.163  15.063  0.00  0.00    +0.008 A 
ATOM     24  C   UNL     1      17.081  12.653  16.826  0.00  0.00    +0.046 A 
ATOM     25  C   UNL     1      16.842  11.454  14.744  0.00  0.00    +0.046 A 
ATOM     26  C   UNL     1      17.625  12.199  15.624  0.00  0.00    +0.120 A 
BRANCH  26   3
ATOM      3  O   UNL     1      18.919  12.482  15.315  0.00  0.00    -0.495 OA
ATOM     30  C   UNL     1      19.563  11.625  14.372  0.00  0.00    +0.277 C 
ENDBRANCH  26   3
ENDBRANCH  13  18
ENDBRANCH   4  13
TORSDOF 5
ENDMDL
MODEL 9
REMARK VINA RESULT:      -6.2     22.752     28.094
REMARK  Name = 7144017
REMARK  7 active torsions:
REMARK  status: ('A' for Active; 'I' for Inactive)
REMARK    1  A    between atoms: S_1  and  C_29
REMARK    2  A    between atoms: S_1  and  C_31
REMARK    3  A    between atoms: O_3  and  C_26
REMARK    4  A    between atoms: O_3  and  C_30
REMARK    5  A    between atoms: N_4  and  C_13
REMARK    6  A    between atoms: C_13  and  C_18
REMARK    7  A    between atoms: C_16  and  C_19
REMARK                            x       y       z     vdW  Elec       q    Type
REMARK                         _______ _______ _______ _____ _____    ______ ____
ROOT
ATOM      2  O   UNL     1     -13.425   6.384  34.573  0.00  0.00    -0.267 OA
ATOM      4  N   UNL     1     -16.714   4.911  31.085  0.00  0.00    -0.297 NA
ATOM      5  N   UNL     1     -15.476   6.607  33.486  0.00  0.00    -0.311 N 
ATOM      6  C   UNL     1     -17.270   4.778  33.526  0.00  0.00    +0.024 C 
ATOM      7  C   UNL     1     -17.686   6.862  32.307  0.00  0.00    +0.050 C 
ATOM      8  C   UNL     1     -18.246   5.939  33.387  0.00  0.00    +0.017 C 
ATOM      9  C   UNL     1     -17.140   4.032  32.180  0.00  0.00    +0.090 C 
ATOM     10  C   UNL     1     -17.585   6.091  30.971  0.00  0.00    +0.094 C 
ATOM     11  C   UNL     1     -15.927   5.319  34.032  0.00  0.00    +0.130 C 
ATOM     12  C   UNL     1     -16.327   7.400  32.712  0.00  0.00    +0.026 A 
ATOM     14  C   UNL     1     -15.934   8.623  32.317  0.00  0.00    +0.022 A 
ATOM     15  C   UNL     1     -14.190   7.041  33.864  0.00  0.00    +0.259 A 
ATOM     16  C   UNL     1     -13.765   8.400  33.378  0.00  0.00    +0.047 A 
ATOM     17  C   UNL     1     -14.632   9.123  32.653  0.00  0.00    +0.015 A 
ENDROOT
BRANCH  16  19
ATOM     19  C   UNL     1     -12.425   8.934  33.677  0.00  0.00    -0.013 A 
ATOM     22  C   UNL     1     -12.083   9.267  34.989  0.00  0.00    +0.010 A 
ATOM     23  C   UNL     1     -11.497   9.109  32.650  0.00  0.00    +0.010 A 
ATOM     27  C   UNL     1     -10.814   9.773  35.272  0.00  0.00    +0.015 A 
ATOM     28  C   UNL     1     -10.228   9.615  32.933  0.00  0.00    +0.015 A 
ATOM     29  C   UNL     1      -9.887   9.946  34.244  0.00  0.00    +0.008 A 
BRANCH  29   1
ATOM      1  S   UNL     1      -8.267  10.595  34.606  0.00  0.00    -0.129 S 
ATOM     31  C   UNL     1      -8.076  11.855  33.314  0.00  0.00    +0.090 C 
ENDBRANCH  29   1
ENDBRANCH  16  19
BRANCH   4  13
ATOM     13  C   UNL     1     -16.654   4.181  29.821  0.00  0.00    +0.119 C 
BRANCH  13  18
ATOM     18  C   UNL     1     -15.743   2.985  29.908  0.00  0.00    -0.033 A 
ATOM     20  C   UNL     1     -14.424   3.158  30.301  0.00  0.00    +0.008 A 
ATOM     21  C   UNL     1     -16.237   1.727  29.593  0.00  0.00    +0.008 A 
ATOM     24  C   UNL     1     -13.580   2.049  30.380  0.00  0.00    +0.046 A 
ATOM     25  C   UNL     1     -15.393   0.618  29.673  0.00  0.00    +0.046 A 
ATOM     26  C   UNL     1     -14.065   0.779  30.066  0.00  0.00    +0.120 A 
BRANCH  26   3
ATOM      3  O   UNL     1     -13.241  -0.301  30.145  0.00  0.00    -0.495 OA
ATOM     30  C   UNL     1     -13.244  -1.202  29.038  0.00  0.00    +0.277 C 
ENDBRANCH  26   3
ENDBRANCH  13  18
ENDBRANCH   4  13
TORSDOF 5
ENDMDL
MODEL 10
REMARK VINA RESULT:      -5.9     30.063     32.176
REMARK  Name = 7144017
REMARK  7 active torsions:
REMARK  status: ('A' for Active; 'I' for Inactive)
REMARK    1  A    between atoms: S_1  and  C_29
REMARK    2  A    between atoms: S_1  and  C_31
REMARK    3  A    between atoms: O_3  and  C_26
REMARK    4  A    between atoms: O_3  and  C_30
REMARK    5  A    between atoms: N_4  and  C_13
REMARK    6  A    between atoms: C_13  and  C_18
REMARK    7  A    between atoms: C_16  and  C_19
REMARK                            x       y       z     vdW  Elec       q    Type
REMARK                         _______ _______ _______ _____ _____    ______ ____
ROOT
ATOM      2  O   UNL     1      17.498   8.822  22.062  0.00  0.00    -0.267 OA
ATOM      4  N   UNL     1      22.301   8.323  20.705  0.00  0.00    -0.297 NA
ATOM      5  N   UNL     1      19.399   7.508  21.747  0.00  0.00    -0.311 N 
ATOM      6  C   UNL     1      21.568   7.873  23.060  0.00  0.00    +0.024 C 
ATOM      7  C   UNL     1      21.443   6.080  21.396  0.00  0.00    +0.050 C 
ATOM      8  C   UNL     1      21.769   6.377  22.858  0.00  0.00    +0.017 C 
ATOM      9  C   UNL     1      22.501   8.664  22.119  0.00  0.00    +0.090 C 
ATOM     10  C   UNL     1      22.404   6.873  20.481  0.00  0.00    +0.094 C 
ATOM     11  C   UNL     1      20.087   8.208  22.841  0.00  0.00    +0.130 C 
ATOM     12  C   UNL     1      20.001   6.436  21.084  0.00  0.00    +0.026 A 
ATOM     14  C   UNL     1      19.312   5.738  20.165  0.00  0.00    +0.022 A 
ATOM     15  C   UNL     1      18.074   7.904  21.475  0.00  0.00    +0.259 A 
ATOM     16  C   UNL     1      17.340   7.127  20.417  0.00  0.00    +0.047 A 
ATOM     17  C   UNL     1      17.965   6.097  19.826  0.00  0.00    +0.015 A 
ENDROOT
BRANCH  16  19
ATOM     19  C   UNL     1      15.966   7.483  20.022  0.00  0.00    -0.013 A 
ATOM     22  C   UNL     1      15.699   8.739  19.474  0.00  0.00    +0.010 A 
ATOM     23  C   UNL     1      14.929   6.565  20.195  0.00  0.00    +0.010 A 
ATOM     27  C   UNL     1      14.399   9.075  19.100  0.00  0.00    +0.015 A 
ATOM     28  C   UNL     1      13.628   6.902  19.821  0.00  0.00    +0.015 A 
ATOM     29  C   UNL     1      13.363   8.157  19.273  0.00  0.00    +0.008 A 
BRANCH  29   1
ATOM      1  S   UNL     1      11.701   8.588  18.798  0.00  0.00    -0.129 S 
ATOM     31  C   UNL     1      10.810   8.417  20.370  0.00  0.00    +0.090 C 
ENDBRANCH  29   1
ENDBRANCH  16  19
BRANCH   4  13
ATOM     13  C   UNL     1      23.236   9.053  19.853  0.00  0.00    +0.119 C 
BRANCH  13  18
ATOM     18  C   UNL     1      22.559  10.171  19.107  0.00  0.00    -0.033 A 
ATOM     20  C   UNL     1      21.612  10.950  19.755  0.00  0.00    +0.008 A 
ATOM     21  C   UNL     1      22.892  10.406  17.780  0.00  0.00    +0.008 A 
ATOM     24  C   UNL     1      20.985  11.987  19.063  0.00  0.00    +0.046 A 
ATOM     25  C   UNL     1      22.264  11.443  17.088  0.00  0.00    +0.046 A 
ATOM     26  C   UNL     1      21.310  12.233  17.729  0.00  0.00    +0.120 A 
BRANCH  26   3
ATOM      3  O   UNL     1      20.698  13.244  17.055  0.00  0.00    -0.495 OA
ATOM     30  C   UNL     1      21.118  14.574  17.361  0.00  0.00    +0.277 C 
ENDBRANCH  26   3
ENDBRANCH  13  18
ENDBRANCH   4  13
TORSDOF 5
ENDMDL
