MODEL 1
REMARK VINA RESULT:      -6.6      0.000      0.000
REMARK  Name = 75367756
REMARK  3 active torsions:
REMARK  status: ('A' for Active; 'I' for Inactive)
REMARK    1  A    between atoms: O_3  and  C_6
REMARK    2  A    between atoms: N_4  and  C_8
REMARK    3  A    between atoms: C_8  and  C_11
REMARK                            x       y       z     vdW  Elec       q    Type
REMARK                         _______ _______ _______ _____ _____    ______ ____
ROOT
ATOM      2  O   UNL     1       0.470   2.430  24.280  0.00  0.00    -0.376 OA
ATOM      4  N   UNL     1      -2.472   1.680  24.991  0.00  0.00    -0.293 NA
ATOM      5  C   UNL     1      -2.579   3.140  25.084  0.00  0.00    +0.118 C 
ATOM      6  C   UNL     1      -1.334   3.974  24.745  0.00  0.00    +0.154 C 
ATOM      7  C   UNL     1      -1.640   1.206  23.884  0.00  0.00    +0.113 C 
ATOM      9  C   UNL     1      -0.023   3.369  25.229  0.00  0.00    +0.192 C 
ATOM     10  C   UNL     1      -0.173   1.163  24.316  0.00  0.00    +0.175 C 
ENDROOT
BRANCH   6   3
ATOM      3  O   UNL     1      -1.478   5.257  25.357  0.00  0.00    -0.388 OA
ATOM     17  H   UNL     1      -2.430   5.444  25.422  0.00  0.00    +0.210 HD
ENDBRANCH   6   3
BRANCH   4   8
ATOM      8  C   UNL     1      -3.806   1.080  24.955  0.00  0.00    +0.122 C 
BRANCH   8  11
ATOM      1  F   UNL     1      -2.333  -0.617  26.681  0.00  0.00    -0.205 F 
ATOM     11  C   UNL     1      -3.743  -0.415  24.782  0.00  0.00    +0.002 A 
ATOM     12  C   UNL     1      -2.998  -1.191  25.669  0.00  0.00    +0.128 A 
ATOM     13  C   UNL     1      -4.432  -1.023  23.732  0.00  0.00    +0.008 A 
ATOM     14  C   UNL     1      -2.942  -2.575  25.507  0.00  0.00    +0.038 A 
ATOM     15  C   UNL     1      -4.376  -2.407  23.569  0.00  0.00    +0.000 A 
ATOM     16  C   UNL     1      -3.630  -3.183  24.457  0.00  0.00    +0.003 A 
ENDBRANCH   8  11
ENDBRANCH   4   8
TORSDOF 3
ENDMDL
MODEL 2
REMARK VINA RESULT:      -6.4     16.588     19.392
REMARK  Name = 75367756
REMARK  3 active torsions:
REMARK  status: ('A' for Active; 'I' for Inactive)
REMARK    1  A    between atoms: O_3  and  C_6
REMARK    2  A    between atoms: N_4  and  C_8
REMARK    3  A    between atoms: C_8  and  C_11
REMARK                            x       y       z     vdW  Elec       q    Type
REMARK                         _______ _______ _______ _____ _____    ______ ____
ROOT
ATOM      2  O   UNL     1      11.024   8.964  21.237  0.00  0.00    -0.376 OA
ATOM      4  N   UNL     1      13.741   8.074  19.992  0.00  0.00    -0.293 NA
ATOM      5  C   UNL     1      13.212   6.754  20.353  0.00  0.00    +0.118 C 
ATOM      6  C   UNL     1      11.807   6.690  20.972  0.00  0.00    +0.154 C 
ATOM      7  C   UNL     1      12.740   9.000  19.459  0.00  0.00    +0.113 C 
ATOM      9  C   UNL     1      11.496   7.821  21.942  0.00  0.00    +0.192 C 
ATOM     10  C   UNL     1      12.042   9.730  20.607  0.00  0.00    +0.175 C 
ENDROOT
BRANCH   6   3
ATOM      3  O   UNL     1      11.691   5.456  21.683  0.00  0.00    -0.388 OA
ATOM     17  H   UNL     1      10.842   5.470  22.156  0.00  0.00    +0.210 HD
ENDBRANCH   6   3
BRANCH   4   8
ATOM      8  C   UNL     1      14.876   7.928  19.080  0.00  0.00    +0.122 C 
BRANCH   8  11
ATOM      1  F   UNL     1      16.504   5.684  18.500  0.00  0.00    -0.205 F 
ATOM     11  C   UNL     1      16.153   7.626  19.818  0.00  0.00    +0.002 A 
ATOM     12  C   UNL     1      16.907   6.503  19.481  0.00  0.00    +0.128 A 
ATOM     13  C   UNL     1      16.581   8.473  20.842  0.00  0.00    +0.008 A 
ATOM     14  C   UNL     1      18.090   6.225  20.166  0.00  0.00    +0.038 A 
ATOM     15  C   UNL     1      17.763   8.195  21.528  0.00  0.00    +0.000 A 
ATOM     16  C   UNL     1      18.518   7.071  21.190  0.00  0.00    +0.003 A 
ENDBRANCH   8  11
ENDBRANCH   4   8
TORSDOF 3
ENDMDL
MODEL 3
REMARK VINA RESULT:      -6.3      1.841      2.877
REMARK  Name = 75367756
REMARK  3 active torsions:
REMARK  status: ('A' for Active; 'I' for Inactive)
REMARK    1  A    between atoms: O_3  and  C_6
REMARK    2  A    between atoms: N_4  and  C_8
REMARK    3  A    between atoms: C_8  and  C_11
REMARK                            x       y       z     vdW  Elec       q    Type
REMARK                         _______ _______ _______ _____ _____    ______ ____
ROOT
ATOM      2  O   UNL     1      -5.591   3.196  26.156  0.00  0.00    -0.376 OA
ATOM      4  N   UNL     1      -3.740   1.901  24.006  0.00  0.00    -0.293 NA
ATOM      5  C   UNL     1      -2.781   2.841  24.598  0.00  0.00    +0.118 C 
ATOM      6  C   UNL     1      -3.251   3.692  25.787  0.00  0.00    +0.154 C 
ATOM      7  C   UNL     1      -4.624   1.252  24.975  0.00  0.00    +0.113 C 
ATOM      9  C   UNL     1      -4.688   4.186  25.677  0.00  0.00    +0.192 C 
ATOM     10  C   UNL     1      -5.843   2.137  25.243  0.00  0.00    +0.175 C 
ENDROOT
BRANCH   6   3
ATOM      3  O   UNL     1      -2.399   4.835  25.880  0.00  0.00    -0.388 OA
ATOM     17  H   UNL     1      -2.931   5.568  26.235  0.00  0.00    +0.210 HD
ENDBRANCH   6   3
BRANCH   4   8
ATOM      8  C   UNL     1      -3.037   0.920  23.180  0.00  0.00    +0.122 C 
BRANCH   8  11
ATOM      1  F   UNL     1      -0.940  -0.026  24.833  0.00  0.00    -0.205 F 
ATOM     11  C   UNL     1      -3.040  -0.448  23.809  0.00  0.00    +0.002 A 
ATOM     12  C   UNL     1      -1.974  -0.851  24.613  0.00  0.00    +0.128 A 
ATOM     13  C   UNL     1      -4.112  -1.314  23.587  0.00  0.00    +0.008 A 
ATOM     14  C   UNL     1      -1.978  -2.118  25.195  0.00  0.00    +0.038 A 
ATOM     15  C   UNL     1      -4.116  -2.582  24.168  0.00  0.00    +0.000 A 
ATOM     16  C   UNL     1      -3.049  -2.984  24.973  0.00  0.00    +0.003 A 
ENDBRANCH   8  11
ENDBRANCH   4   8
TORSDOF 3
ENDMDL
MODEL 4
REMARK VINA RESULT:      -5.8     16.319     18.984
REMARK  Name = 75367756
REMARK  3 active torsions:
REMARK  status: ('A' for Active; 'I' for Inactive)
REMARK    1  A    between atoms: O_3  and  C_6
REMARK    2  A    between atoms: N_4  and  C_8
REMARK    3  A    between atoms: C_8  and  C_11
REMARK                            x       y       z     vdW  Elec       q    Type
REMARK                         _______ _______ _______ _____ _____    ______ ____
ROOT
ATOM      2  O   UNL     1      11.048  10.365  22.326  0.00  0.00    -0.376 OA
ATOM      4  N   UNL     1      13.062   9.143  20.282  0.00  0.00    -0.293 NA
ATOM      5  C   UNL     1      12.034   8.097  20.244  0.00  0.00    +0.118 C 
ATOM      6  C   UNL     1      10.766   8.306  21.086  0.00  0.00    +0.154 C 
ATOM      7  C   UNL     1      12.533  10.506  20.356  0.00  0.00    +0.113 C 
ATOM      9  C   UNL     1      11.014   8.948  22.445  0.00  0.00    +0.192 C 
ATOM     10  C   UNL     1      12.268  10.885  21.814  0.00  0.00    +0.175 C 
ENDROOT
BRANCH   6   3
ATOM      3  O   UNL     1      10.164   7.030  21.306  0.00  0.00    -0.388 OA
ATOM     17  H   UNL     1       9.242   7.183  21.576  0.00  0.00    +0.210 HD
ENDBRANCH   6   3
BRANCH   4   8
ATOM      8  C   UNL     1      13.983   8.985  19.157  0.00  0.00    +0.122 C 
BRANCH   8  11
ATOM      1  F   UNL     1      15.966   9.964  20.927  0.00  0.00    -0.205 F 
ATOM     11  C   UNL     1      15.206   8.195  19.539  0.00  0.00    +0.002 A 
ATOM     12  C   UNL     1      16.143   8.737  20.417  0.00  0.00    +0.128 A 
ATOM     13  C   UNL     1      15.400   6.916  19.014  0.00  0.00    +0.008 A 
ATOM     14  C   UNL     1      17.275   8.004  20.770  0.00  0.00    +0.038 A 
ATOM     15  C   UNL     1      16.532   6.182  19.367  0.00  0.00    +0.000 A 
ATOM     16  C   UNL     1      17.471   6.726  20.245  0.00  0.00    +0.003 A 
ENDBRANCH   8  11
ENDBRANCH   4   8
TORSDOF 3
ENDMDL
MODEL 5
REMARK VINA RESULT:      -5.7     18.851     20.217
REMARK  Name = 75367756
REMARK  3 active torsions:
REMARK  status: ('A' for Active; 'I' for Inactive)
REMARK    1  A    between atoms: O_3  and  C_6
REMARK    2  A    between atoms: N_4  and  C_8
REMARK    3  A    between atoms: C_8  and  C_11
REMARK                            x       y       z     vdW  Elec       q    Type
REMARK                         _______ _______ _______ _____ _____    ______ ____
ROOT
ATOM      2  O   UNL     1      14.227  10.924  17.654  0.00  0.00    -0.376 OA
ATOM      4  N   UNL     1      13.948   8.065  18.869  0.00  0.00    -0.293 NA
ATOM      5  C   UNL     1      13.889   7.715  17.446  0.00  0.00    +0.118 C 
ATOM      6  C   UNL     1      14.051   8.848  16.422  0.00  0.00    +0.154 C 
ATOM      7  C   UNL     1      14.914   9.116  19.193  0.00  0.00    +0.113 C 
ATOM      9  C   UNL     1      13.373  10.153  16.816  0.00  0.00    +0.192 C 
ATOM     10  C   UNL     1      14.270  10.491  19.007  0.00  0.00    +0.175 C 
ENDROOT
BRANCH   6   3
ATOM      3  O   UNL     1      13.484   8.414  15.185  0.00  0.00    -0.388 OA
ATOM     17  H   UNL     1      12.974   7.605  15.365  0.00  0.00    +0.210 HD
ENDBRANCH   6   3
BRANCH   4   8
ATOM      8  C   UNL     1      14.172   6.864  19.674  0.00  0.00    +0.122 C 
BRANCH   8  11
ATOM      1  F   UNL     1      15.452   7.511  22.117  0.00  0.00    -0.205 F 
ATOM     11  C   UNL     1      15.637   6.622  19.924  0.00  0.00    +0.002 A 
ATOM     12  C   UNL     1      16.204   6.964  21.150  0.00  0.00    +0.128 A 
ATOM     13  C   UNL     1      16.428   6.054  18.924  0.00  0.00    +0.008 A 
ATOM     14  C   UNL     1      17.561   6.739  21.380  0.00  0.00    +0.038 A 
ATOM     15  C   UNL     1      17.785   5.829  19.153  0.00  0.00    +0.000 A 
ATOM     16  C   UNL     1      18.352   6.172  20.381  0.00  0.00    +0.003 A 
ENDBRANCH   8  11
ENDBRANCH   4   8
TORSDOF 3
ENDMDL
MODEL 6
REMARK VINA RESULT:      -5.5     16.889     18.216
REMARK  Name = 75367756
REMARK  3 active torsions:
REMARK  status: ('A' for Active; 'I' for Inactive)
REMARK    1  A    between atoms: O_3  and  C_6
REMARK    2  A    between atoms: N_4  and  C_8
REMARK    3  A    between atoms: C_8  and  C_11
REMARK                            x       y       z     vdW  Elec       q    Type
REMARK                         _______ _______ _______ _____ _____    ______ ____
ROOT
ATOM      2  O   UNL     1      13.632   9.015  16.251  0.00  0.00    -0.376 OA
ATOM      4  N   UNL     1      12.563   8.940  19.180  0.00  0.00    -0.293 NA
ATOM      5  C   UNL     1      11.384   8.404  18.492  0.00  0.00    +0.118 C 
ATOM      6  C   UNL     1      11.472   8.197  16.972  0.00  0.00    +0.154 C 
ATOM      7  C   UNL     1      13.841   8.460  18.650  0.00  0.00    +0.113 C 
ATOM      9  C   UNL     1      12.236   9.287  16.234  0.00  0.00    +0.192 C 
ATOM     10  C   UNL     1      14.280   9.335  17.475  0.00  0.00    +0.175 C 
ENDROOT
BRANCH   6   3
ATOM      3  O   UNL     1      10.143   8.160  16.451  0.00  0.00    -0.388 OA
ATOM     17  H   UNL     1       9.960   7.245  16.179  0.00  0.00    +0.210 HD
ENDBRANCH   6   3
BRANCH   4   8
ATOM      8  C   UNL     1      12.457   8.705  20.620  0.00  0.00    +0.122 C 
BRANCH   8  11
ATOM      1  F   UNL     1      11.013   8.594  23.054  0.00  0.00    -0.205 F 
ATOM     11  C   UNL     1      11.992   9.933  21.356  0.00  0.00    +0.002 A 
ATOM     12  C   UNL     1      11.284   9.806  22.551  0.00  0.00    +0.128 A 
ATOM     13  C   UNL     1      12.270  11.199  20.841  0.00  0.00    +0.008 A 
ATOM     14  C   UNL     1      10.855  10.945  23.232  0.00  0.00    +0.038 A 
ATOM     15  C   UNL     1      11.840  12.339  21.521  0.00  0.00    +0.000 A 
ATOM     16  C   UNL     1      11.132  12.212  22.717  0.00  0.00    +0.003 A 
ENDBRANCH   8  11
ENDBRANCH   4   8
TORSDOF 3
ENDMDL
MODEL 7
REMARK VINA RESULT:      -5.5     16.911     18.161
REMARK  Name = 75367756
REMARK  3 active torsions:
REMARK  status: ('A' for Active; 'I' for Inactive)
REMARK    1  A    between atoms: O_3  and  C_6
REMARK    2  A    between atoms: N_4  and  C_8
REMARK    3  A    between atoms: C_8  and  C_11
REMARK                            x       y       z     vdW  Elec       q    Type
REMARK                         _______ _______ _______ _____ _____    ______ ____
ROOT
ATOM      2  O   UNL     1      15.166   7.743  19.327  0.00  0.00    -0.376 OA
ATOM      4  N   UNL     1      12.683   8.617  20.999  0.00  0.00    -0.293 NA
ATOM      5  C   UNL     1      11.994   7.868  19.942  0.00  0.00    +0.118 C 
ATOM      6  C   UNL     1      12.857   7.176  18.875  0.00  0.00    +0.154 C 
ATOM      7  C   UNL     1      13.934   8.007  21.453  0.00  0.00    +0.113 C 
ATOM      9  C   UNL     1      14.078   7.975  18.440  0.00  0.00    +0.192 C 
ATOM     10  C   UNL     1      15.088   8.455  20.554  0.00  0.00    +0.175 C 
ENDROOT
BRANCH   6   3
ATOM      3  O   UNL     1      12.043   6.953  17.722  0.00  0.00    -0.388 OA
ATOM     17  H   UNL     1      11.511   6.157  17.889  0.00  0.00    +0.210 HD
ENDBRANCH   6   3
BRANCH   4   8
ATOM      8  C   UNL     1      11.770   8.864  22.116  0.00  0.00    +0.122 C 
BRANCH   8  11
ATOM      1  F   UNL     1      10.918   9.940  24.593  0.00  0.00    -0.205 F 
ATOM     11  C   UNL     1      11.541  10.335  22.337  0.00  0.00    +0.002 A 
ATOM     12  C   UNL     1      11.121  10.798  23.584  0.00  0.00    +0.128 A 
ATOM     13  C   UNL     1      11.750  11.237  21.293  0.00  0.00    +0.008 A 
ATOM     14  C   UNL     1      10.909  12.161  23.787  0.00  0.00    +0.038 A 
ATOM     15  C   UNL     1      11.538  12.600  21.496  0.00  0.00    +0.000 A 
ATOM     16  C   UNL     1      11.117  13.063  22.743  0.00  0.00    +0.003 A 
ENDBRANCH   8  11
ENDBRANCH   4   8
TORSDOF 3
ENDMDL
MODEL 8
REMARK VINA RESULT:      -5.5     13.593     14.856
REMARK  Name = 75367756
REMARK  3 active torsions:
REMARK  status: ('A' for Active; 'I' for Inactive)
REMARK    1  A    between atoms: O_3  and  C_6
REMARK    2  A    between atoms: N_4  and  C_8
REMARK    3  A    between atoms: C_8  and  C_11
REMARK                            x       y       z     vdW  Elec       q    Type
REMARK                         _______ _______ _______ _____ _____    ______ ____
ROOT
ATOM      2  O   UNL     1     -11.994  10.236  13.916  0.00  0.00    -0.376 OA
ATOM      4  N   UNL     1     -10.814   9.220  16.618  0.00  0.00    -0.293 NA
ATOM      5  C   UNL     1     -10.457   8.078  15.769  0.00  0.00    +0.118 C 
ATOM      6  C   UNL     1     -10.802   8.161  14.274  0.00  0.00    +0.154 C 
ATOM      7  C   UNL     1     -10.656  10.524  15.974  0.00  0.00    +0.113 C 
ATOM      9  C   UNL     1     -12.141   8.822  13.975  0.00  0.00    +0.192 C 
ATOM     10  C   UNL     1     -11.918  10.873  15.185  0.00  0.00    +0.175 C 
ENDROOT
BRANCH   6   3
ATOM      3  O   UNL     1     -10.842   6.831  13.754  0.00  0.00    -0.388 OA
ATOM     17  H   UNL     1     -11.520   6.810  13.057  0.00  0.00    +0.210 HD
ENDBRANCH   6   3
BRANCH   4   8
ATOM      8  C   UNL     1     -10.082   9.154  17.883  0.00  0.00    +0.122 C 
BRANCH   8  11
ATOM      1  F   UNL     1     -10.952   6.563  18.629  0.00  0.00    -0.205 F 
ATOM     11  C   UNL     1     -11.000   8.898  19.049  0.00  0.00    +0.002 A 
ATOM     12  C   UNL     1     -11.389   7.597  19.361  0.00  0.00    +0.128 A 
ATOM     13  C   UNL     1     -11.461   9.968  19.819  0.00  0.00    +0.008 A 
ATOM     14  C   UNL     1     -12.239   7.362  20.442  0.00  0.00    +0.038 A 
ATOM     15  C   UNL     1     -12.311   9.734  20.899  0.00  0.00    +0.000 A 
ATOM     16  C   UNL     1     -12.701   8.430  21.211  0.00  0.00    +0.003 A 
ENDBRANCH   8  11
ENDBRANCH   4   8
TORSDOF 3
ENDMDL
MODEL 9
REMARK VINA RESULT:      -5.4     16.406     18.828
REMARK  Name = 75367756
REMARK  3 active torsions:
REMARK  status: ('A' for Active; 'I' for Inactive)
REMARK    1  A    between atoms: O_3  and  C_6
REMARK    2  A    between atoms: N_4  and  C_8
REMARK    3  A    between atoms: C_8  and  C_11
REMARK                            x       y       z     vdW  Elec       q    Type
REMARK                         _______ _______ _______ _____ _____    ______ ____
ROOT
ATOM      2  O   UNL     1      17.469   6.302  19.852  0.00  0.00    -0.376 OA
ATOM      4  N   UNL     1      14.985   8.146  20.242  0.00  0.00    -0.293 NA
ATOM      5  C   UNL     1      15.944   8.876  21.078  0.00  0.00    +0.118 C 
ATOM      6  C   UNL     1      17.385   8.346  21.145  0.00  0.00    +0.154 C 
ATOM      7  C   UNL     1      15.551   7.608  19.004  0.00  0.00    +0.113 C 
ATOM      9  C   UNL     1      17.494   6.827  21.174  0.00  0.00    +0.192 C 
ATOM     10  C   UNL     1      16.175   6.237  19.268  0.00  0.00    +0.175 C 
ENDROOT
BRANCH   6   3
ATOM      3  O   UNL     1      17.989   8.854  22.336  0.00  0.00    -0.388 OA
ATOM     17  H   UNL     1      17.351   8.738  23.060  0.00  0.00    +0.210 HD
ENDBRANCH   6   3
BRANCH   4   8
ATOM      8  C   UNL     1      13.812   8.980  19.978  0.00  0.00    +0.122 C 
BRANCH   8  11
ATOM      1  F   UNL     1      12.487   6.491  19.710  0.00  0.00    -0.205 F 
ATOM     11  C   UNL     1      12.636   8.579  20.828  0.00  0.00    +0.002 A 
ATOM     12  C   UNL     1      12.030   7.337  20.643  0.00  0.00    +0.128 A 
ATOM     13  C   UNL     1      12.152   9.453  21.802  0.00  0.00    +0.008 A 
ATOM     14  C   UNL     1      10.941   6.968  21.431  0.00  0.00    +0.038 A 
ATOM     15  C   UNL     1      11.062   9.084  22.590  0.00  0.00    +0.000 A 
ATOM     16  C   UNL     1      10.456   7.841  22.405  0.00  0.00    +0.003 A 
ENDBRANCH   8  11
ENDBRANCH   4   8
TORSDOF 3
ENDMDL
MODEL 10
REMARK VINA RESULT:      -5.4     13.275     14.464
REMARK  Name = 75367756
REMARK  3 active torsions:
REMARK  status: ('A' for Active; 'I' for Inactive)
REMARK    1  A    between atoms: O_3  and  C_6
REMARK    2  A    between atoms: N_4  and  C_8
REMARK    3  A    between atoms: C_8  and  C_11
REMARK                            x       y       z     vdW  Elec       q    Type
REMARK                         _______ _______ _______ _____ _____    ______ ____
ROOT
ATOM      2  O   UNL     1     -12.036  10.140  15.040  0.00  0.00    -0.376 OA
ATOM      4  N   UNL     1     -11.228   9.097  17.865  0.00  0.00    -0.293 NA
ATOM      5  C   UNL     1     -10.486   8.133  17.046  0.00  0.00    +0.118 C 
ATOM      6  C   UNL     1     -10.540   8.299  15.519  0.00  0.00    +0.154 C 
ATOM      7  C   UNL     1     -11.215  10.466  17.348  0.00  0.00    +0.113 C 
ATOM      9  C   UNL     1     -11.899   8.724  14.982  0.00  0.00    +0.192 C 
ATOM     10  C   UNL     1     -12.342  10.649  16.331  0.00  0.00    +0.175 C 
ENDROOT
BRANCH   6   3
ATOM      3  O   UNL     1     -10.204   7.044  14.924  0.00  0.00    -0.388 OA
ATOM     17  H   UNL     1     -10.958   6.445  15.060  0.00  0.00    +0.210 HD
ENDBRANCH   6   3
BRANCH   4   8
ATOM      8  C   UNL     1     -10.761   9.043  19.251  0.00  0.00    +0.122 C 
BRANCH   8  11
ATOM      1  F   UNL     1     -12.944  10.354  20.493  0.00  0.00    -0.205 F 
ATOM     11  C   UNL     1     -11.743   8.336  20.147  0.00  0.00    +0.002 A 
ATOM     12  C   UNL     1     -12.796   9.042  20.727  0.00  0.00    +0.128 A 
ATOM     13  C   UNL     1     -11.598   6.970  20.396  0.00  0.00    +0.008 A 
ATOM     14  C   UNL     1     -13.704   8.385  21.556  0.00  0.00    +0.038 A 
ATOM     15  C   UNL     1     -12.506   6.313  21.226  0.00  0.00    +0.000 A 
ATOM     16  C   UNL     1     -13.560   7.021  21.806  0.00  0.00    +0.003 A 
ENDBRANCH   8  11
ENDBRANCH   4   8
TORSDOF 3
ENDMDL
