MODEL 1
REMARK VINA RESULT:      -7.4      0.000      0.000
REMARK  Name = 26742857
REMARK  6 active torsions:
REMARK  status: ('A' for Active; 'I' for Inactive)
REMARK    1  A    between atoms: O_7  and  C_33
REMARK    2  A    between atoms: O_7  and  C_34
REMARK    3  A    between atoms: N_9  and  C_22
REMARK    4  A    between atoms: N_10  and  C_24
REMARK    5  A    between atoms: N_11  and  C_28
REMARK    6  A    between atoms: C_22  and  C_24
REMARK                            x       y       z     vdW  Elec       q    Type
REMARK                         _______ _______ _______ _____ _____    ______ ____
ROOT
ATOM      4  O   UNL     1      -1.139 -10.647  15.889  0.00  0.00    -0.276 OA
ATOM      5  O   UNL     1      -4.458  -8.281  10.334  0.00  0.00    -0.252 OA
ATOM      8  N   UNL     1      -3.754 -10.414  10.880  0.00  0.00    -0.285 N 
ATOM      9  N   UNL     1      -3.339 -11.334  15.627  0.00  0.00    -0.300 N 
ATOM     11  N   UNL     1      -6.023  -9.993  10.392  0.00  0.00    -0.269 N 
ATOM     13  C   UNL     1      -3.558 -12.266  12.521  0.00  0.00    +0.011 C 
ATOM     14  C   UNL     1      -2.098 -11.823  12.786  0.00  0.00    +0.004 C 
ATOM     15  C   UNL     1      -1.888 -10.328  12.476  0.00  0.00    +0.023 C 
ATOM     16  C   UNL     1      -3.964 -11.854  11.093  0.00  0.00    +0.113 C 
ATOM     17  C   UNL     1      -4.597 -11.751  13.535  0.00  0.00    +0.024 C 
ATOM     18  C   UNL     1      -1.560 -12.230  14.163  0.00  0.00    +0.100 C 
ATOM     19  C   UNL     1      -2.368  -9.981  11.066  0.00  0.00    +0.109 C 
ATOM     20  C   UNL     1      -4.319 -12.195  14.966  0.00  0.00    +0.108 C 
ATOM     21  C   UNL     1      -1.986 -11.330  15.309  0.00  0.00    +0.216 C 
ATOM     23  C   UNL     1      -4.735  -9.471  10.508  0.00  0.00    +0.306 C 
ATOM     35  H   UNL     1      -6.266 -10.796  10.962  0.00  0.00    +0.156 HD
ENDROOT
BRANCH  11  28
ATOM     28  C   UNL     1      -7.056  -9.547   9.532  0.00  0.00    +0.035 A 
ATOM     29  C   UNL     1      -7.045  -9.905   8.183  0.00  0.00    +0.027 A 
ATOM     30  C   UNL     1      -8.087  -8.750  10.032  0.00  0.00    +0.027 A 
ATOM     31  C   UNL     1      -8.061  -9.467   7.337  0.00  0.00    +0.048 A 
ATOM     32  C   UNL     1      -9.103  -8.312   9.184  0.00  0.00    +0.048 A 
ATOM     33  C   UNL     1      -9.091  -8.670   7.837  0.00  0.00    +0.130 A 
BRANCH  33   7
ATOM      7  O   UNL     1     -10.085  -8.243   7.010  0.00  0.00    -0.406 OA
BRANCH   7  34
ATOM      1  F   UNL     1      -8.709  -6.537   6.472  0.00  0.00    -0.133 F 
ATOM      2  F   UNL     1     -10.472  -6.866   5.224  0.00  0.00    -0.133 F 
ATOM      3  F   UNL     1     -10.685  -6.051   7.266  0.00  0.00    -0.133 F 
ATOM     34  C   UNL     1     -10.006  -6.921   6.490  0.00  0.00    +0.575 C 
ENDBRANCH   7  34
ENDBRANCH  33   7
ENDBRANCH  11  28
BRANCH   9  22
ATOM     22  C   UNL     1      -3.849 -10.439  16.657  0.00  0.00    +0.126 C 
BRANCH  22  24
ATOM     24  C   UNL     1      -4.825 -11.135  17.590  0.00  0.00    +0.128 C 
BRANCH  24  10
ATOM      6  O   UNL     1      -6.671 -10.757  19.931  0.00  0.00    -0.253 OA
ATOM     10  N   UNL     1      -6.083 -10.442  17.668  0.00  0.00    -0.283 N 
ATOM     12  N   UNL     1      -8.001  -9.532  18.445  0.00  0.00    -0.298 N 
ATOM     25  C   UNL     1      -6.637  -9.709  16.543  0.00  0.00    +0.128 C 
ATOM     26  C   UNL     1      -7.981  -9.200  17.043  0.00  0.00    +0.124 C 
ATOM     27  C   UNL     1      -6.887 -10.302  18.816  0.00  0.00    +0.302 C 
ATOM     36  H   UNL     1      -8.751  -9.282  19.081  0.00  0.00    +0.150 HD
ENDBRANCH  24  10
ENDBRANCH  22  24
ENDBRANCH   9  22
TORSDOF 6
ENDMDL
MODEL 2
REMARK VINA RESULT:      -7.2     20.424     22.261
REMARK  Name = 26742857
REMARK  6 active torsions:
REMARK  status: ('A' for Active; 'I' for Inactive)
REMARK    1  A    between atoms: O_7  and  C_33
REMARK    2  A    between atoms: O_7  and  C_34
REMARK    3  A    between atoms: N_9  and  C_22
REMARK    4  A    between atoms: N_10  and  C_24
REMARK    5  A    between atoms: N_11  and  C_28
REMARK    6  A    between atoms: C_22  and  C_24
REMARK                            x       y       z     vdW  Elec       q    Type
REMARK                         _______ _______ _______ _____ _____    ______ ____
ROOT
ATOM      4  O   UNL     1     -17.205   0.110  29.282  0.00  0.00    -0.276 OA
ATOM      5  O   UNL     1     -15.995   2.877  23.089  0.00  0.00    -0.252 OA
ATOM      8  N   UNL     1     -17.174   3.689  24.903  0.00  0.00    -0.285 N 
ATOM      9  N   UNL     1     -15.814   1.966  29.231  0.00  0.00    -0.300 N 
ATOM     11  N   UNL     1     -15.385   4.925  23.990  0.00  0.00    -0.269 N 
ATOM     13  C   UNL     1     -17.356   4.114  27.342  0.00  0.00    +0.011 C 
ATOM     14  C   UNL     1     -18.245   2.850  27.455  0.00  0.00    +0.004 C 
ATOM     15  C   UNL     1     -17.956   1.843  26.324  0.00  0.00    +0.023 C 
ATOM     16  C   UNL     1     -17.485   4.702  25.923  0.00  0.00    +0.113 C 
ATOM     17  C   UNL     1     -15.871   3.908  27.695  0.00  0.00    +0.024 C 
ATOM     18  C   UNL     1     -18.244   2.205  28.846  0.00  0.00    +0.100 C 
ATOM     19  C   UNL     1     -18.041   2.511  24.951  0.00  0.00    +0.109 C 
ATOM     20  C   UNL     1     -15.652   3.414  29.121  0.00  0.00    +0.108 C 
ATOM     21  C   UNL     1     -17.044   1.324  29.142  0.00  0.00    +0.216 C 
ATOM     23  C   UNL     1     -16.168   3.774  23.918  0.00  0.00    +0.306 C 
ATOM     35  H   UNL     1     -15.260   5.361  24.898  0.00  0.00    +0.156 HD
ENDROOT
BRANCH  11  28
ATOM     28  C   UNL     1     -14.746   5.598  22.920  0.00  0.00    +0.035 A 
ATOM     29  C   UNL     1     -13.433   5.274  22.577  0.00  0.00    +0.027 A 
ATOM     30  C   UNL     1     -15.429   6.585  22.208  0.00  0.00    +0.027 A 
ATOM     31  C   UNL     1     -12.804   5.936  21.524  0.00  0.00    +0.048 A 
ATOM     32  C   UNL     1     -14.799   7.247  21.155  0.00  0.00    +0.048 A 
ATOM     33  C   UNL     1     -13.487   6.923  20.813  0.00  0.00    +0.130 A 
BRANCH  33   7
ATOM      7  O   UNL     1     -12.872   7.569  19.783  0.00  0.00    -0.406 OA
BRANCH   7  34
ATOM      1  F   UNL     1     -11.691   9.344  19.045  0.00  0.00    -0.133 F 
ATOM      2  F   UNL     1     -12.169   9.243  21.175  0.00  0.00    -0.133 F 
ATOM      3  F   UNL     1     -10.666   7.880  20.301  0.00  0.00    -0.133 F 
ATOM     34  C   UNL     1     -11.845   8.504  20.093  0.00  0.00    +0.575 C 
ENDBRANCH   7  34
ENDBRANCH  33   7
ENDBRANCH  11  28
BRANCH   9  22
ATOM     22  C   UNL     1     -14.598   1.187  29.429  0.00  0.00    +0.126 C 
BRANCH  22  24
ATOM     24  C   UNL     1     -13.610   1.891  30.344  0.00  0.00    +0.128 C 
BRANCH  24  10
ATOM      6  O   UNL     1     -14.987  -0.139  32.080  0.00  0.00    -0.253 OA
ATOM     10  N   UNL     1     -14.114   2.017  31.686  0.00  0.00    -0.283 N 
ATOM     12  N   UNL     1     -15.042   1.555  33.694  0.00  0.00    -0.298 N 
ATOM     25  C   UNL     1     -13.942   3.227  32.469  0.00  0.00    +0.128 C 
ATOM     26  C   UNL     1     -14.671   2.945  33.775  0.00  0.00    +0.124 C 
ATOM     27  C   UNL     1     -14.743   1.005  32.438  0.00  0.00    +0.302 C 
ATOM     36  H   UNL     1     -15.508   1.043  34.437  0.00  0.00    +0.150 HD
ENDBRANCH  24  10
ENDBRANCH  22  24
ENDBRANCH   9  22
TORSDOF 6
ENDMDL
MODEL 3
REMARK VINA RESULT:      -7.2     23.551     26.916
REMARK  Name = 26742857
REMARK  6 active torsions:
REMARK  status: ('A' for Active; 'I' for Inactive)
REMARK    1  A    between atoms: O_7  and  C_33
REMARK    2  A    between atoms: O_7  and  C_34
REMARK    3  A    between atoms: N_9  and  C_22
REMARK    4  A    between atoms: N_10  and  C_24
REMARK    5  A    between atoms: N_11  and  C_28
REMARK    6  A    between atoms: C_22  and  C_24
REMARK                            x       y       z     vdW  Elec       q    Type
REMARK                         _______ _______ _______ _____ _____    ______ ____
ROOT
ATOM      4  O   UNL     1      13.314   4.389  -3.945  0.00  0.00    -0.276 OA
ATOM      5  O   UNL     1      11.407   3.382   2.599  0.00  0.00    -0.252 OA
ATOM      8  N   UNL     1      13.224   4.500   1.709  0.00  0.00    -0.285 N 
ATOM      9  N   UNL     1      12.612   6.262  -2.771  0.00  0.00    -0.300 N 
ATOM     11  N   UNL     1      11.733   5.608   3.163  0.00  0.00    -0.269 N 
ATOM     13  C   UNL     1      14.179   6.103   0.072  0.00  0.00    +0.011 C 
ATOM     14  C   UNL     1      14.625   4.895  -0.790  0.00  0.00    +0.004 C 
ATOM     15  C   UNL     1      13.742   3.656  -0.540  0.00  0.00    +0.023 C 
ATOM     16  C   UNL     1      14.097   5.672   1.549  0.00  0.00    +0.113 C 
ATOM     17  C   UNL     1      12.857   6.766  -0.359  0.00  0.00    +0.024 C 
ATOM     18  C   UNL     1      14.797   5.217  -2.279  0.00  0.00    +0.100 C 
ATOM     19  C   UNL     1      13.659   3.326   0.951  0.00  0.00    +0.109 C 
ATOM     20  C   UNL     1      12.887   7.305  -1.784  0.00  0.00    +0.108 C 
ATOM     21  C   UNL     1      13.509   5.246  -3.081  0.00  0.00    +0.216 C 
ATOM     23  C   UNL     1      12.068   4.420   2.514  0.00  0.00    +0.306 C 
ATOM     35  H   UNL     1      12.000   6.483   2.723  0.00  0.00    +0.156 HD
ENDROOT
BRANCH  11  28
ATOM     28  C   UNL     1      11.073   5.751   4.407  0.00  0.00    +0.035 A 
ATOM     29  C   UNL     1      11.728   6.362   5.478  0.00  0.00    +0.027 A 
ATOM     30  C   UNL     1       9.768   5.283   4.564  0.00  0.00    +0.027 A 
ATOM     31  C   UNL     1      11.078   6.503   6.703  0.00  0.00    +0.048 A 
ATOM     32  C   UNL     1       9.119   5.424   5.790  0.00  0.00    +0.048 A 
ATOM     33  C   UNL     1       9.774   6.034   6.860  0.00  0.00    +0.130 A 
BRANCH  33   7
ATOM      7  O   UNL     1       9.139   6.173   8.056  0.00  0.00    -0.406 OA
BRANCH   7  34
ATOM      1  F   UNL     1       8.461   5.310  10.029  0.00  0.00    -0.133 F 
ATOM      2  F   UNL     1       9.428   3.969   8.599  0.00  0.00    -0.133 F 
ATOM      3  F   UNL     1      10.609   5.497   9.673  0.00  0.00    -0.133 F 
ATOM     34  C   UNL     1       9.425   5.229   9.083  0.00  0.00    +0.575 C 
ENDBRANCH   7  34
ENDBRANCH  33   7
ENDBRANCH  11  28
BRANCH   9  22
ATOM     22  C   UNL     1      11.315   6.317  -3.433  0.00  0.00    +0.126 C 
BRANCH  22  24
ATOM     24  C   UNL     1      10.354   5.269  -2.898  0.00  0.00    +0.128 C 
BRANCH  24  10
ATOM      6  O   UNL     1      10.071   2.280  -2.752  0.00  0.00    -0.253 OA
ATOM     10  N   UNL     1       9.960   4.330  -3.915  0.00  0.00    -0.283 N 
ATOM     12  N   UNL     1       9.405   2.422  -4.992  0.00  0.00    -0.298 N 
ATOM     25  C   UNL     1       9.541   4.752  -5.240  0.00  0.00    +0.128 C 
ATOM     26  C   UNL     1       9.282   3.454  -5.990  0.00  0.00    +0.124 C 
ATOM     27  C   UNL     1       9.842   2.935  -3.760  0.00  0.00    +0.302 C 
ATOM     36  H   UNL     1       9.242   1.435  -5.166  0.00  0.00    +0.150 HD
ENDBRANCH  24  10
ENDBRANCH  22  24
ENDBRANCH   9  22
TORSDOF 6
ENDMDL
MODEL 4
REMARK VINA RESULT:      -7.0     24.019     27.113
REMARK  Name = 26742857
REMARK  6 active torsions:
REMARK  status: ('A' for Active; 'I' for Inactive)
REMARK    1  A    between atoms: O_7  and  C_33
REMARK    2  A    between atoms: O_7  and  C_34
REMARK    3  A    between atoms: N_9  and  C_22
REMARK    4  A    between atoms: N_10  and  C_24
REMARK    5  A    between atoms: N_11  and  C_28
REMARK    6  A    between atoms: C_22  and  C_24
REMARK                            x       y       z     vdW  Elec       q    Type
REMARK                         _______ _______ _______ _____ _____    ______ ____
ROOT
ATOM      4  O   UNL     1      15.272   5.983  -2.771  0.00  0.00    -0.276 OA
ATOM      5  O   UNL     1      10.610   6.941   2.212  0.00  0.00    -0.252 OA
ATOM      8  N   UNL     1      11.369   5.004   1.204  0.00  0.00    -0.285 N 
ATOM      9  N   UNL     1      15.846   5.223  -0.655  0.00  0.00    -0.300 N 
ATOM     11  N   UNL     1      11.513   5.269   3.544  0.00  0.00    -0.269 N 
ATOM     13  C   UNL     1      13.235   3.589   0.383  0.00  0.00    +0.011 C 
ATOM     14  C   UNL     1      12.941   4.102  -1.049  0.00  0.00    +0.004 C 
ATOM     15  C   UNL     1      12.263   5.486  -1.033  0.00  0.00    +0.023 C 
ATOM     16  C   UNL     1      11.944   3.651   1.221  0.00  0.00    +0.113 C 
ATOM     17  C   UNL     1      14.378   4.313   1.120  0.00  0.00    +0.024 C 
ATOM     18  C   UNL     1      14.144   4.035  -1.998  0.00  0.00    +0.100 C 
ATOM     19  C   UNL     1      11.026   5.488  -0.134  0.00  0.00    +0.109 C 
ATOM     20  C   UNL     1      15.718   4.218   0.399  0.00  0.00    +0.108 C 
ATOM     21  C   UNL     1      15.139   5.172  -1.851  0.00  0.00    +0.216 C 
ATOM     23  C   UNL     1      11.116   5.821   2.326  0.00  0.00    +0.306 C 
ATOM     35  H   UNL     1      12.291   4.618   3.541  0.00  0.00    +0.156 HD
ENDROOT
BRANCH  11  28
ATOM     28  C   UNL     1      10.931   5.488   4.816  0.00  0.00    +0.035 A 
ATOM     29  C   UNL     1      11.615   6.236   5.776  0.00  0.00    +0.027 A 
ATOM     30  C   UNL     1       9.675   4.957   5.111  0.00  0.00    +0.027 A 
ATOM     31  C   UNL     1      11.043   6.451   7.029  0.00  0.00    +0.048 A 
ATOM     32  C   UNL     1       9.104   5.173   6.365  0.00  0.00    +0.048 A 
ATOM     33  C   UNL     1       9.787   5.920   7.324  0.00  0.00    +0.130 A 
BRANCH  33   7
ATOM      7  O   UNL     1       9.229   6.132   8.547  0.00  0.00    -0.406 OA
BRANCH   7  34
ATOM      1  F   UNL     1      10.439   5.304  10.263  0.00  0.00    -0.133 F 
ATOM      2  F   UNL     1       8.264   5.108  10.351  0.00  0.00    -0.133 F 
ATOM      3  F   UNL     1       9.439   3.887   8.934  0.00  0.00    -0.133 F 
ATOM     34  C   UNL     1       9.327   5.098   9.520  0.00  0.00    +0.575 C 
ENDBRANCH   7  34
ENDBRANCH  33   7
ENDBRANCH  11  28
BRANCH   9  22
ATOM     22  C   UNL     1      16.761   6.327  -0.396  0.00  0.00    +0.126 C 
BRANCH  22  24
ATOM     24  C   UNL     1      16.030   7.649  -0.225  0.00  0.00    +0.128 C 
BRANCH  24  10
ATOM      6  O   UNL     1      13.222   8.246   0.664  0.00  0.00    -0.253 OA
ATOM     10  N   UNL     1      15.498   7.802   1.103  0.00  0.00    -0.283 N 
ATOM     12  N   UNL     1      14.082   8.110   2.837  0.00  0.00    -0.298 N 
ATOM     25  C   UNL     1      16.306   7.598   2.292  0.00  0.00    +0.128 C 
ATOM     26  C   UNL     1      15.373   7.922   3.449  0.00  0.00    +0.124 C 
ATOM     27  C   UNL     1      14.156   8.073   1.435  0.00  0.00    +0.302 C 
ATOM     36  H   UNL     1      13.226   8.296   3.351  0.00  0.00    +0.150 HD
ENDBRANCH  24  10
ENDBRANCH  22  24
ENDBRANCH   9  22
TORSDOF 6
ENDMDL
MODEL 5
REMARK VINA RESULT:      -6.8     22.230     27.031
REMARK  Name = 26742857
REMARK  6 active torsions:
REMARK  status: ('A' for Active; 'I' for Inactive)
REMARK    1  A    between atoms: O_7  and  C_33
REMARK    2  A    between atoms: O_7  and  C_34
REMARK    3  A    between atoms: N_9  and  C_22
REMARK    4  A    between atoms: N_10  and  C_24
REMARK    5  A    between atoms: N_11  and  C_28
REMARK    6  A    between atoms: C_22  and  C_24
REMARK                            x       y       z     vdW  Elec       q    Type
REMARK                         _______ _______ _______ _____ _____    ______ ____
ROOT
ATOM      4  O   UNL     1     -16.805  -0.168  29.788  0.00  0.00    -0.276 OA
ATOM      5  O   UNL     1     -15.158   4.513  34.569  0.00  0.00    -0.252 OA
ATOM      8  N   UNL     1     -13.867   3.489  32.948  0.00  0.00    -0.285 N 
ATOM      9  N   UNL     1     -16.265   1.953  29.019  0.00  0.00    -0.300 N 
ATOM     11  N   UNL     1     -14.016   5.841  33.048  0.00  0.00    -0.269 N 
ATOM     13  C   UNL     1     -13.540   2.748  30.601  0.00  0.00    +0.011 C 
ATOM     14  C   UNL     1     -13.948   1.319  31.039  0.00  0.00    +0.004 C 
ATOM     15  C   UNL     1     -14.853   1.338  32.286  0.00  0.00    +0.023 C 
ATOM     16  C   UNL     1     -12.939   3.497  31.807  0.00  0.00    +0.113 C 
ATOM     17  C   UNL     1     -14.663   3.588  29.965  0.00  0.00    +0.024 C 
ATOM     18  C   UNL     1     -14.511   0.454  29.904  0.00  0.00    +0.100 C 
ATOM     19  C   UNL     1     -14.221   2.149  33.418  0.00  0.00    +0.109 C 
ATOM     20  C   UNL     1     -15.251   2.959  28.706  0.00  0.00    +0.108 C 
ATOM     21  C   UNL     1     -15.968   0.710  29.565  0.00  0.00    +0.216 C 
ATOM     23  C   UNL     1     -14.398   4.620  33.603  0.00  0.00    +0.306 C 
ATOM     35  H   UNL     1     -13.804   5.869  32.056  0.00  0.00    +0.156 HD
ENDROOT
BRANCH  11  28
ATOM     28  C   UNL     1     -13.857   7.078  33.719  0.00  0.00    +0.035 A 
ATOM     29  C   UNL     1     -13.110   7.141  34.897  0.00  0.00    +0.027 A 
ATOM     30  C   UNL     1     -14.444   8.234  33.204  0.00  0.00    +0.027 A 
ATOM     31  C   UNL     1     -12.952   8.358  35.557  0.00  0.00    +0.048 A 
ATOM     32  C   UNL     1     -14.286   9.451  33.866  0.00  0.00    +0.048 A 
ATOM     33  C   UNL     1     -13.540   9.513  35.042  0.00  0.00    +0.130 A 
BRANCH  33   7
ATOM      7  O   UNL     1     -13.385  10.702  35.687  0.00  0.00    -0.406 OA
BRANCH   7  34
ATOM      1  F   UNL     1     -11.579  11.074  34.385  0.00  0.00    -0.133 F 
ATOM      2  F   UNL     1     -12.276  12.704  35.662  0.00  0.00    -0.133 F 
ATOM      3  F   UNL     1     -11.278  10.941  36.545  0.00  0.00    -0.133 F 
ATOM     34  C   UNL     1     -12.129  11.364  35.586  0.00  0.00    +0.575 C 
ENDBRANCH   7  34
ENDBRANCH  33   7
ENDBRANCH  11  28
BRANCH   9  22
ATOM     22  C   UNL     1     -17.649   2.315  28.740  0.00  0.00    +0.126 C 
BRANCH  22  24
ATOM     24  C   UNL     1     -18.134   1.749  27.417  0.00  0.00    +0.128 C 
BRANCH  24  10
ATOM      6  O   UNL     1     -16.508   0.264  25.372  0.00  0.00    -0.253 OA
ATOM     10  N   UNL     1     -17.373   2.252  26.304  0.00  0.00    -0.283 N 
ATOM     12  N   UNL     1     -16.084   2.375  24.452  0.00  0.00    -0.298 N 
ATOM     25  C   UNL     1     -17.350   3.660  25.953  0.00  0.00    +0.128 C 
ATOM     26  C   UNL     1     -16.388   3.745  24.777  0.00  0.00    +0.124 C 
ATOM     27  C   UNL     1     -16.641   1.481  25.380  0.00  0.00    +0.302 C 
ATOM     36  H   UNL     1     -15.497   2.087  23.674  0.00  0.00    +0.150 HD
ENDBRANCH  24  10
ENDBRANCH  22  24
ENDBRANCH   9  22
TORSDOF 6
ENDMDL
MODEL 6
REMARK VINA RESULT:      -6.6     29.519     31.997
REMARK  Name = 26742857
REMARK  6 active torsions:
REMARK  status: ('A' for Active; 'I' for Inactive)
REMARK    1  A    between atoms: O_7  and  C_33
REMARK    2  A    between atoms: O_7  and  C_34
REMARK    3  A    between atoms: N_9  and  C_22
REMARK    4  A    between atoms: N_10  and  C_24
REMARK    5  A    between atoms: N_11  and  C_28
REMARK    6  A    between atoms: C_22  and  C_24
REMARK                            x       y       z     vdW  Elec       q    Type
REMARK                         _______ _______ _______ _____ _____    ______ ____
ROOT
ATOM      4  O   UNL     1      24.715   7.636  19.633  0.00  0.00    -0.276 OA
ATOM      5  O   UNL     1      18.194   5.479  19.090  0.00  0.00    -0.252 OA
ATOM      8  N   UNL     1      19.422   6.128  20.937  0.00  0.00    -0.285 N 
ATOM      9  N   UNL     1      23.065   9.211  20.055  0.00  0.00    -0.300 N 
ATOM     11  N   UNL     1      17.387   7.201  20.418  0.00  0.00    -0.269 N 
ATOM     13  C   UNL     1      20.974   7.717  22.045  0.00  0.00    +0.011 C 
ATOM     14  C   UNL     1      22.132   6.735  21.743  0.00  0.00    +0.004 C 
ATOM     15  C   UNL     1      21.827   5.849  20.518  0.00  0.00    +0.023 C 
ATOM     16  C   UNL     1      19.653   6.931  22.147  0.00  0.00    +0.113 C 
ATOM     17  C   UNL     1      20.820   8.881  21.047  0.00  0.00    +0.024 C 
ATOM     18  C   UNL     1      23.514   7.397  21.673  0.00  0.00    +0.100 C 
ATOM     19  C   UNL     1      20.476   5.149  20.663  0.00  0.00    +0.109 C 
ATOM     20  C   UNL     1      22.057   9.767  20.956  0.00  0.00    +0.108 C 
ATOM     21  C   UNL     1      23.827   8.089  20.359  0.00  0.00    +0.216 C 
ATOM     23  C   UNL     1      18.308   6.212  20.076  0.00  0.00    +0.306 C 
ATOM     35  H   UNL     1      17.728   8.022  20.906  0.00  0.00    +0.156 HD
ENDROOT
BRANCH  11  28
ATOM     28  C   UNL     1      15.989   7.190  20.189  0.00  0.00    +0.035 A 
ATOM     29  C   UNL     1      15.491   7.438  18.909  0.00  0.00    +0.027 A 
ATOM     30  C   UNL     1      15.111   6.931  21.241  0.00  0.00    +0.027 A 
ATOM     31  C   UNL     1      14.115   7.427  18.683  0.00  0.00    +0.048 A 
ATOM     32  C   UNL     1      13.735   6.921  21.014  0.00  0.00    +0.048 A 
ATOM     33  C   UNL     1      13.237   7.168  19.736  0.00  0.00    +0.130 A 
BRANCH  33   7
ATOM      7  O   UNL     1      11.894   7.157  19.514  0.00  0.00    -0.406 OA
BRANCH   7  34
ATOM      1  F   UNL     1      12.043   9.357  19.993  0.00  0.00    -0.133 F 
ATOM      2  F   UNL     1      10.485   8.713  18.603  0.00  0.00    -0.133 F 
ATOM      3  F   UNL     1      10.320   8.255  20.758  0.00  0.00    -0.133 F 
ATOM     34  C   UNL     1      11.168   8.365  19.714  0.00  0.00    +0.575 C 
ENDBRANCH   7  34
ENDBRANCH  33   7
ENDBRANCH  11  28
BRANCH   9  22
ATOM     22  C   UNL     1      23.241   9.887  18.776  0.00  0.00    +0.126 C 
BRANCH  22  24
ATOM     24  C   UNL     1      22.708  11.310  18.803  0.00  0.00    +0.128 C 
BRANCH  24  10
ATOM      6  O   UNL     1      20.079  12.757  18.644  0.00  0.00    -0.253 OA
ATOM     10  N   UNL     1      21.883  11.597  17.660  0.00  0.00    -0.283 N 
ATOM     12  N   UNL     1      20.219  12.369  16.340  0.00  0.00    -0.298 N 
ATOM     25  C   UNL     1      22.285  11.258  16.306  0.00  0.00    +0.128 C 
ATOM     26  C   UNL     1      21.107  11.678  15.440  0.00  0.00    +0.124 C 
ATOM     27  C   UNL     1      20.660  12.296  17.671  0.00  0.00    +0.302 C 
ATOM     36  H   UNL     1      19.352  12.817  16.057  0.00  0.00    +0.150 HD
ENDBRANCH  24  10
ENDBRANCH  22  24
ENDBRANCH   9  22
TORSDOF 6
ENDMDL
MODEL 7
REMARK VINA RESULT:      -6.5     25.006     28.284
REMARK  Name = 26742857
REMARK  6 active torsions:
REMARK  status: ('A' for Active; 'I' for Inactive)
REMARK    1  A    between atoms: O_7  and  C_33
REMARK    2  A    between atoms: O_7  and  C_34
REMARK    3  A    between atoms: N_9  and  C_22
REMARK    4  A    between atoms: N_10  and  C_24
REMARK    5  A    between atoms: N_11  and  C_28
REMARK    6  A    between atoms: C_22  and  C_24
REMARK                            x       y       z     vdW  Elec       q    Type
REMARK                         _______ _______ _______ _____ _____    ______ ____
ROOT
ATOM      4  O   UNL     1      14.719   6.234  -3.108  0.00  0.00    -0.276 OA
ATOM      5  O   UNL     1      10.073   6.204   1.980  0.00  0.00    -0.252 OA
ATOM      8  N   UNL     1      11.516   4.557   1.241  0.00  0.00    -0.285 N 
ATOM      9  N   UNL     1      15.552   6.131  -0.945  0.00  0.00    -0.300 N 
ATOM     11  N   UNL     1      11.558   5.260   3.492  0.00  0.00    -0.269 N 
ATOM     13  C   UNL     1      13.781   3.836   0.524  0.00  0.00    +0.011 C 
ATOM     14  C   UNL     1      13.304   3.941  -0.946  0.00  0.00    +0.004 C 
ATOM     15  C   UNL     1      12.144   4.944  -1.103  0.00  0.00    +0.023 C 
ATOM     16  C   UNL     1      12.570   3.548   1.432  0.00  0.00    +0.113 C 
ATOM     17  C   UNL     1      14.559   5.056   1.052  0.00  0.00    +0.024 C 
ATOM     18  C   UNL     1      14.435   4.172  -1.957  0.00  0.00    +0.100 C 
ATOM     19  C   UNL     1      11.007   4.632  -0.129  0.00  0.00    +0.109 C 
ATOM     20  C   UNL     1      15.828   5.353   0.261  0.00  0.00    +0.108 C 
ATOM     21  C   UNL     1      14.914   5.607  -2.065  0.00  0.00    +0.216 C 
ATOM     23  C   UNL     1      10.973   5.399   2.234  0.00  0.00    +0.306 C 
ATOM     35  H   UNL     1      12.527   4.963   3.537  0.00  0.00    +0.156 HD
ENDROOT
BRANCH  11  28
ATOM     28  C   UNL     1      10.943   5.459   4.753  0.00  0.00    +0.035 A 
ATOM     29  C   UNL     1      11.547   6.288   5.699  0.00  0.00    +0.027 A 
ATOM     30  C   UNL     1       9.734   4.830   5.048  0.00  0.00    +0.027 A 
ATOM     31  C   UNL     1      10.943   6.485   6.940  0.00  0.00    +0.048 A 
ATOM     32  C   UNL     1       9.130   5.027   6.289  0.00  0.00    +0.048 A 
ATOM     33  C   UNL     1       9.734   5.855   7.235  0.00  0.00    +0.130 A 
BRANCH  33   7
ATOM      7  O   UNL     1       9.143   6.048   8.446  0.00  0.00    -0.406 OA
BRANCH   7  34
ATOM      1  F   UNL     1      10.493   5.329  10.106  0.00  0.00    -0.133 F 
ATOM      2  F   UNL     1       8.336   5.088  10.360  0.00  0.00    -0.133 F 
ATOM      3  F   UNL     1       9.438   3.830   8.917  0.00  0.00    -0.133 F 
ATOM     34  C   UNL     1       9.337   5.063   9.455  0.00  0.00    +0.575 C 
ENDBRANCH   7  34
ENDBRANCH  33   7
ENDBRANCH  11  28
BRANCH   9  22
ATOM     22  C   UNL     1      15.971   7.527  -0.931  0.00  0.00    +0.126 C 
BRANCH  22  24
ATOM     24  C   UNL     1      17.324   7.713  -0.266  0.00  0.00    +0.128 C 
BRANCH  24  10
ATOM      6  O   UNL     1      18.819   5.640  -1.846  0.00  0.00    -0.253 OA
ATOM     10  N   UNL     1      18.380   7.874  -1.229  0.00  0.00    -0.283 N 
ATOM     12  N   UNL     1      19.963   7.453  -2.786  0.00  0.00    -0.298 N 
ATOM     25  C   UNL     1      18.851   9.181  -1.653  0.00  0.00    +0.128 C 
ATOM     26  C   UNL     1      19.994   8.883  -2.613  0.00  0.00    +0.124 C 
ATOM     27  C   UNL     1      19.025   6.843  -1.939  0.00  0.00    +0.302 C 
ATOM     36  H   UNL     1      20.578   6.939  -3.410  0.00  0.00    +0.150 HD
ENDBRANCH  24  10
ENDBRANCH  22  24
ENDBRANCH   9  22
TORSDOF 6
ENDMDL
MODEL 8
REMARK VINA RESULT:      -6.5     24.232     28.544
REMARK  Name = 26742857
REMARK  6 active torsions:
REMARK  status: ('A' for Active; 'I' for Inactive)
REMARK    1  A    between atoms: O_7  and  C_33
REMARK    2  A    between atoms: O_7  and  C_34
REMARK    3  A    between atoms: N_9  and  C_22
REMARK    4  A    between atoms: N_10  and  C_24
REMARK    5  A    between atoms: N_11  and  C_28
REMARK    6  A    between atoms: C_22  and  C_24
REMARK                            x       y       z     vdW  Elec       q    Type
REMARK                         _______ _______ _______ _____ _____    ______ ____
ROOT
ATOM      4  O   UNL     1     -11.150  12.525  34.354  0.00  0.00    -0.276 OA
ATOM      5  O   UNL     1     -14.385   6.455  34.771  0.00  0.00    -0.252 OA
ATOM      8  N   UNL     1     -14.453   8.096  33.144  0.00  0.00    -0.285 N 
ATOM      9  N   UNL     1     -10.505  10.901  32.829  0.00  0.00    -0.300 N 
ATOM     11  N   UNL     1     -13.850   5.884  32.587  0.00  0.00    -0.269 N 
ATOM     13  C   UNL     1     -13.290   9.705  31.654  0.00  0.00    +0.011 C 
ATOM     14  C   UNL     1     -13.638  10.828  32.662  0.00  0.00    +0.004 C 
ATOM     15  C   UNL     1     -13.833  10.278  34.089  0.00  0.00    +0.023 C 
ATOM     16  C   UNL     1     -14.339   8.582  31.761  0.00  0.00    +0.113 C 
ATOM     17  C   UNL     1     -11.872   9.117  31.788  0.00  0.00    +0.024 C 
ATOM     18  C   UNL     1     -12.692  12.033  32.610  0.00  0.00    +0.100 C 
ATOM     19  C   UNL     1     -14.841   9.128  34.107  0.00  0.00    +0.109 C 
ATOM     20  C   UNL     1     -10.768  10.152  31.601  0.00  0.00    +0.108 C 
ATOM     21  C   UNL     1     -11.379  11.849  33.349  0.00  0.00    +0.216 C 
ATOM     23  C   UNL     1     -14.247   6.772  33.587  0.00  0.00    +0.306 C 
ATOM     35  H   UNL     1     -13.329   6.255  31.800  0.00  0.00    +0.156 HD
ENDROOT
BRANCH  11  28
ATOM     28  C   UNL     1     -14.115   4.495  32.518  0.00  0.00    +0.035 A 
ATOM     29  C   UNL     1     -15.380   4.008  32.849  0.00  0.00    +0.027 A 
ATOM     30  C   UNL     1     -13.112   3.612  32.116  0.00  0.00    +0.027 A 
ATOM     31  C   UNL     1     -15.641   2.641  32.780  0.00  0.00    +0.048 A 
ATOM     32  C   UNL     1     -13.374   2.244  32.048  0.00  0.00    +0.048 A 
ATOM     33  C   UNL     1     -14.638   1.758  32.379  0.00  0.00    +0.130 A 
BRANCH  33   7
ATOM      7  O   UNL     1     -14.894   0.423  32.311  0.00  0.00    -0.406 OA
BRANCH   7  34
ATOM      1  F   UNL     1     -13.878  -0.530  30.535  0.00  0.00    -0.133 F 
ATOM      2  F   UNL     1     -15.856  -1.266  31.103  0.00  0.00    -0.133 F 
ATOM      3  F   UNL     1     -15.630   0.723  30.167  0.00  0.00    -0.133 F 
ATOM     34  C   UNL     1     -15.083  -0.161  31.027  0.00  0.00    +0.575 C 
ENDBRANCH   7  34
ENDBRANCH  33   7
ENDBRANCH  11  28
BRANCH   9  22
ATOM     22  C   UNL     1      -9.259  10.600  33.522  0.00  0.00    +0.126 C 
BRANCH  22  24
ATOM     24  C   UNL     1      -9.482   9.738  34.753  0.00  0.00    +0.128 C 
BRANCH  24  10
ATOM      6  O   UNL     1      -8.847   7.782  36.944  0.00  0.00    -0.253 OA
ATOM     10  N   UNL     1      -8.277   9.577  35.523  0.00  0.00    -0.283 N 
ATOM     12  N   UNL     1      -6.742   8.804  36.991  0.00  0.00    -0.298 N 
ATOM     25  C   UNL     1      -7.082  10.360  35.267  0.00  0.00    +0.128 C 
ATOM     26  C   UNL     1      -6.095   9.913  36.336  0.00  0.00    +0.124 C 
ATOM     27  C   UNL     1      -8.056   8.620  36.533  0.00  0.00    +0.302 C 
ATOM     36  H   UNL     1      -6.319   8.250  37.729  0.00  0.00    +0.150 HD
ENDBRANCH  24  10
ENDBRANCH  22  24
ENDBRANCH   9  22
TORSDOF 6
ENDMDL
MODEL 9
REMARK VINA RESULT:      -6.5     23.544     26.832
REMARK  Name = 26742857
REMARK  6 active torsions:
REMARK  status: ('A' for Active; 'I' for Inactive)
REMARK    1  A    between atoms: O_7  and  C_33
REMARK    2  A    between atoms: O_7  and  C_34
REMARK    3  A    between atoms: N_9  and  C_22
REMARK    4  A    between atoms: N_10  and  C_24
REMARK    5  A    between atoms: N_11  and  C_28
REMARK    6  A    between atoms: C_22  and  C_24
REMARK                            x       y       z     vdW  Elec       q    Type
REMARK                         _______ _______ _______ _____ _____    ______ ____
ROOT
ATOM      4  O   UNL     1      12.442   6.404  -3.716  0.00  0.00    -0.276 OA
ATOM      5  O   UNL     1      13.358   6.591   3.111  0.00  0.00    -0.252 OA
ATOM      8  N   UNL     1      11.919   7.778   1.745  0.00  0.00    -0.285 N 
ATOM      9  N   UNL     1      10.699   5.597  -2.414  0.00  0.00    -0.300 N 
ATOM     11  N   UNL     1      11.080   6.498   3.540  0.00  0.00    -0.269 N 
ATOM     13  C   UNL     1      10.269   7.846  -0.107  0.00  0.00    +0.011 C 
ATOM     14  C   UNL     1      11.402   8.332  -1.045  0.00  0.00    +0.004 C 
ATOM     15  C   UNL     1      12.790   7.878  -0.550  0.00  0.00    +0.023 C 
ATOM     16  C   UNL     1      10.592   8.264   1.340  0.00  0.00    +0.113 C 
ATOM     17  C   UNL     1       9.968   6.337  -0.167  0.00  0.00    +0.024 C 
ATOM     18  C   UNL     1      11.165   8.022  -2.528  0.00  0.00    +0.100 C 
ATOM     19  C   UNL     1      13.014   8.273   0.910  0.00  0.00    +0.109 C 
ATOM     20  C   UNL     1       9.548   5.857  -1.552  0.00  0.00    +0.108 C 
ATOM     21  C   UNL     1      11.499   6.603  -2.947  0.00  0.00    +0.216 C 
ATOM     23  C   UNL     1      12.204   6.931   2.837  0.00  0.00    +0.306 C 
ATOM     35  H   UNL     1      10.203   6.417   3.035  0.00  0.00    +0.156 HD
ENDROOT
BRANCH  11  28
ATOM     28  C   UNL     1      10.999   6.174   4.916  0.00  0.00    +0.035 A 
ATOM     29  C   UNL     1      11.768   6.877   5.845  0.00  0.00    +0.027 A 
ATOM     30  C   UNL     1      10.151   5.153   5.345  0.00  0.00    +0.027 A 
ATOM     31  C   UNL     1      11.689   6.559   7.199  0.00  0.00    +0.048 A 
ATOM     32  C   UNL     1      10.072   4.835   6.701  0.00  0.00    +0.048 A 
ATOM     33  C   UNL     1      10.841   5.538   7.628  0.00  0.00    +0.130 A 
BRANCH  33   7
ATOM      7  O   UNL     1      10.763   5.228   8.951  0.00  0.00    -0.406 OA
BRANCH   7  34
ATOM      1  F   UNL     1       8.628   5.914   9.207  0.00  0.00    -0.133 F 
ATOM      2  F   UNL     1       8.995   3.775   8.950  0.00  0.00    -0.133 F 
ATOM      3  F   UNL     1       9.546   4.785  10.836  0.00  0.00    -0.133 F 
ATOM     34  C   UNL     1       9.486   4.909   9.494  0.00  0.00    +0.575 C 
ENDBRANCH   7  34
ENDBRANCH  33   7
ENDBRANCH  11  28
BRANCH   9  22
ATOM     22  C   UNL     1      11.000   4.200  -2.697  0.00  0.00    +0.126 C 
BRANCH  22  24
ATOM     24  C   UNL     1      11.253   3.401  -1.430  0.00  0.00    +0.128 C 
BRANCH  24  10
ATOM      6  O   UNL     1      11.741   3.958   1.483  0.00  0.00    -0.253 OA
ATOM     10  N   UNL     1      12.456   3.817  -0.761  0.00  0.00    -0.283 N 
ATOM     12  N   UNL     1      13.944   4.407   0.835  0.00  0.00    -0.298 N 
ATOM     25  C   UNL     1      13.721   3.966  -1.459  0.00  0.00    +0.128 C 
ATOM     26  C   UNL     1      14.686   4.474  -0.399  0.00  0.00    +0.124 C 
ATOM     27  C   UNL     1      12.604   4.049   0.621  0.00  0.00    +0.302 C 
ATOM     36  H   UNL     1      14.328   4.638   1.747  0.00  0.00    +0.150 HD
ENDBRANCH  24  10
ENDBRANCH  22  24
ENDBRANCH   9  22
TORSDOF 6
ENDMDL
MODEL 10
REMARK VINA RESULT:      -6.4     22.475     25.335
REMARK  Name = 26742857
REMARK  6 active torsions:
REMARK  status: ('A' for Active; 'I' for Inactive)
REMARK    1  A    between atoms: O_7  and  C_33
REMARK    2  A    between atoms: O_7  and  C_34
REMARK    3  A    between atoms: N_9  and  C_22
REMARK    4  A    between atoms: N_10  and  C_24
REMARK    5  A    between atoms: N_11  and  C_28
REMARK    6  A    between atoms: C_22  and  C_24
REMARK                            x       y       z     vdW  Elec       q    Type
REMARK                         _______ _______ _______ _____ _____    ______ ____
ROOT
ATOM      4  O   UNL     1       3.078  12.276   0.343  0.00  0.00    -0.276 OA
ATOM      5  O   UNL     1       8.009   8.320   3.082  0.00  0.00    -0.252 OA
ATOM      8  N   UNL     1       7.545  10.567   3.361  0.00  0.00    -0.285 N 
ATOM      9  N   UNL     1       2.927  11.861   2.620  0.00  0.00    -0.300 N 
ATOM     11  N   UNL     1       7.632   9.124   5.225  0.00  0.00    -0.269 N 
ATOM     13  C   UNL     1       5.921  12.399   3.767  0.00  0.00    +0.011 C 
ATOM     14  C   UNL     1       5.931  12.691   2.246  0.00  0.00    +0.004 C 
ATOM     15  C   UNL     1       6.311  11.442   1.425  0.00  0.00    +0.023 C 
ATOM     16  C   UNL     1       7.263  11.761   4.172  0.00  0.00    +0.113 C 
ATOM     17  C   UNL     1       4.751  11.527   4.262  0.00  0.00    +0.024 C 
ATOM     18  C   UNL     1       4.662  13.382   1.732  0.00  0.00    +0.100 C 
ATOM     19  C   UNL     1       7.620  10.829   1.923  0.00  0.00    +0.109 C 
ATOM     20  C   UNL     1       3.382  12.136   3.982  0.00  0.00    +0.108 C 
ATOM     21  C   UNL     1       3.482  12.458   1.493  0.00  0.00    +0.216 C 
ATOM     23  C   UNL     1       7.759   9.258   3.843  0.00  0.00    +0.306 C 
ATOM     35  H   UNL     1       7.007   9.760   5.711  0.00  0.00    +0.156 HD
ENDROOT
BRANCH  11  28
ATOM     28  C   UNL     1       8.304   8.203   6.065  0.00  0.00    +0.035 A 
ATOM     29  C   UNL     1       8.261   6.838   5.779  0.00  0.00    +0.027 A 
ATOM     30  C   UNL     1       9.012   8.659   7.177  0.00  0.00    +0.027 A 
ATOM     31  C   UNL     1       8.923   5.931   6.605  0.00  0.00    +0.048 A 
ATOM     32  C   UNL     1       9.674   7.752   8.004  0.00  0.00    +0.048 A 
ATOM     33  C   UNL     1       9.629   6.388   7.718  0.00  0.00    +0.130 A 
BRANCH  33   7
ATOM      7  O   UNL     1      10.277   5.502   8.524  0.00  0.00    -0.406 OA
BRANCH   7  34
ATOM      1  F   UNL     1      10.245   4.637  10.608  0.00  0.00    -0.133 F 
ATOM      2  F   UNL     1       8.380   5.442   9.801  0.00  0.00    -0.133 F 
ATOM      3  F   UNL     1       9.206   3.545   9.027  0.00  0.00    -0.133 F 
ATOM     34  C   UNL     1       9.511   4.779   9.481  0.00  0.00    +0.575 C 
ENDBRANCH   7  34
ENDBRANCH  33   7
ENDBRANCH  11  28
BRANCH   9  22
ATOM     22  C   UNL     1       1.845  10.897   2.477  0.00  0.00    +0.126 C 
BRANCH  22  24
ATOM     24  C   UNL     1       0.485  11.516   2.750  0.00  0.00    +0.128 C 
BRANCH  24  10
ATOM      6  O   UNL     1       0.337  12.247   5.661  0.00  0.00    -0.253 OA
ATOM     10  N   UNL     1      -0.199  10.857   3.831  0.00  0.00    -0.283 N 
ATOM     12  N   UNL     1      -1.031  10.359   5.873  0.00  0.00    -0.298 N 
ATOM     25  C   UNL     1      -1.039   9.692   3.623  0.00  0.00    +0.128 C 
ATOM     26  C   UNL     1      -1.499   9.297   5.019  0.00  0.00    +0.124 C 
ATOM     27  C   UNL     1      -0.226  11.275   5.176  0.00  0.00    +0.302 C 
ATOM     36  H   UNL     1      -1.218  10.417   6.869  0.00  0.00    +0.150 HD
ENDBRANCH  24  10
ENDBRANCH  22  24
ENDBRANCH   9  22
TORSDOF 6
ENDMDL
