MODEL 1
REMARK VINA RESULT:      -6.9      0.000      0.000
REMARK  Name = 75367730
REMARK  6 active torsions:
REMARK  status: ('A' for Active; 'I' for Inactive)
REMARK    1  A    between atoms: O_5  and  C_11
REMARK    2  A    between atoms: O_5  and  C_19
REMARK    3  A    between atoms: O_6  and  C_22
REMARK    4  A    between atoms: O_6  and  C_26
REMARK    5  A    between atoms: N_7  and  C_13
REMARK    6  A    between atoms: C_13  and  C_16
REMARK                            x       y       z     vdW  Elec       q    Type
REMARK                         _______ _______ _______ _____ _____    ______ ____
ROOT
ATOM      4  O   UNL     1      15.019  10.684  18.059  0.00  0.00    -0.375 OA
ATOM      7  N   UNL     1      15.659   8.962  20.275  0.00  0.00    -0.292 NA
ATOM     10  C   UNL     1      14.248   8.618  20.104  0.00  0.00    +0.131 C 
ATOM     11  C   UNL     1      13.871   8.573  18.617  0.00  0.00    +0.215 C 
ATOM     12  C   UNL     1      15.936  10.402  20.305  0.00  0.00    +0.113 C 
ATOM     14  C   UNL     1      13.826   9.924  17.909  0.00  0.00    +0.205 C 
ATOM     15  C   UNL     1      15.124  11.274  19.350  0.00  0.00    +0.175 C 
ENDROOT
BRANCH  11   5
ATOM      5  O   UNL     1      12.586   7.962  18.508  0.00  0.00    -0.468 OA
BRANCH   5  19
ATOM      8  N   UNL     1      11.966   6.495  20.202  0.00  0.00    -0.219 NA
ATOM      9  N   UNL     1      10.543   8.571  21.438  0.00  0.00    -0.256 NA
ATOM     19  C   UNL     1      11.915   7.736  19.678  0.00  0.00    +0.234 A 
ATOM     23  C   UNL     1      11.215   8.755  20.286  0.00  0.00    +0.177 A 
ATOM     24  C   UNL     1      11.294   6.311  21.356  0.00  0.00    +0.134 A 
ATOM     25  C   UNL     1      10.594   7.331  21.963  0.00  0.00    +0.130 A 
ENDBRANCH   5  19
ENDBRANCH  11   5
BRANCH   7  13
ATOM     13  C   UNL     1      16.227   8.318  21.461  0.00  0.00    +0.119 C 
BRANCH  13  16
ATOM     16  C   UNL     1      17.519   7.612  21.150  0.00  0.00    -0.033 A 
ATOM     17  C   UNL     1      18.725   8.119  21.633  0.00  0.00    +0.008 A 
ATOM     18  C   UNL     1      17.511   6.451  20.378  0.00  0.00    +0.008 A 
ATOM     20  C   UNL     1      19.923   7.465  21.346  0.00  0.00    +0.046 A 
ATOM     21  C   UNL     1      18.708   5.796  20.089  0.00  0.00    +0.046 A 
ATOM     22  C   UNL     1      19.914   6.303  20.572  0.00  0.00    +0.130 A 
BRANCH  22   6
ATOM      6  O   UNL     1      21.083   5.664  20.291  0.00  0.00    -0.406 OA
BRANCH   6  26
ATOM      1  F   UNL     1      22.746   4.277  21.029  0.00  0.00    -0.133 F 
ATOM      2  F   UNL     1      21.047   4.706  22.335  0.00  0.00    -0.133 F 
ATOM      3  F   UNL     1      20.757   3.419  20.592  0.00  0.00    -0.133 F 
ATOM     26  C   UNL     1      21.416   4.505  21.049  0.00  0.00    +0.575 C 
ENDBRANCH   6  26
ENDBRANCH  22   6
ENDBRANCH  13  16
ENDBRANCH   7  13
TORSDOF 6
ENDMDL
MODEL 2
REMARK VINA RESULT:      -6.9      2.983      3.852
REMARK  Name = 75367730
REMARK  6 active torsions:
REMARK  status: ('A' for Active; 'I' for Inactive)
REMARK    1  A    between atoms: O_5  and  C_11
REMARK    2  A    between atoms: O_5  and  C_19
REMARK    3  A    between atoms: O_6  and  C_22
REMARK    4  A    between atoms: O_6  and  C_26
REMARK    5  A    between atoms: N_7  and  C_13
REMARK    6  A    between atoms: C_13  and  C_16
REMARK                            x       y       z     vdW  Elec       q    Type
REMARK                         _______ _______ _______ _____ _____    ______ ____
ROOT
ATOM      4  O   UNL     1      11.964   7.073  21.966  0.00  0.00    -0.375 OA
ATOM      7  N   UNL     1      14.128   8.101  20.370  0.00  0.00    -0.292 NA
ATOM     10  C   UNL     1      13.269   9.284  20.400  0.00  0.00    +0.131 C 
ATOM     11  C   UNL     1      12.607   9.446  21.775  0.00  0.00    +0.215 C 
ATOM     12  C   UNL     1      13.437   6.854  20.029  0.00  0.00    +0.113 C 
ATOM     14  C   UNL     1      11.530   8.419  22.111  0.00  0.00    +0.205 C 
ATOM     15  C   UNL     1      12.032   6.673  20.601  0.00  0.00    +0.175 C 
ENDROOT
BRANCH  11   5
ATOM      5  O   UNL     1      12.024  10.748  21.831  0.00  0.00    -0.468 OA
BRANCH   5  19
ATOM      8  N   UNL     1      13.053  11.521  23.767  0.00  0.00    -0.219 NA
ATOM      9  N   UNL     1      10.538  12.230  24.785  0.00  0.00    -0.256 NA
ATOM     19  C   UNL     1      11.917  11.318  23.069  0.00  0.00    +0.234 A 
ATOM     23  C   UNL     1      10.682  11.667  23.570  0.00  0.00    +0.177 A 
ATOM     24  C   UNL     1      12.909  12.085  24.983  0.00  0.00    +0.134 A 
ATOM     25  C   UNL     1      11.673  12.432  25.483  0.00  0.00    +0.130 A 
ENDBRANCH   5  19
ENDBRANCH  11   5
BRANCH   7  13
ATOM     13  C   UNL     1      15.277   8.296  19.483  0.00  0.00    +0.119 C 
BRANCH  13  16
ATOM     16  C   UNL     1      16.538   7.713  20.063  0.00  0.00    -0.033 A 
ATOM     17  C   UNL     1      17.188   8.362  21.113  0.00  0.00    +0.008 A 
ATOM     18  C   UNL     1      17.056   6.524  19.550  0.00  0.00    +0.008 A 
ATOM     20  C   UNL     1      18.356   7.821  21.651  0.00  0.00    +0.046 A 
ATOM     21  C   UNL     1      18.225   5.984  20.086  0.00  0.00    +0.046 A 
ATOM     22  C   UNL     1      18.875   6.633  21.136  0.00  0.00    +0.130 A 
BRANCH  22   6
ATOM      6  O   UNL     1      20.015   6.105  21.661  0.00  0.00    -0.406 OA
BRANCH   6  26
ATOM      1  F   UNL     1      21.236   7.190  20.059  0.00  0.00    -0.133 F 
ATOM      2  F   UNL     1      22.273   6.126  21.662  0.00  0.00    -0.133 F 
ATOM      3  F   UNL     1      21.256   4.981  20.102  0.00  0.00    -0.133 F 
ATOM     26  C   UNL     1      21.188   6.100  20.854  0.00  0.00    +0.575 C 
ENDBRANCH   6  26
ENDBRANCH  22   6
ENDBRANCH  13  16
ENDBRANCH   7  13
TORSDOF 6
ENDMDL
MODEL 3
REMARK VINA RESULT:      -6.7     15.689     18.020
REMARK  Name = 75367730
REMARK  6 active torsions:
REMARK  status: ('A' for Active; 'I' for Inactive)
REMARK    1  A    between atoms: O_5  and  C_11
REMARK    2  A    between atoms: O_5  and  C_19
REMARK    3  A    between atoms: O_6  and  C_22
REMARK    4  A    between atoms: O_6  and  C_26
REMARK    5  A    between atoms: N_7  and  C_13
REMARK    6  A    between atoms: C_13  and  C_16
REMARK                            x       y       z     vdW  Elec       q    Type
REMARK                         _______ _______ _______ _____ _____    ______ ____
ROOT
ATOM      4  O   UNL     1      11.149   9.676   1.811  0.00  0.00    -0.375 OA
ATOM      7  N   UNL     1       9.260   8.061   3.264  0.00  0.00    -0.292 NA
ATOM     10  C   UNL     1       9.463   7.202   2.099  0.00  0.00    +0.131 C 
ATOM     11  C   UNL     1      10.931   7.224   1.650  0.00  0.00    +0.215 C 
ATOM     12  C   UNL     1       8.996   9.468   2.946  0.00  0.00    +0.113 C 
ATOM     14  C   UNL     1      11.403   8.527   1.011  0.00  0.00    +0.205 C 
ATOM     15  C   UNL     1       9.779  10.063   1.778  0.00  0.00    +0.175 C 
ENDROOT
BRANCH  11   5
ATOM      5  O   UNL     1      11.119   6.166   0.710  0.00  0.00    -0.468 OA
BRANCH   5  19
ATOM      8  N   UNL     1      11.721   4.035   1.419  0.00  0.00    -0.219 NA
ATOM      9  N   UNL     1      14.421   4.735   1.134  0.00  0.00    -0.256 NA
ATOM     19  C   UNL     1      12.101   5.259   0.999  0.00  0.00    +0.234 A 
ATOM     23  C   UNL     1      13.427   5.602   0.859  0.00  0.00    +0.177 A 
ATOM     24  C   UNL     1      12.716   3.168   1.694  0.00  0.00    +0.134 A 
ATOM     25  C   UNL     1      14.043   3.512   1.554  0.00  0.00    +0.130 A 
ENDBRANCH   5  19
ENDBRANCH  11   5
BRANCH   7  13
ATOM     13  C   UNL     1       8.208   7.539   4.138  0.00  0.00    +0.119 C 
BRANCH  13  16
ATOM     16  C   UNL     1       8.768   6.985   5.420  0.00  0.00    -0.033 A 
ATOM     17  C   UNL     1       8.692   7.733   6.596  0.00  0.00    +0.008 A 
ATOM     18  C   UNL     1       9.363   5.724   5.433  0.00  0.00    +0.008 A 
ATOM     20  C   UNL     1       9.210   7.219   7.784  0.00  0.00    +0.046 A 
ATOM     21  C   UNL     1       9.882   5.210   6.621  0.00  0.00    +0.046 A 
ATOM     22  C   UNL     1       9.807   5.958   7.797  0.00  0.00    +0.130 A 
BRANCH  22   6
ATOM      6  O   UNL     1      10.313   5.456   8.957  0.00  0.00    -0.406 OA
BRANCH   6  26
ATOM      1  F   UNL     1       9.117   3.512   9.115  0.00  0.00    -0.133 F 
ATOM      2  F   UNL     1      10.142   4.289  10.882  0.00  0.00    -0.133 F 
ATOM      3  F   UNL     1       8.361   5.316  10.141  0.00  0.00    -0.133 F 
ATOM     26  C   UNL     1       9.467   4.642   9.764  0.00  0.00    +0.575 C 
ENDBRANCH   6  26
ENDBRANCH  22   6
ENDBRANCH  13  16
ENDBRANCH   7  13
TORSDOF 6
ENDMDL
MODEL 4
REMARK VINA RESULT:      -6.5      6.077      7.233
REMARK  Name = 75367730
REMARK  6 active torsions:
REMARK  status: ('A' for Active; 'I' for Inactive)
REMARK    1  A    between atoms: O_5  and  C_11
REMARK    2  A    between atoms: O_5  and  C_19
REMARK    3  A    between atoms: O_6  and  C_22
REMARK    4  A    between atoms: O_6  and  C_26
REMARK    5  A    between atoms: N_7  and  C_13
REMARK    6  A    between atoms: C_13  and  C_16
REMARK                            x       y       z     vdW  Elec       q    Type
REMARK                         _______ _______ _______ _____ _____    ______ ____
ROOT
ATOM      4  O   UNL     1      14.087   9.926  15.301  0.00  0.00    -0.375 OA
ATOM      7  N   UNL     1      14.422  10.978  17.959  0.00  0.00    -0.292 NA
ATOM     10  C   UNL     1      13.089  10.392  18.099  0.00  0.00    +0.131 C 
ATOM     11  C   UNL     1      12.990   9.065  17.336  0.00  0.00    +0.215 C 
ATOM     12  C   UNL     1      14.599  11.812  16.767  0.00  0.00    +0.113 C 
ATOM     14  C   UNL     1      12.989   9.180  15.814  0.00  0.00    +0.205 C 
ATOM     15  C   UNL     1      13.920  11.328  15.487  0.00  0.00    +0.175 C 
ENDROOT
BRANCH  11   5
ATOM      5  O   UNL     1      11.786   8.414  17.740  0.00  0.00    -0.468 OA
BRANCH   5  19
ATOM      8  N   UNL     1      10.711   8.410  19.802  0.00  0.00    -0.219 NA
ATOM      9  N   UNL     1      12.676   6.670  20.790  0.00  0.00    -0.256 NA
ATOM     19  C   UNL     1      11.732   7.977  19.035  0.00  0.00    +0.234 A 
ATOM     23  C   UNL     1      12.696   7.122  19.521  0.00  0.00    +0.177 A 
ATOM     24  C   UNL     1      10.691   7.958  21.072  0.00  0.00    +0.134 A 
ATOM     25  C   UNL     1      11.657   7.104  21.557  0.00  0.00    +0.130 A 
ENDBRANCH   5  19
ENDBRANCH  11   5
BRANCH   7  13
ATOM     13  C   UNL     1      14.806  11.728  19.157  0.00  0.00    +0.119 C 
BRANCH  13  16
ATOM     16  C   UNL     1      13.813  11.547  20.274  0.00  0.00    -0.033 A 
ATOM     17  C   UNL     1      12.674  12.350  20.332  0.00  0.00    +0.008 A 
ATOM     18  C   UNL     1      14.033  10.576  21.251  0.00  0.00    +0.008 A 
ATOM     20  C   UNL     1      11.754  12.182  21.367  0.00  0.00    +0.046 A 
ATOM     21  C   UNL     1      13.114  10.408  22.287  0.00  0.00    +0.046 A 
ATOM     22  C   UNL     1      11.975  11.212  22.345  0.00  0.00    +0.130 A 
BRANCH  22   6
ATOM      6  O   UNL     1      11.077  11.047  23.355  0.00  0.00    -0.406 OA
BRANCH   6  26
ATOM      1  F   UNL     1      12.140  12.783  24.400  0.00  0.00    -0.133 F 
ATOM      2  F   UNL     1       9.981  12.885  24.076  0.00  0.00    -0.133 F 
ATOM      3  F   UNL     1      10.773  11.506  25.576  0.00  0.00    -0.133 F 
ATOM     26  C   UNL     1      11.007  12.051  24.364  0.00  0.00    +0.575 C 
ENDBRANCH   6  26
ENDBRANCH  22   6
ENDBRANCH  13  16
ENDBRANCH   7  13
TORSDOF 6
ENDMDL
MODEL 5
REMARK VINA RESULT:      -6.4     27.700     29.303
REMARK  Name = 75367730
REMARK  6 active torsions:
REMARK  status: ('A' for Active; 'I' for Inactive)
REMARK    1  A    between atoms: O_5  and  C_11
REMARK    2  A    between atoms: O_5  and  C_19
REMARK    3  A    between atoms: O_6  and  C_22
REMARK    4  A    between atoms: O_6  and  C_26
REMARK    5  A    between atoms: N_7  and  C_13
REMARK    6  A    between atoms: C_13  and  C_16
REMARK                            x       y       z     vdW  Elec       q    Type
REMARK                         _______ _______ _______ _____ _____    ______ ____
ROOT
ATOM      4  O   UNL     1      -3.291 -13.277  12.340  0.00  0.00    -0.375 OA
ATOM      7  N   UNL     1      -2.890 -11.418  14.501  0.00  0.00    -0.292 NA
ATOM     10  C   UNL     1      -2.566 -10.547  13.372  0.00  0.00    +0.131 C 
ATOM     11  C   UNL     1      -3.495 -10.823  12.182  0.00  0.00    +0.215 C 
ATOM     12  C   UNL     1      -2.230 -12.727  14.470  0.00  0.00    +0.113 C 
ATOM     14  C   UNL     1      -3.269 -12.153  11.467  0.00  0.00    +0.205 C 
ATOM     15  C   UNL     1      -2.095 -13.392  13.102  0.00  0.00    +0.175 C 
ENDROOT
BRANCH  11   5
ATOM      5  O   UNL     1      -3.323  -9.768  11.236  0.00  0.00    -0.468 OA
BRANCH   5  19
ATOM      8  N   UNL     1      -4.246  -9.647   9.105  0.00  0.00    -0.219 NA
ATOM      9  N   UNL     1      -6.655  -8.757  10.231  0.00  0.00    -0.256 NA
ATOM     19  C   UNL     1      -4.395  -9.484  10.435  0.00  0.00    +0.234 A 
ATOM     23  C   UNL     1      -5.578  -9.047  10.988  0.00  0.00    +0.177 A 
ATOM     24  C   UNL     1      -5.323  -9.358   8.349  0.00  0.00    +0.134 A 
ATOM     25  C   UNL     1      -6.506  -8.920   8.902  0.00  0.00    +0.130 A 
ENDBRANCH   5  19
ENDBRANCH  11   5
BRANCH   7  13
ATOM     13  C   UNL     1      -2.630 -10.755  15.781  0.00  0.00    +0.119 C 
BRANCH  13  16
ATOM     16  C   UNL     1      -3.858 -10.715  16.650  0.00  0.00    -0.033 A 
ATOM     17  C   UNL     1      -5.023 -10.106  16.185  0.00  0.00    +0.008 A 
ATOM     18  C   UNL     1      -3.829 -11.285  17.922  0.00  0.00    +0.008 A 
ATOM     20  C   UNL     1      -6.161 -10.069  16.991  0.00  0.00    +0.046 A 
ATOM     21  C   UNL     1      -4.966 -11.248  18.730  0.00  0.00    +0.046 A 
ATOM     22  C   UNL     1      -6.132 -10.639  18.264  0.00  0.00    +0.130 A 
BRANCH  22   6
ATOM      6  O   UNL     1      -7.242 -10.603  19.051  0.00  0.00    -0.406 OA
BRANCH   6  26
ATOM      1  F   UNL     1      -7.486 -12.527  20.265  0.00  0.00    -0.133 F 
ATOM      2  F   UNL     1      -9.263 -11.495  19.519  0.00  0.00    -0.133 F 
ATOM      3  F   UNL     1      -7.972 -12.556  18.110  0.00  0.00    -0.133 F 
ATOM     26  C   UNL     1      -7.978 -11.808  19.233  0.00  0.00    +0.575 C 
ENDBRANCH   6  26
ENDBRANCH  22   6
ENDBRANCH  13  16
ENDBRANCH   7  13
TORSDOF 6
ENDMDL
MODEL 6
REMARK VINA RESULT:      -6.4     29.535     32.372
REMARK  Name = 75367730
REMARK  6 active torsions:
REMARK  status: ('A' for Active; 'I' for Inactive)
REMARK    1  A    between atoms: O_5  and  C_11
REMARK    2  A    between atoms: O_5  and  C_19
REMARK    3  A    between atoms: O_6  and  C_22
REMARK    4  A    between atoms: O_6  and  C_26
REMARK    5  A    between atoms: N_7  and  C_13
REMARK    6  A    between atoms: C_13  and  C_16
REMARK                            x       y       z     vdW  Elec       q    Type
REMARK                         _______ _______ _______ _____ _____    ______ ____
ROOT
ATOM      4  O   UNL     1     -16.956   5.361  32.154  0.00  0.00    -0.375 OA
ATOM      7  N   UNL     1     -14.556   6.675  33.049  0.00  0.00    -0.292 NA
ATOM     10  C   UNL     1     -14.289   5.325  33.543  0.00  0.00    +0.131 C 
ATOM     11  C   UNL     1     -14.779   4.268  32.544  0.00  0.00    +0.215 C 
ATOM     12  C   UNL     1     -15.890   7.190  33.374  0.00  0.00    +0.113 C 
ATOM     14  C   UNL     1     -16.295   4.131  32.423  0.00  0.00    +0.205 C 
ATOM     15  C   UNL     1     -17.043   6.190  33.308  0.00  0.00    +0.175 C 
ENDROOT
BRANCH  11   5
ATOM      5  O   UNL     1     -14.242   3.006  32.940  0.00  0.00    -0.468 OA
BRANCH   5  19
ATOM      8  N   UNL     1     -14.859   0.853  32.316  0.00  0.00    -0.219 NA
ATOM      9  N   UNL     1     -13.649   1.261  29.819  0.00  0.00    -0.256 NA
ATOM     19  C   UNL     1     -14.253   2.014  31.998  0.00  0.00    +0.234 A 
ATOM     23  C   UNL     1     -13.658   2.214  30.771  0.00  0.00    +0.177 A 
ATOM     24  C   UNL     1     -14.850  -0.100  31.363  0.00  0.00    +0.134 A 
ATOM     25  C   UNL     1     -14.255   0.100  30.136  0.00  0.00    +0.130 A 
ENDBRANCH   5  19
ENDBRANCH  11   5
BRANCH   7  13
ATOM     13  C   UNL     1     -13.532   7.621  33.495  0.00  0.00    +0.119 C 
BRANCH  13  16
ATOM     16  C   UNL     1     -13.041   8.489  32.368  0.00  0.00    -0.033 A 
ATOM     17  C   UNL     1     -11.680   8.541  32.069  0.00  0.00    +0.008 A 
ATOM     18  C   UNL     1     -13.948   9.242  31.623  0.00  0.00    +0.008 A 
ATOM     20  C   UNL     1     -11.225   9.345  31.024  0.00  0.00    +0.046 A 
ATOM     21  C   UNL     1     -13.494  10.047  30.579  0.00  0.00    +0.046 A 
ATOM     22  C   UNL     1     -12.133  10.099  30.279  0.00  0.00    +0.130 A 
BRANCH  22   6
ATOM      6  O   UNL     1     -11.689  10.884  29.259  0.00  0.00    -0.406 OA
BRANCH   6  26
ATOM      1  F   UNL     1     -12.897   9.911  27.577  0.00  0.00    -0.133 F 
ATOM      2  F   UNL     1     -11.282  11.296  27.077  0.00  0.00    -0.133 F 
ATOM      3  F   UNL     1     -10.788   9.315  27.859  0.00  0.00    -0.133 F 
ATOM     26  C   UNL     1     -11.669  10.334  27.946  0.00  0.00    +0.575 C 
ENDBRANCH   6  26
ENDBRANCH  22   6
ENDBRANCH  13  16
ENDBRANCH   7  13
TORSDOF 6
ENDMDL
MODEL 7
REMARK VINA RESULT:      -6.3      1.503      2.299
REMARK  Name = 75367730
REMARK  6 active torsions:
REMARK  status: ('A' for Active; 'I' for Inactive)
REMARK    1  A    between atoms: O_5  and  C_11
REMARK    2  A    between atoms: O_5  and  C_19
REMARK    3  A    between atoms: O_6  and  C_22
REMARK    4  A    between atoms: O_6  and  C_26
REMARK    5  A    between atoms: N_7  and  C_13
REMARK    6  A    between atoms: C_13  and  C_16
REMARK                            x       y       z     vdW  Elec       q    Type
REMARK                         _______ _______ _______ _____ _____    ______ ____
ROOT
ATOM      4  O   UNL     1      14.636  10.381  16.149  0.00  0.00    -0.375 OA
ATOM      7  N   UNL     1      15.099  10.299  18.989  0.00  0.00    -0.292 NA
ATOM     10  C   UNL     1      13.690   9.911  18.964  0.00  0.00    +0.131 C 
ATOM     11  C   UNL     1      13.393   8.996  17.768  0.00  0.00    +0.215 C 
ATOM     12  C   UNL     1      15.420  11.482  18.184  0.00  0.00    +0.113 C 
ATOM     14  C   UNL     1      13.429   9.671  16.399  0.00  0.00    +0.205 C 
ATOM     15  C   UNL     1      14.690  11.619  16.850  0.00  0.00    +0.175 C 
ENDROOT
BRANCH  11   5
ATOM      5  O   UNL     1      12.097   8.430  17.958  0.00  0.00    -0.468 OA
BRANCH   5  19
ATOM      8  N   UNL     1      10.792   8.526  19.881  0.00  0.00    -0.219 NA
ATOM      9  N   UNL     1      12.310   6.439  20.978  0.00  0.00    -0.256 NA
ATOM     19  C   UNL     1      11.814   7.956  19.210  0.00  0.00    +0.234 A 
ATOM     23  C   UNL     1      12.559   6.931  19.750  0.00  0.00    +0.177 A 
ATOM     24  C   UNL     1      10.543   8.032  21.111  0.00  0.00    +0.134 A 
ATOM     25  C   UNL     1      11.290   7.007  21.650  0.00  0.00    +0.130 A 
ENDBRANCH   5  19
ENDBRANCH  11   5
BRANCH   7  13
ATOM     13  C   UNL     1      15.581  10.480  20.359  0.00  0.00    +0.119 C 
BRANCH  13  16
ATOM     16  C   UNL     1      16.536   9.390  20.766  0.00  0.00    -0.033 A 
ATOM     17  C   UNL     1      16.236   8.057  20.482  0.00  0.00    +0.008 A 
ATOM     18  C   UNL     1      17.720   9.712  21.428  0.00  0.00    +0.008 A 
ATOM     20  C   UNL     1      17.121   7.047  20.859  0.00  0.00    +0.046 A 
ATOM     21  C   UNL     1      18.605   8.702  21.807  0.00  0.00    +0.046 A 
ATOM     22  C   UNL     1      18.305   7.370  21.522  0.00  0.00    +0.130 A 
BRANCH  22   6
ATOM      6  O   UNL     1      19.169   6.384  21.890  0.00  0.00    -0.406 OA
BRANCH   6  26
ATOM      1  F   UNL     1      20.433   7.082  20.115  0.00  0.00    -0.133 F 
ATOM      2  F   UNL     1      21.395   6.728  22.046  0.00  0.00    -0.133 F 
ATOM      3  F   UNL     1      20.698   5.022  20.870  0.00  0.00    -0.133 F 
ATOM     26  C   UNL     1      20.419   6.297  21.214  0.00  0.00    +0.575 C 
ENDBRANCH   6  26
ENDBRANCH  22   6
ENDBRANCH  13  16
ENDBRANCH   7  13
TORSDOF 6
ENDMDL
MODEL 8
REMARK VINA RESULT:      -6.3     27.237     28.941
REMARK  Name = 75367730
REMARK  6 active torsions:
REMARK  status: ('A' for Active; 'I' for Inactive)
REMARK    1  A    between atoms: O_5  and  C_11
REMARK    2  A    between atoms: O_5  and  C_19
REMARK    3  A    between atoms: O_6  and  C_22
REMARK    4  A    between atoms: O_6  and  C_26
REMARK    5  A    between atoms: N_7  and  C_13
REMARK    6  A    between atoms: C_13  and  C_16
REMARK                            x       y       z     vdW  Elec       q    Type
REMARK                         _______ _______ _______ _____ _____    ______ ____
ROOT
ATOM      4  O   UNL     1      -5.494  -8.066   9.947  0.00  0.00    -0.375 OA
ATOM      7  N   UNL     1      -6.466  -9.730  12.086  0.00  0.00    -0.292 NA
ATOM     10  C   UNL     1      -5.365 -10.567  11.612  0.00  0.00    +0.131 C 
ATOM     11  C   UNL     1      -4.157  -9.709  11.210  0.00  0.00    +0.215 C 
ATOM     12  C   UNL     1      -7.350  -9.230  11.028  0.00  0.00    +0.113 C 
ATOM     14  C   UNL     1      -4.331  -8.885   9.938  0.00  0.00    +0.205 C 
ATOM     15  C   UNL     1      -6.682  -8.816   9.718  0.00  0.00    +0.175 C 
ENDROOT
BRANCH  11   5
ATOM      5  O   UNL     1      -3.039 -10.580  11.035  0.00  0.00    -0.468 OA
BRANCH   5  19
ATOM      8  N   UNL     1      -2.499 -12.557  12.133  0.00  0.00    -0.219 NA
ATOM      9  N   UNL     1      -1.737 -11.066  14.382  0.00  0.00    -0.256 NA
ATOM     19  C   UNL     1      -2.574 -11.211  12.156  0.00  0.00    +0.234 A 
ATOM     23  C   UNL     1      -2.200 -10.479  13.261  0.00  0.00    +0.177 A 
ATOM     24  C   UNL     1      -2.036 -13.144  13.255  0.00  0.00    +0.134 A 
ATOM     25  C   UNL     1      -1.662 -12.411  14.360  0.00  0.00    +0.130 A 
ENDBRANCH   5  19
ENDBRANCH  11   5
BRANCH   7  13
ATOM     13  C   UNL     1      -7.252 -10.411  13.116  0.00  0.00    +0.119 C 
BRANCH  13  16
ATOM     16  C   UNL     1      -6.406 -10.811  14.294  0.00  0.00    -0.033 A 
ATOM     17  C   UNL     1      -5.668  -9.848  14.983  0.00  0.00    +0.008 A 
ATOM     18  C   UNL     1      -6.359 -12.145  14.697  0.00  0.00    +0.008 A 
ATOM     20  C   UNL     1      -4.884 -10.219  16.075  0.00  0.00    +0.046 A 
ATOM     21  C   UNL     1      -5.574 -12.517  15.788  0.00  0.00    +0.046 A 
ATOM     22  C   UNL     1      -4.836 -11.554  16.477  0.00  0.00    +0.130 A 
BRANCH  22   6
ATOM      6  O   UNL     1      -4.071 -11.917  17.543  0.00  0.00    -0.406 OA
BRANCH   6  26
ATOM      1  F   UNL     1      -3.724 -12.078  19.799  0.00  0.00    -0.133 F 
ATOM      2  F   UNL     1      -5.127 -10.587  19.032  0.00  0.00    -0.133 F 
ATOM      3  F   UNL     1      -5.676 -12.702  18.972  0.00  0.00    -0.133 F 
ATOM     26  C   UNL     1      -4.647 -11.838  18.843  0.00  0.00    +0.575 C 
ENDBRANCH   6  26
ENDBRANCH  22   6
ENDBRANCH  13  16
ENDBRANCH   7  13
TORSDOF 6
ENDMDL
MODEL 9
REMARK VINA RESULT:      -6.2     28.366     29.899
REMARK  Name = 75367730
REMARK  6 active torsions:
REMARK  status: ('A' for Active; 'I' for Inactive)
REMARK    1  A    between atoms: O_5  and  C_11
REMARK    2  A    between atoms: O_5  and  C_19
REMARK    3  A    between atoms: O_6  and  C_22
REMARK    4  A    between atoms: O_6  and  C_26
REMARK    5  A    between atoms: N_7  and  C_13
REMARK    6  A    between atoms: C_13  and  C_16
REMARK                            x       y       z     vdW  Elec       q    Type
REMARK                         _______ _______ _______ _____ _____    ______ ____
ROOT
ATOM      4  O   UNL     1      -4.528 -13.299  13.430  0.00  0.00    -0.375 OA
ATOM      7  N   UNL     1      -4.088 -11.305  15.458  0.00  0.00    -0.292 NA
ATOM     10  C   UNL     1      -3.332 -10.702  14.360  0.00  0.00    +0.131 C 
ATOM     11  C   UNL     1      -4.048 -10.915  13.020  0.00  0.00    +0.215 C 
ATOM     12  C   UNL     1      -3.800 -12.724  15.689  0.00  0.00    +0.113 C 
ATOM     14  C   UNL     1      -4.041 -12.347  12.491  0.00  0.00    +0.205 C 
ATOM     15  C   UNL     1      -3.577 -13.587  14.449  0.00  0.00    +0.175 C 
ENDROOT
BRANCH  11   5
ATOM      5  O   UNL     1      -3.423 -10.074  12.050  0.00  0.00    -0.468 OA
BRANCH   5  19
ATOM      8  N   UNL     1      -5.498  -9.288  11.354  0.00  0.00    -0.219 NA
ATOM      9  N   UNL     1      -4.480  -8.986   8.759  0.00  0.00    -0.256 NA
ATOM     19  C   UNL     1      -4.223  -9.599  11.047  0.00  0.00    +0.234 A 
ATOM     23  C   UNL     1      -3.724  -9.450   9.772  0.00  0.00    +0.177 A 
ATOM     24  C   UNL     1      -6.255  -8.823  10.341  0.00  0.00    +0.134 A 
ATOM     25  C   UNL     1      -5.755  -8.675   9.065  0.00  0.00    +0.130 A 
ENDBRANCH   5  19
ENDBRANCH  11   5
BRANCH   7  13
ATOM     13  C   UNL     1      -3.921 -10.550  16.701  0.00  0.00    +0.119 C 
BRANCH  13  16
ATOM     16  C   UNL     1      -5.143 -10.632  17.575  0.00  0.00    -0.033 A 
ATOM     17  C   UNL     1      -5.057 -11.205  18.844  0.00  0.00    +0.008 A 
ATOM     18  C   UNL     1      -6.363 -10.135  17.116  0.00  0.00    +0.008 A 
ATOM     20  C   UNL     1      -6.190 -11.280  19.654  0.00  0.00    +0.046 A 
ATOM     21  C   UNL     1      -7.496 -10.211  17.925  0.00  0.00    +0.046 A 
ATOM     22  C   UNL     1      -7.410 -10.784  19.193  0.00  0.00    +0.130 A 
BRANCH  22   6
ATOM      6  O   UNL     1      -8.517 -10.857  19.984  0.00  0.00    -0.406 OA
BRANCH   6  26
ATOM      1  F   UNL     1     -10.205 -12.205  20.736  0.00  0.00    -0.133 F 
ATOM      2  F   UNL     1     -10.410 -11.204  18.804  0.00  0.00    -0.133 F 
ATOM      3  F   UNL     1      -9.004 -12.866  19.003  0.00  0.00    -0.133 F 
ATOM     26  C   UNL     1      -9.529 -11.798  19.641  0.00  0.00    +0.575 C 
ENDBRANCH   6  26
ENDBRANCH  22   6
ENDBRANCH  13  16
ENDBRANCH   7  13
TORSDOF 6
ENDMDL
MODEL 10
REMARK VINA RESULT:      -6.2     28.284     29.762
REMARK  Name = 75367730
REMARK  6 active torsions:
REMARK  status: ('A' for Active; 'I' for Inactive)
REMARK    1  A    between atoms: O_5  and  C_11
REMARK    2  A    between atoms: O_5  and  C_19
REMARK    3  A    between atoms: O_6  and  C_22
REMARK    4  A    between atoms: O_6  and  C_26
REMARK    5  A    between atoms: N_7  and  C_13
REMARK    6  A    between atoms: C_13  and  C_16
REMARK                            x       y       z     vdW  Elec       q    Type
REMARK                         _______ _______ _______ _____ _____    ______ ____
ROOT
ATOM      4  O   UNL     1      -4.533 -13.279  13.326  0.00  0.00    -0.375 OA
ATOM      7  N   UNL     1      -3.923 -11.395  15.415  0.00  0.00    -0.292 NA
ATOM     10  C   UNL     1      -3.204 -10.767  14.307  0.00  0.00    +0.131 C 
ATOM     11  C   UNL     1      -3.993 -10.895  12.998  0.00  0.00    +0.215 C 
ATOM     12  C   UNL     1      -3.672 -12.832  15.568  0.00  0.00    +0.113 C 
ATOM     14  C   UNL     1      -4.063 -12.301  12.407  0.00  0.00    +0.205 C 
ATOM     15  C   UNL     1      -3.542 -13.643  14.281  0.00  0.00    +0.175 C 
ENDROOT
BRANCH  11   5
ATOM      5  O   UNL     1      -3.391 -10.030  12.035  0.00  0.00    -0.468 OA
BRANCH   5  19
ATOM      8  N   UNL     1      -3.708  -9.523   9.788  0.00  0.00    -0.219 NA
ATOM      9  N   UNL     1      -6.315  -8.675  10.379  0.00  0.00    -0.256 NA
ATOM     19  C   UNL     1      -4.204  -9.560  11.041  0.00  0.00    +0.234 A 
ATOM     23  C   UNL     1      -5.485  -9.143  11.330  0.00  0.00    +0.177 A 
ATOM     24  C   UNL     1      -4.538  -9.054   8.836  0.00  0.00    +0.134 A 
ATOM     25  C   UNL     1      -5.819  -8.636   9.126  0.00  0.00    +0.130 A 
ENDBRANCH   5  19
ENDBRANCH  11   5
BRANCH   7  13
ATOM     13  C   UNL     1      -3.667 -10.704  16.680  0.00  0.00    +0.119 C 
BRANCH  13  16
ATOM     16  C   UNL     1      -4.881 -10.697  17.570  0.00  0.00    -0.033 A 
ATOM     17  C   UNL     1      -6.027 -10.001  17.182  0.00  0.00    +0.008 A 
ATOM     18  C   UNL     1      -4.861 -11.384  18.783  0.00  0.00    +0.008 A 
ATOM     20  C   UNL     1      -7.152  -9.994  18.006  0.00  0.00    +0.046 A 
ATOM     21  C   UNL     1      -5.985 -11.377  19.608  0.00  0.00    +0.046 A 
ATOM     22  C   UNL     1      -7.130 -10.682  19.220  0.00  0.00    +0.130 A 
BRANCH  22   6
ATOM      6  O   UNL     1      -8.228 -10.675  20.025  0.00  0.00    -0.406 OA
BRANCH   6  26
ATOM      1  F   UNL     1     -10.191 -10.440  18.874  0.00  0.00    -0.133 F 
ATOM      2  F   UNL     1      -9.066 -12.307  18.708  0.00  0.00    -0.133 F 
ATOM      3  F   UNL     1     -10.113 -11.851  20.572  0.00  0.00    -0.133 F 
ATOM     26  C   UNL     1      -9.413 -11.309  19.553  0.00  0.00    +0.575 C 
ENDBRANCH   6  26
ENDBRANCH  22   6
ENDBRANCH  13  16
ENDBRANCH   7  13
TORSDOF 6
ENDMDL
