MODEL 1
REMARK VINA RESULT:      -8.1      0.000      0.000
REMARK  Name = 11885924
REMARK  3 active torsions:
REMARK  status: ('A' for Active; 'I' for Inactive)
REMARK    1  A    between atoms: N_8  and  C_22
REMARK    2  A    between atoms: N_9  and  C_20
REMARK    3  A    between atoms: C_23  and  C_26
REMARK                            x       y       z     vdW  Elec       q    Type
REMARK                         _______ _______ _______ _____ _____    ______ ____
ROOT
ATOM      3  O   UNL     1      13.863  11.542  18.285  0.00  0.00    -0.266 OA
ATOM      4  O   UNL     1      15.114   9.161  22.763  0.00  0.00    -0.252 OA
ATOM      6  N   UNL     1      13.306   8.054  21.839  0.00  0.00    -0.284 N 
ATOM      7  N   UNL     1      12.836   9.602  19.090  0.00  0.00    -0.310 N 
ATOM      8  N   UNL     1      15.486   7.181  21.615  0.00  0.00    -0.269 N 
ATOM     10  C   UNL     1      11.417   9.570  21.218  0.00  0.00    +0.027 C 
ATOM     11  C   UNL     1      11.772   7.490  19.959  0.00  0.00    +0.054 C 
ATOM     12  C   UNL     1      10.702   8.396  20.559  0.00  0.00    +0.018 C 
ATOM     13  C   UNL     1      12.363   9.068  22.322  0.00  0.00    +0.114 C 
ATOM     14  C   UNL     1      12.158  10.371  20.142  0.00  0.00    +0.130 C 
ATOM     15  C   UNL     1      12.691   6.952  21.077  0.00  0.00    +0.119 C 
ATOM     16  C   UNL     1      12.605   8.233  18.929  0.00  0.00    +0.027 A 
ATOM     17  C   UNL     1      13.144   7.574  17.890  0.00  0.00    +0.024 A 
ATOM     18  C   UNL     1      13.644  10.332  18.194  0.00  0.00    +0.273 A 
ATOM     19  C   UNL     1      14.682   8.205  22.116  0.00  0.00    +0.306 C 
ATOM     20  C   UNL     1      14.247   9.557  17.064  0.00  0.00    +0.099 A 
ATOM     21  C   UNL     1      13.982   8.251  16.941  0.00  0.00    +0.030 A 
ATOM     33  H   UNL     1      15.076   6.261  21.499  0.00  0.00    +0.156 HD
ENDROOT
BRANCH   8  22
ATOM      2  F   UNL     1      20.867   7.481  20.329  0.00  0.00    -0.205 F 
ATOM     22  C   UNL     1      16.862   7.257  21.286  0.00  0.00    +0.035 A 
ATOM     24  C   UNL     1      17.607   8.364  21.682  0.00  0.00    +0.026 A 
ATOM     25  C   UNL     1      17.460   6.226  20.569  0.00  0.00    +0.026 A 
ATOM     27  C   UNL     1      18.963   8.440  21.358  0.00  0.00    +0.040 A 
ATOM     28  C   UNL     1      18.815   6.301  20.244  0.00  0.00    +0.040 A 
ATOM     29  C   UNL     1      19.566   7.408  20.639  0.00  0.00    +0.124 A 
ENDBRANCH   8  22
BRANCH  20   9
ATOM      5  O   UNL     1      13.433  10.712  14.584  0.00  0.00    -0.269 OA
ATOM      9  N   UNL     1      15.048  10.223  16.185  0.00  0.00    -0.277 N 
ATOM     23  C   UNL     1      14.591  10.764  14.991  0.00  0.00    +0.255 C 
ATOM     34  H   UNL     1      16.052  10.153  16.331  0.00  0.00    +0.155 HD
BRANCH  23  26
ATOM      1  S   UNL     1      17.050  11.903  14.934  0.00  0.00    -0.092 S 
ATOM     26  C   UNL     1      15.609  11.475  14.175  0.00  0.00    +0.074 A 
ATOM     30  C   UNL     1      15.508  11.817  12.882  0.00  0.00    +0.021 A 
ATOM     31  C   UNL     1      16.693  12.485  12.458  0.00  0.00    +0.008 A 
ATOM     32  C   UNL     1      17.615  12.599  13.476  0.00  0.00    +0.046 A 
ENDBRANCH  23  26
ENDBRANCH  20   9
TORSDOF 3
ENDMDL
MODEL 2
REMARK VINA RESULT:      -7.4     12.866     15.402
REMARK  Name = 11885924
REMARK  3 active torsions:
REMARK  status: ('A' for Active; 'I' for Inactive)
REMARK    1  A    between atoms: N_8  and  C_22
REMARK    2  A    between atoms: N_9  and  C_20
REMARK    3  A    between atoms: C_23  and  C_26
REMARK                            x       y       z     vdW  Elec       q    Type
REMARK                         _______ _______ _______ _____ _____    ______ ____
ROOT
ATOM      3  O   UNL     1      14.053   6.597   7.192  0.00  0.00    -0.266 OA
ATOM      4  O   UNL     1      10.107   4.081   4.872  0.00  0.00    -0.252 OA
ATOM      6  N   UNL     1       9.379   6.204   5.431  0.00  0.00    -0.284 N 
ATOM      7  N   UNL     1      11.980   7.553   6.692  0.00  0.00    -0.310 N 
ATOM      8  N   UNL     1      10.033   5.705   3.220  0.00  0.00    -0.269 N 
ATOM     10  C   UNL     1       9.806   6.811   7.819  0.00  0.00    +0.027 C 
ATOM     11  C   UNL     1       9.751   8.573   6.106  0.00  0.00    +0.054 C 
ATOM     12  C   UNL     1       9.335   8.232   7.534  0.00  0.00    +0.018 C 
ATOM     13  C   UNL     1       9.161   5.825   6.831  0.00  0.00    +0.114 C 
ATOM     14  C   UNL     1      11.337   6.772   7.757  0.00  0.00    +0.130 C 
ATOM     15  C   UNL     1       9.064   7.609   5.115  0.00  0.00    +0.119 C 
ATOM     16  C   UNL     1      11.258   8.484   5.940  0.00  0.00    +0.027 A 
ATOM     17  C   UNL     1      11.889   9.271   5.053  0.00  0.00    +0.024 A 
ATOM     18  C   UNL     1      13.373   7.392   6.542  0.00  0.00    +0.273 A 
ATOM     19  C   UNL     1       9.868   5.239   4.524  0.00  0.00    +0.306 C 
ATOM     20  C   UNL     1      14.034   8.269   5.524  0.00  0.00    +0.099 A 
ATOM     21  C   UNL     1      13.305   9.158   4.841  0.00  0.00    +0.030 A 
ATOM     33  H   UNL     1       9.441   6.466   2.903  0.00  0.00    +0.156 HD
ENDROOT
BRANCH   8  22
ATOM      2  F   UNL     1      13.490   3.726  -0.630  0.00  0.00    -0.205 F 
ATOM     22  C   UNL     1      10.917   5.199   2.236  0.00  0.00    +0.035 A 
ATOM     24  C   UNL     1      10.405   4.613   1.082  0.00  0.00    +0.026 A 
ATOM     25  C   UNL     1      12.292   5.291   2.428  0.00  0.00    +0.026 A 
ATOM     27  C   UNL     1      11.276   4.114   0.113  0.00  0.00    +0.040 A 
ATOM     28  C   UNL     1      13.163   4.793   1.459  0.00  0.00    +0.040 A 
ATOM     29  C   UNL     1      12.655   4.204   0.301  0.00  0.00    +0.124 A 
ENDBRANCH   8  22
BRANCH  20   9
ATOM      5  O   UNL     1      16.062  10.012   6.522  0.00  0.00    -0.269 OA
ATOM      9  N   UNL     1      15.378   8.132   5.336  0.00  0.00    -0.277 N 
ATOM     23  C   UNL     1      16.317   9.016   5.849  0.00  0.00    +0.255 C 
ATOM     34  H   UNL     1      15.680   7.458   4.637  0.00  0.00    +0.155 HD
BRANCH  23  26
ATOM      1  S   UNL     1      18.121   8.247   3.979  0.00  0.00    -0.092 S 
ATOM     26  C   UNL     1      17.736   8.689   5.559  0.00  0.00    +0.074 A 
ATOM     30  C   UNL     1      18.760   8.706   6.425  0.00  0.00    +0.021 A 
ATOM     31  C   UNL     1      19.966   8.331   5.765  0.00  0.00    +0.008 A 
ATOM     32  C   UNL     1      19.762   8.055   4.431  0.00  0.00    +0.046 A 
ENDBRANCH  23  26
ENDBRANCH  20   9
TORSDOF 3
ENDMDL
MODEL 3
REMARK VINA RESULT:      -7.4     28.327     30.727
REMARK  Name = 11885924
REMARK  3 active torsions:
REMARK  status: ('A' for Active; 'I' for Inactive)
REMARK    1  A    between atoms: N_8  and  C_22
REMARK    2  A    between atoms: N_9  and  C_20
REMARK    3  A    between atoms: C_23  and  C_26
REMARK                            x       y       z     vdW  Elec       q    Type
REMARK                         _______ _______ _______ _____ _____    ______ ____
ROOT
ATOM      3  O   UNL     1      -7.532 -12.121  14.360  0.00  0.00    -0.266 OA
ATOM      4  O   UNL     1     -11.863 -10.989  17.053  0.00  0.00    -0.252 OA
ATOM      6  N   UNL     1     -10.138 -11.307  18.561  0.00  0.00    -0.284 N 
ATOM      7  N   UNL     1      -7.619 -11.844  16.679  0.00  0.00    -0.310 N 
ATOM      8  N   UNL     1     -10.820  -9.129  17.962  0.00  0.00    -0.269 N 
ATOM     10  C   UNL     1      -8.890 -13.446  18.218  0.00  0.00    +0.027 C 
ATOM     11  C   UNL     1      -7.731 -11.500  19.173  0.00  0.00    +0.054 C 
ATOM     12  C   UNL     1      -7.878 -13.016  19.273  0.00  0.00    +0.018 C 
ATOM     13  C   UNL     1     -10.247 -12.766  18.469  0.00  0.00    +0.114 C 
ATOM     14  C   UNL     1      -8.330 -13.121  16.828  0.00  0.00    +0.130 C 
ATOM     15  C   UNL     1      -9.085 -10.821  19.472  0.00  0.00    +0.119 C 
ATOM     16  C   UNL     1      -7.248 -11.087  17.794  0.00  0.00    +0.027 A 
ATOM     17  C   UNL     1      -6.497  -9.984  17.642  0.00  0.00    +0.024 A 
ATOM     18  C   UNL     1      -7.243 -11.478  15.371  0.00  0.00    +0.273 A 
ATOM     19  C   UNL     1     -11.006 -10.501  17.793  0.00  0.00    +0.306 C 
ATOM     20  C   UNL     1      -6.429 -10.228  15.241  0.00  0.00    +0.099 A 
ATOM     21  C   UNL     1      -6.083  -9.547  16.339  0.00  0.00    +0.030 A 
ATOM     33  H   UNL     1     -10.451  -8.799  18.848  0.00  0.00    +0.156 HD
ENDROOT
BRANCH   8  22
ATOM      2  F   UNL     1     -12.071  -5.113  14.357  0.00  0.00    -0.205 F 
ATOM     22  C   UNL     1     -11.140  -8.102  17.041  0.00  0.00    +0.035 A 
ATOM     24  C   UNL     1     -10.126  -7.320  16.496  0.00  0.00    +0.026 A 
ATOM     25  C   UNL     1     -12.467  -7.881  16.685  0.00  0.00    +0.026 A 
ATOM     27  C   UNL     1     -10.441  -6.309  15.588  0.00  0.00    +0.040 A 
ATOM     28  C   UNL     1     -12.783  -6.870  15.777  0.00  0.00    +0.040 A 
ATOM     29  C   UNL     1     -11.770  -6.083  15.229  0.00  0.00    +0.124 A 
ENDBRANCH   8  22
BRANCH  20   9
ATOM      5  O   UNL     1      -4.133 -11.121  13.800  0.00  0.00    -0.269 OA
ATOM      9  N   UNL     1      -6.059  -9.831  13.990  0.00  0.00    -0.277 N 
ATOM     23  C   UNL     1      -4.927 -10.303  13.340  0.00  0.00    +0.255 C 
ATOM     34  H   UNL     1      -6.535  -9.019  13.604  0.00  0.00    +0.155 HD
BRANCH  23  26
ATOM      1  S   UNL     1      -5.948  -8.880  11.272  0.00  0.00    -0.092 S 
ATOM     26  C   UNL     1      -4.701  -9.771  11.972  0.00  0.00    +0.074 A 
ATOM     30  C   UNL     1      -3.600  -9.922  11.221  0.00  0.00    +0.021 A 
ATOM     31  C   UNL     1      -3.767  -9.264   9.969  0.00  0.00    +0.008 A 
ATOM     32  C   UNL     1      -4.999  -8.656   9.864  0.00  0.00    +0.046 A 
ENDBRANCH  23  26
ENDBRANCH  20   9
TORSDOF 3
ENDMDL
MODEL 4
REMARK VINA RESULT:      -7.4     27.913     30.050
REMARK  Name = 11885924
REMARK  3 active torsions:
REMARK  status: ('A' for Active; 'I' for Inactive)
REMARK    1  A    between atoms: N_8  and  C_22
REMARK    2  A    between atoms: N_9  and  C_20
REMARK    3  A    between atoms: C_23  and  C_26
REMARK                            x       y       z     vdW  Elec       q    Type
REMARK                         _______ _______ _______ _____ _____    ______ ____
ROOT
ATOM      3  O   UNL     1      -8.226  -8.436  17.087  0.00  0.00    -0.266 OA
ATOM      4  O   UNL     1      -3.366 -10.157  16.240  0.00  0.00    -0.252 OA
ATOM      6  N   UNL     1      -4.638 -11.933  17.000  0.00  0.00    -0.284 N 
ATOM      7  N   UNL     1      -7.548 -10.662  17.308  0.00  0.00    -0.310 N 
ATOM      8  N   UNL     1      -4.171 -11.693  14.700  0.00  0.00    -0.269 N 
ATOM     10  C   UNL     1      -5.896 -11.435  19.103  0.00  0.00    +0.027 C 
ATOM     11  C   UNL     1      -6.802 -13.062  17.499  0.00  0.00    +0.054 C 
ATOM     12  C   UNL     1      -6.609 -12.777  18.985  0.00  0.00    +0.018 C 
ATOM     13  C   UNL     1      -4.533 -11.490  18.394  0.00  0.00    +0.114 C 
ATOM     14  C   UNL     1      -6.801 -10.338  18.530  0.00  0.00    +0.130 C 
ATOM     15  C   UNL     1      -5.429 -13.162  16.801  0.00  0.00    +0.119 C 
ATOM     16  C   UNL     1      -7.632 -11.976  16.837  0.00  0.00    +0.027 A 
ATOM     17  C   UNL     1      -8.415 -12.268  15.785  0.00  0.00    +0.024 A 
ATOM     18  C   UNL     1      -8.255  -9.605  16.699  0.00  0.00    +0.273 A 
ATOM     19  C   UNL     1      -4.012 -11.177  15.986  0.00  0.00    +0.306 C 
ATOM     20  C   UNL     1      -9.096  -9.968  15.514  0.00  0.00    +0.099 A 
ATOM     21  C   UNL     1      -9.159 -11.241  15.111  0.00  0.00    +0.030 A 
ATOM     33  H   UNL     1      -4.305 -12.693  14.596  0.00  0.00    +0.156 HD
ENDROOT
BRANCH   8  22
ATOM      2  F   UNL     1      -3.958  -8.894   9.924  0.00  0.00    -0.205 F 
ATOM     22  C   UNL     1      -4.117 -10.977  13.479  0.00  0.00    +0.035 A 
ATOM     24  C   UNL     1      -2.930 -10.937  12.753  0.00  0.00    +0.026 A 
ATOM     25  C   UNL     1      -5.250 -10.317  13.013  0.00  0.00    +0.026 A 
ATOM     27  C   UNL     1      -2.876 -10.232  11.550  0.00  0.00    +0.040 A 
ATOM     28  C   UNL     1      -5.197  -9.613  11.810  0.00  0.00    +0.040 A 
ATOM     29  C   UNL     1      -4.009  -9.570  11.078  0.00  0.00    +0.124 A 
ENDBRANCH   8  22
BRANCH  20   9
ATOM      5  O   UNL     1     -11.766  -9.138  16.091  0.00  0.00    -0.269 OA
ATOM      9  N   UNL     1      -9.783  -8.971  14.887  0.00  0.00    -0.277 N 
ATOM     23  C   UNL     1     -11.083  -8.613  15.214  0.00  0.00    +0.255 C 
ATOM     34  H   UNL     1      -9.384  -8.607  14.024  0.00  0.00    +0.155 HD
BRANCH  23  26
ATOM      1  S   UNL     1     -11.578  -5.950  15.121  0.00  0.00    -0.092 S 
ATOM     26  C   UNL     1     -11.658  -7.487  14.435  0.00  0.00    +0.074 A 
ATOM     30  C   UNL     1     -12.239  -7.556  13.228  0.00  0.00    +0.021 A 
ATOM     31  C   UNL     1     -12.662  -6.260  12.813  0.00  0.00    +0.008 A 
ATOM     32  C   UNL     1     -12.363  -5.294  13.749  0.00  0.00    +0.046 A 
ENDBRANCH  23  26
ENDBRANCH  20   9
TORSDOF 3
ENDMDL
MODEL 5
REMARK VINA RESULT:      -7.0      6.218     10.364
REMARK  Name = 11885924
REMARK  3 active torsions:
REMARK  status: ('A' for Active; 'I' for Inactive)
REMARK    1  A    between atoms: N_8  and  C_22
REMARK    2  A    between atoms: N_9  and  C_20
REMARK    3  A    between atoms: C_23  and  C_26
REMARK                            x       y       z     vdW  Elec       q    Type
REMARK                         _______ _______ _______ _____ _____    ______ ____
ROOT
ATOM      3  O   UNL     1      20.763   3.209  20.822  0.00  0.00    -0.266 OA
ATOM      4  O   UNL     1      23.006   3.227  25.540  0.00  0.00    -0.252 OA
ATOM      6  N   UNL     1      24.637   3.684  23.964  0.00  0.00    -0.284 N 
ATOM      7  N   UNL     1      23.002   3.746  21.226  0.00  0.00    -0.310 N 
ATOM      8  N   UNL     1      23.667   5.427  25.225  0.00  0.00    -0.269 N 
ATOM     10  C   UNL     1      24.701   2.037  22.085  0.00  0.00    +0.027 C 
ATOM     11  C   UNL     1      25.401   4.360  21.691  0.00  0.00    +0.054 C 
ATOM     12  C   UNL     1      25.729   2.905  21.369  0.00  0.00    +0.018 C 
ATOM     13  C   UNL     1      24.769   2.269  23.604  0.00  0.00    +0.114 C 
ATOM     14  C   UNL     1      23.310   2.339  21.515  0.00  0.00    +0.130 C 
ATOM     15  C   UNL     1      25.516   4.599  23.212  0.00  0.00    +0.119 C 
ATOM     16  C   UNL     1      24.002   4.722  21.224  0.00  0.00    +0.027 A 
ATOM     17  C   UNL     1      23.720   5.978  20.842  0.00  0.00    +0.024 A 
ATOM     18  C   UNL     1      21.674   4.038  20.851  0.00  0.00    +0.273 A 
ATOM     19  C   UNL     1      23.705   4.059  24.957  0.00  0.00    +0.306 C 
ATOM     20  C   UNL     1      21.394   5.455  20.458  0.00  0.00    +0.099 A 
ATOM     21  C   UNL     1      22.388   6.350  20.454  0.00  0.00    +0.030 A 
ATOM     33  H   UNL     1      24.509   5.971  25.069  0.00  0.00    +0.156 HD
ENDROOT
BRANCH   8  22
ATOM      2  F   UNL     1      19.413   8.313  27.291  0.00  0.00    -0.205 F 
ATOM     22  C   UNL     1      22.580   6.165  25.754  0.00  0.00    +0.035 A 
ATOM     24  C   UNL     1      21.637   6.719  24.893  0.00  0.00    +0.026 A 
ATOM     25  C   UNL     1      22.461   6.332  27.130  0.00  0.00    +0.026 A 
ATOM     27  C   UNL     1      20.565   7.446  25.413  0.00  0.00    +0.040 A 
ATOM     28  C   UNL     1      21.390   7.059  27.651  0.00  0.00    +0.040 A 
ATOM     29  C   UNL     1      20.442   7.616  26.792  0.00  0.00    +0.124 A 
ENDBRANCH   8  22
BRANCH  20   9
ATOM      5  O   UNL     1      19.415   6.601  22.166  0.00  0.00    -0.269 OA
ATOM      9  N   UNL     1      20.119   5.783  20.105  0.00  0.00    -0.277 N 
ATOM     23  C   UNL     1      19.200   6.340  20.985  0.00  0.00    +0.255 C 
ATOM     34  H   UNL     1      19.781   5.430  19.213  0.00  0.00    +0.155 HD
BRANCH  23  26
ATOM      1  S   UNL     1      17.010   7.933  21.091  0.00  0.00    -0.092 S 
ATOM     26  C   UNL     1      17.866   6.651  20.411  0.00  0.00    +0.074 A 
ATOM     30  C   UNL     1      17.257   6.017  19.397  0.00  0.00    +0.021 A 
ATOM     31  C   UNL     1      15.988   6.611  19.139  0.00  0.00    +0.008 A 
ATOM     32  C   UNL     1      15.728   7.665  19.988  0.00  0.00    +0.046 A 
ENDBRANCH  23  26
ENDBRANCH  20   9
TORSDOF 3
ENDMDL
MODEL 6
REMARK VINA RESULT:      -7.0     23.122     25.861
REMARK  Name = 11885924
REMARK  3 active torsions:
REMARK  status: ('A' for Active; 'I' for Inactive)
REMARK    1  A    between atoms: N_8  and  C_22
REMARK    2  A    between atoms: N_9  and  C_20
REMARK    3  A    between atoms: C_23  and  C_26
REMARK                            x       y       z     vdW  Elec       q    Type
REMARK                         _______ _______ _______ _____ _____    ______ ____
ROOT
ATOM      3  O   UNL     1      -6.582   9.979   5.530  0.00  0.00    -0.266 OA
ATOM      4  O   UNL     1      -2.642  12.289   2.993  0.00  0.00    -0.252 OA
ATOM      6  N   UNL     1      -1.743  10.814   4.531  0.00  0.00    -0.284 N 
ATOM      7  N   UNL     1      -4.323   9.459   5.830  0.00  0.00    -0.310 N 
ATOM      8  N   UNL     1      -1.898  10.222   2.252  0.00  0.00    -0.269 N 
ATOM     10  C   UNL     1      -2.647  11.106   6.844  0.00  0.00    +0.027 C 
ATOM     11  C   UNL     1      -1.884   8.889   6.106  0.00  0.00    +0.054 C 
ATOM     12  C   UNL     1      -1.896   9.856   7.286  0.00  0.00    +0.018 C 
ATOM     13  C   UNL     1      -1.944  11.753   5.638  0.00  0.00    +0.114 C 
ATOM     14  C   UNL     1      -4.100  10.730   6.532  0.00  0.00    +0.130 C 
ATOM     15  C   UNL     1      -1.137   9.526   4.915  0.00  0.00    +0.119 C 
ATOM     16  C   UNL     1      -3.296   8.522   5.684  0.00  0.00    +0.027 A 
ATOM     17  C   UNL     1      -3.550   7.319   5.144  0.00  0.00    +0.024 A 
ATOM     18  C   UNL     1      -5.641   9.192   5.408  0.00  0.00    +0.273 A 
ATOM     19  C   UNL     1      -2.141  11.188   3.229  0.00  0.00    +0.306 C 
ATOM     20  C   UNL     1      -5.878   7.851   4.787  0.00  0.00    +0.099 A 
ATOM     21  C   UNL     1      -4.868   6.980   4.685  0.00  0.00    +0.030 A 
ATOM     33  H   UNL     1      -1.131   9.574   2.397  0.00  0.00    +0.156 HD
ENDROOT
BRANCH   8  22
ATOM      2  F   UNL     1      -4.564   9.593  -2.563  0.00  0.00    -0.205 F 
ATOM     22  C   UNL     1      -2.579  10.061   1.021  0.00  0.00    +0.035 A 
ATOM     24  C   UNL     1      -3.965  10.183   0.976  0.00  0.00    +0.026 A 
ATOM     25  C   UNL     1      -1.860   9.781  -0.137  0.00  0.00    +0.026 A 
ATOM     27  C   UNL     1      -4.637  10.025  -0.237  0.00  0.00    +0.040 A 
ATOM     28  C   UNL     1      -2.530   9.622  -1.350  0.00  0.00    +0.040 A 
ATOM     29  C   UNL     1      -3.919   9.744  -1.400  0.00  0.00    +0.124 A 
ENDBRANCH   8  22
BRANCH  20   9
ATOM      5  O   UNL     1      -7.613   5.852   5.855  0.00  0.00    -0.269 OA
ATOM      9  N   UNL     1      -7.137   7.560   4.350  0.00  0.00    -0.277 N 
ATOM     23  C   UNL     1      -7.934   6.573   4.913  0.00  0.00    +0.255 C 
ATOM     34  H   UNL     1      -7.420   7.960   3.458  0.00  0.00    +0.155 HD
BRANCH  23  26
ATOM      1  S   UNL     1      -9.752   7.544   3.154  0.00  0.00    -0.092 S 
ATOM     26  C   UNL     1      -9.285   6.417   4.316  0.00  0.00    +0.074 A 
ATOM     30  C   UNL     1     -10.187   5.467   4.602  0.00  0.00    +0.021 A 
ATOM     31  C   UNL     1     -11.363   5.656   3.819  0.00  0.00    +0.008 A 
ATOM     32  C   UNL     1     -11.260   6.750   2.988  0.00  0.00    +0.046 A 
ENDBRANCH  23  26
ENDBRANCH  20   9
TORSDOF 3
ENDMDL
MODEL 7
REMARK VINA RESULT:      -6.9     28.113     29.898
REMARK  Name = 11885924
REMARK  3 active torsions:
REMARK  status: ('A' for Active; 'I' for Inactive)
REMARK    1  A    between atoms: N_8  and  C_22
REMARK    2  A    between atoms: N_9  and  C_20
REMARK    3  A    between atoms: C_23  and  C_26
REMARK                            x       y       z     vdW  Elec       q    Type
REMARK                         _______ _______ _______ _____ _____    ______ ____
ROOT
ATOM      3  O   UNL     1      -4.288 -13.058   9.737  0.00  0.00    -0.266 OA
ATOM      4  O   UNL     1      -5.948 -13.672  14.652  0.00  0.00    -0.252 OA
ATOM      6  N   UNL     1      -3.719 -13.058  14.715  0.00  0.00    -0.284 N 
ATOM      7  N   UNL     1      -2.999 -12.623  11.637  0.00  0.00    -0.310 N 
ATOM      8  N   UNL     1      -5.412 -11.465  15.116  0.00  0.00    -0.269 N 
ATOM     10  C   UNL     1      -2.253 -14.461  13.254  0.00  0.00    +0.027 C 
ATOM     11  C   UNL     1      -1.644 -12.123  13.702  0.00  0.00    +0.054 C 
ATOM     12  C   UNL     1      -1.082 -13.533  13.551  0.00  0.00    +0.018 C 
ATOM     13  C   UNL     1      -3.273 -14.420  14.404  0.00  0.00    +0.114 C 
ATOM     14  C   UNL     1      -2.878 -14.061  11.913  0.00  0.00    +0.130 C 
ATOM     15  C   UNL     1      -2.632 -12.076  14.887  0.00  0.00    +0.119 C 
ATOM     16  C   UNL     1      -2.349 -11.676  12.433  0.00  0.00    +0.027 A 
ATOM     17  C   UNL     1      -2.377 -10.376  12.096  0.00  0.00    +0.024 A 
ATOM     18  C   UNL     1      -3.713 -12.259  10.478  0.00  0.00    +0.273 A 
ATOM     19  C   UNL     1      -5.101 -12.790  14.811  0.00  0.00    +0.306 C 
ATOM     20  C   UNL     1      -3.743 -10.798  10.150  0.00  0.00    +0.099 A 
ATOM     21  C   UNL     1      -3.090  -9.931  10.932  0.00  0.00    +0.030 A 
ATOM     33  H   UNL     1      -4.738 -10.923  15.647  0.00  0.00    +0.156 HD
ENDROOT
BRANCH   8  22
ATOM      2  F   UNL     1     -10.102  -8.768  13.921  0.00  0.00    -0.205 F 
ATOM     22  C   UNL     1      -6.611 -10.775  14.811  0.00  0.00    +0.035 A 
ATOM     24  C   UNL     1      -6.946 -10.524  13.484  0.00  0.00    +0.026 A 
ATOM     25  C   UNL     1      -7.447 -10.352  15.840  0.00  0.00    +0.026 A 
ATOM     27  C   UNL     1      -8.127  -9.845  13.182  0.00  0.00    +0.040 A 
ATOM     28  C   UNL     1      -8.628  -9.673  15.540  0.00  0.00    +0.040 A 
ATOM     29  C   UNL     1      -8.968  -9.419  14.210  0.00  0.00    +0.124 A 
ENDBRANCH   8  22
BRANCH  20   9
ATOM      5  O   UNL     1      -6.402  -9.762  10.113  0.00  0.00    -0.269 OA
ATOM      9  N   UNL     1      -4.437 -10.403   9.045  0.00  0.00    -0.277 N 
ATOM     23  C   UNL     1      -5.732  -9.905   9.093  0.00  0.00    +0.255 C 
ATOM     34  H   UNL     1      -4.051 -10.660   8.140  0.00  0.00    +0.155 HD
BRANCH  23  26
ATOM      1  S   UNL     1      -7.615  -8.432   7.817  0.00  0.00    -0.092 S 
ATOM     26  C   UNL     1      -6.316  -9.504   7.787  0.00  0.00    +0.074 A 
ATOM     30  C   UNL     1      -5.919  -9.903   6.570  0.00  0.00    +0.021 A 
ATOM     31  C   UNL     1      -6.728  -9.297   5.567  0.00  0.00    +0.008 A 
ATOM     32  C   UNL     1      -7.690  -8.472   6.107  0.00  0.00    +0.046 A 
ENDBRANCH  23  26
ENDBRANCH  20   9
TORSDOF 3
ENDMDL
MODEL 8
REMARK VINA RESULT:      -6.7     28.838     30.607
REMARK  Name = 11885924
REMARK  3 active torsions:
REMARK  status: ('A' for Active; 'I' for Inactive)
REMARK    1  A    between atoms: N_8  and  C_22
REMARK    2  A    between atoms: N_9  and  C_20
REMARK    3  A    between atoms: C_23  and  C_26
REMARK                            x       y       z     vdW  Elec       q    Type
REMARK                         _______ _______ _______ _____ _____    ______ ____
ROOT
ATOM      3  O   UNL     1      -6.878 -13.118  14.351  0.00  0.00    -0.266 OA
ATOM      4  O   UNL     1      -9.937 -11.181  18.117  0.00  0.00    -0.252 OA
ATOM      6  N   UNL     1      -7.734 -10.912  18.768  0.00  0.00    -0.284 N 
ATOM      7  N   UNL     1      -6.098 -12.037  16.271  0.00  0.00    -0.310 N 
ATOM      8  N   UNL     1      -8.946  -9.101  17.863  0.00  0.00    -0.269 N 
ATOM     10  C   UNL     1      -6.384 -13.011  18.620  0.00  0.00    +0.027 C 
ATOM     11  C   UNL     1      -5.283 -10.833  18.329  0.00  0.00    +0.054 C 
ATOM     12  C   UNL     1      -5.127 -12.216  18.953  0.00  0.00    +0.018 C 
ATOM     13  C   UNL     1      -7.627 -12.311  19.194  0.00  0.00    +0.114 C 
ATOM     14  C   UNL     1      -6.472 -13.190  17.100  0.00  0.00    +0.130 C 
ATOM     15  C   UNL     1      -6.505 -10.116  18.943  0.00  0.00    +0.119 C 
ATOM     16  C   UNL     1      -5.452 -10.927  16.823  0.00  0.00    +0.027 A 
ATOM     17  C   UNL     1      -5.014  -9.936  16.029  0.00  0.00    +0.024 A 
ATOM     18  C   UNL     1      -6.328 -12.153  14.885  0.00  0.00    +0.273 A 
ATOM     19  C   UNL     1      -8.953 -10.447  18.229  0.00  0.00    +0.306 C 
ATOM     20  C   UNL     1      -5.848 -11.016  14.037  0.00  0.00    +0.099 A 
ATOM     21  C   UNL     1      -5.219  -9.983  14.609  0.00  0.00    +0.030 A 
ATOM     33  H   UNL     1      -8.321  -8.472  18.355  0.00  0.00    +0.156 HD
ENDROOT
BRANCH   8  22
ATOM      2  F   UNL     1     -12.152  -6.648  14.068  0.00  0.00    -0.205 F 
ATOM     22  C   UNL     1      -9.765  -8.474  16.892  0.00  0.00    +0.035 A 
ATOM     24  C   UNL     1     -10.555  -7.386  17.252  0.00  0.00    +0.026 A 
ATOM     25  C   UNL     1      -9.777  -8.950  15.585  0.00  0.00    +0.026 A 
ATOM     27  C   UNL     1     -11.363  -6.768  16.297  0.00  0.00    +0.040 A 
ATOM     28  C   UNL     1     -10.584  -8.333  14.629  0.00  0.00    +0.040 A 
ATOM     29  C   UNL     1     -11.377  -7.242  14.985  0.00  0.00    +0.124 A 
ENDBRANCH   8  22
BRANCH  20   9
ATOM      5  O   UNL     1      -7.831  -9.569  12.580  0.00  0.00    -0.269 OA
ATOM      9  N   UNL     1      -6.067 -11.081  12.693  0.00  0.00    -0.277 N 
ATOM     23  C   UNL     1      -7.050 -10.350  12.041  0.00  0.00    +0.255 C 
ATOM     34  H   UNL     1      -5.610 -11.836  12.187  0.00  0.00    +0.155 HD
BRANCH  23  26
ATOM      1  S   UNL     1      -7.775  -9.277   9.660  0.00  0.00    -0.092 S 
ATOM     26  C   UNL     1      -7.122 -10.536  10.569  0.00  0.00    +0.074 A 
ATOM     30  C   UNL     1      -6.717 -11.608   9.872  0.00  0.00    +0.021 A 
ATOM     31  C   UNL     1      -6.951 -11.406   8.481  0.00  0.00    +0.008 A 
ATOM     32  C   UNL     1      -7.523 -10.178   8.226  0.00  0.00    +0.046 A 
ENDBRANCH  23  26
ENDBRANCH  20   9
TORSDOF 3
ENDMDL
MODEL 9
REMARK VINA RESULT:      -6.6     23.695     26.350
REMARK  Name = 11885924
REMARK  3 active torsions:
REMARK  status: ('A' for Active; 'I' for Inactive)
REMARK    1  A    between atoms: N_8  and  C_22
REMARK    2  A    between atoms: N_9  and  C_20
REMARK    3  A    between atoms: C_23  and  C_26
REMARK                            x       y       z     vdW  Elec       q    Type
REMARK                         _______ _______ _______ _____ _____    ______ ____
ROOT
ATOM      3  O   UNL     1       9.116 -10.941  31.967  0.00  0.00    -0.266 OA
ATOM      4  O   UNL     1       7.543  -9.947  36.848  0.00  0.00    -0.252 OA
ATOM      6  N   UNL     1       7.739  -7.932  35.729  0.00  0.00    -0.284 N 
ATOM      7  N   UNL     1       8.570  -8.819  32.780  0.00  0.00    -0.310 N 
ATOM      8  N   UNL     1       5.624  -8.934  36.031  0.00  0.00    -0.269 N 
ATOM     10  C   UNL     1       9.942  -7.634  34.585  0.00  0.00    +0.027 C 
ATOM     11  C   UNL     1       7.937  -6.547  33.668  0.00  0.00    +0.054 C 
ATOM     12  C   UNL     1       9.425  -6.352  33.942  0.00  0.00    +0.018 C 
ATOM     13  C   UNL     1       9.195  -7.910  35.901  0.00  0.00    +0.114 C 
ATOM     14  C   UNL     1       9.798  -8.787  33.585  0.00  0.00    +0.130 C 
ATOM     15  C   UNL     1       7.185  -6.779  34.996  0.00  0.00    +0.119 C 
ATOM     16  C   UNL     1       7.701  -7.725  32.738  0.00  0.00    +0.027 A 
ATOM     17  C   UNL     1       6.647  -7.730  31.905  0.00  0.00    +0.024 A 
ATOM     18  C   UNL     1       8.370  -9.961  31.977  0.00  0.00    +0.273 A 
ATOM     19  C   UNL     1       7.000  -9.019  36.245  0.00  0.00    +0.306 C 
ATOM     20  C   UNL     1       7.170  -9.938  31.082  0.00  0.00    +0.099 A 
ATOM     21  C   UNL     1       6.378  -8.861  31.063  0.00  0.00    +0.030 A 
ATOM     33  H   UNL     1       5.207  -8.014  35.946  0.00  0.00    +0.156 HD
ENDROOT
BRANCH   8  22
ATOM      2  F   UNL     1       2.014 -13.128  35.777  0.00  0.00    -0.205 F 
ATOM     22  C   UNL     1       4.701 -10.007  35.966  0.00  0.00    +0.035 A 
ATOM     24  C   UNL     1       3.826 -10.231  37.024  0.00  0.00    +0.026 A 
ATOM     25  C   UNL     1       4.676 -10.831  34.845  0.00  0.00    +0.026 A 
ATOM     27  C   UNL     1       2.916 -11.287  36.961  0.00  0.00    +0.040 A 
ATOM     28  C   UNL     1       3.767 -11.887  34.780  0.00  0.00    +0.040 A 
ATOM     29  C   UNL     1       2.887 -12.115  35.839  0.00  0.00    +0.124 A 
ENDBRANCH   8  22
BRANCH  20   9
ATOM      5  O   UNL     1       5.829 -12.325  31.889  0.00  0.00    -0.269 OA
ATOM      9  N   UNL     1       6.932 -11.031  30.302  0.00  0.00    -0.277 N 
ATOM     23  C   UNL     1       6.271 -12.166  30.754  0.00  0.00    +0.255 C 
ATOM     34  H   UNL     1       7.424 -11.080  29.413  0.00  0.00    +0.155 HD
BRANCH  23  26
ATOM      1  S   UNL     1       7.388 -13.602  28.745  0.00  0.00    -0.092 S 
ATOM     26  C   UNL     1       6.085 -13.245  29.751  0.00  0.00    +0.074 A 
ATOM     30  C   UNL     1       4.979 -13.978  29.553  0.00  0.00    +0.021 A 
ATOM     31  C   UNL     1       5.193 -14.913  28.500  0.00  0.00    +0.008 A 
ATOM     32  C   UNL     1       6.462 -14.817  27.972  0.00  0.00    +0.046 A 
ENDBRANCH  23  26
ENDBRANCH  20   9
TORSDOF 3
ENDMDL
MODEL 10
REMARK VINA RESULT:      -6.6     29.749     31.819
REMARK  Name = 11885924
REMARK  3 active torsions:
REMARK  status: ('A' for Active; 'I' for Inactive)
REMARK    1  A    between atoms: N_8  and  C_22
REMARK    2  A    between atoms: N_9  and  C_20
REMARK    3  A    between atoms: C_23  and  C_26
REMARK                            x       y       z     vdW  Elec       q    Type
REMARK                         _______ _______ _______ _____ _____    ______ ____
ROOT
ATOM      3  O   UNL     1      -9.722  -5.261   8.901  0.00  0.00    -0.266 OA
ATOM      4  O   UNL     1     -12.475  -3.704  13.060  0.00  0.00    -0.252 OA
ATOM      6  N   UNL     1     -13.952  -4.538  11.488  0.00  0.00    -0.284 N 
ATOM      7  N   UNL     1     -12.032  -5.528   9.140  0.00  0.00    -0.310 N 
ATOM      8  N   UNL     1     -13.294  -5.856  13.331  0.00  0.00    -0.269 N 
ATOM     10  C   UNL     1     -13.653  -3.550   9.210  0.00  0.00    +0.027 C 
ATOM     11  C   UNL     1     -14.514  -5.840   9.439  0.00  0.00    +0.054 C 
ATOM     12  C   UNL     1     -14.669  -4.541   8.656  0.00  0.00    +0.018 C 
ATOM     13  C   UNL     1     -13.913  -3.299  10.706  0.00  0.00    +0.114 C 
ATOM     14  C   UNL     1     -12.241  -4.086   8.951  0.00  0.00    +0.130 C 
ATOM     15  C   UNL     1     -14.821  -5.592  10.932  0.00  0.00    +0.119 C 
ATOM     16  C   UNL     1     -13.111  -6.403   9.295  0.00  0.00    +0.027 A 
ATOM     17  C   UNL     1     -12.904  -7.728   9.349  0.00  0.00    +0.024 A 
ATOM     18  C   UNL     1     -10.703  -5.991   9.054  0.00  0.00    +0.273 A 
ATOM     19  C   UNL     1     -13.177  -4.637  12.663  0.00  0.00    +0.306 C 
ATOM     20  C   UNL     1     -10.511  -7.473   9.144  0.00  0.00    +0.099 A 
ATOM     21  C   UNL     1     -11.576  -8.272   9.273  0.00  0.00    +0.030 A 
ATOM     33  H   UNL     1     -14.159  -6.377  13.232  0.00  0.00    +0.156 HD
ENDROOT
BRANCH   8  22
ATOM      2  F   UNL     1      -9.583  -8.183  16.723  0.00  0.00    -0.205 F 
ATOM     22  C   UNL     1     -12.346  -6.451  14.198  0.00  0.00    +0.035 A 
ATOM     24  C   UNL     1     -12.011  -5.822  15.393  0.00  0.00    +0.026 A 
ATOM     25  C   UNL     1     -11.753  -7.661  13.849  0.00  0.00    +0.026 A 
ATOM     27  C   UNL     1     -11.076  -6.408  16.248  0.00  0.00    +0.040 A 
ATOM     28  C   UNL     1     -10.818  -8.247  14.703  0.00  0.00    +0.040 A 
ATOM     29  C   UNL     1     -10.480  -7.620  15.902  0.00  0.00    +0.124 A 
ENDBRANCH   8  22
BRANCH  20   9
ATOM      5  O   UNL     1      -9.197  -8.458   6.809  0.00  0.00    -0.269 OA
ATOM      9  N   UNL     1      -9.239  -7.960   9.081  0.00  0.00    -0.277 N 
ATOM     23  C   UNL     1      -8.655  -8.426   7.911  0.00  0.00    +0.255 C 
ATOM     34  H   UNL     1      -8.776  -8.158   9.965  0.00  0.00    +0.155 HD
BRANCH  23  26
ATOM      1  S   UNL     1      -6.452  -8.575   9.483  0.00  0.00    -0.092 S 
ATOM     26  C   UNL     1      -7.251  -8.897   8.036  0.00  0.00    +0.074 A 
ATOM     30  C   UNL     1      -6.539  -9.559   7.112  0.00  0.00    +0.021 A 
ATOM     31  C   UNL     1      -5.232  -9.836   7.607  0.00  0.00    +0.008 A 
ATOM     32  C   UNL     1      -5.051  -9.356   8.886  0.00  0.00    +0.046 A 
ENDBRANCH  23  26
ENDBRANCH  20   9
TORSDOF 3
ENDMDL
