REMARK  Name = 26742987
REMARK  9 active torsions:
REMARK  status: ('A' for Active; 'I' for Inactive)
REMARK    1  A    between atoms: N_5  and  C_22
REMARK    2  A    between atoms: C_7  and  C_11
REMARK    3  A    between atoms: C_8  and  C_13
REMARK    4  A    between atoms: C_11  and  C_14
REMARK    5  A    between atoms: C_13  and  C_15
REMARK    6  A    between atoms: C_21  and  C_23
REMARK    7  A    between atoms: C_23  and  C_26
REMARK    8  A    between atoms: C_26  and  C_27
REMARK    9  A    between atoms: C_27  and  C_31
REMARK                            x       y       z     vdW  Elec       q    Type
REMARK                         _______ _______ _______ _____ _____    ______ ____
ROOT
ATOM      3  N   UNL     1       2.530   2.534  -1.931  0.00  0.00    -0.316 NA
ATOM      7  C   UNL     1       0.991   1.821   0.483  0.00  0.00    +0.004 C 
ATOM      8  C   UNL     1       2.328   1.137   0.112  0.00  0.00    +0.012 C 
ATOM      9  C   UNL     1       0.943   3.215  -0.165  0.00  0.00    +0.019 C 
ATOM     10  C   UNL     1       2.580   1.170  -1.405  0.00  0.00    +0.085 C 
ATOM     12  C   UNL     1       1.243   3.173  -1.663  0.00  0.00    +0.081 C 
ATOM     32  H   UNL     1       2.692   2.514  -2.938  0.00  0.00    +0.122 HD
ENDROOT
BRANCH   7  11
ATOM     11  C   UNL     1      -0.253   1.004   0.112  0.00  0.00    +0.100 C 
BRANCH  11  14
ATOM      1  O   UNL     1      -1.291   2.359   1.762  0.00  0.00    -0.276 OA
ATOM      4  N   UNL     1      -2.644   0.809   0.682  0.00  0.00    -0.298 N 
ATOM      5  N   UNL     1      -5.245  -0.322   0.100  0.00  0.00    -0.327 N 
ATOM     14  C   UNL     1      -1.435   1.460   0.930  0.00  0.00    +0.216 C 
ATOM     16  C   UNL     1      -3.835   1.190   1.438  0.00  0.00    +0.126 C 
ATOM     17  C   UNL     1      -2.817  -0.251  -0.314  0.00  0.00    +0.126 C 
ATOM     18  C   UNL     1      -5.109   1.047   0.607  0.00  0.00    +0.124 C 
ATOM     19  C   UNL     1      -4.033  -1.134  -0.034  0.00  0.00    +0.124 C 
BRANCH   5  22
ATOM     22  C   UNL     1      -6.498  -0.844  -0.209  0.00  0.00    +0.030 A 
ATOM     24  C   UNL     1      -7.517   0.002  -0.648  0.00  0.00    +0.023 A 
ATOM     25  C   UNL     1      -6.735  -2.212  -0.081  0.00  0.00    +0.023 A 
ATOM     28  C   UNL     1      -8.773  -0.520  -0.958  0.00  0.00    +0.002 A 
ATOM     29  C   UNL     1      -7.990  -2.735  -0.391  0.00  0.00    +0.002 A 
ATOM     30  C   UNL     1      -9.009  -1.889  -0.830  0.00  0.00    +0.000 A 
ENDBRANCH   5  22
ENDBRANCH  11  14
ENDBRANCH   7  11
BRANCH   8  13
ATOM     13  C   UNL     1       2.438  -0.292   0.644  0.00  0.00    +0.064 C 
BRANCH  13  15
ATOM      2  O   UNL     1       5.818  -1.032   1.638  0.00  0.00    -0.359 OA
ATOM      6  N   UNL     1       4.551  -0.514   1.878  0.00  0.00    -0.083 NA
ATOM     15  C   UNL     1       3.871  -0.728   0.748  0.00  0.00    +0.084 A 
ATOM     20  C   UNL     1       4.649  -1.371  -0.230  0.00  0.00    +0.071 A 
ATOM     21  C   UNL     1       5.864  -1.539   0.380  0.00  0.00    +0.138 A 
BRANCH  21  23
ATOM     23  C   UNL     1       7.140  -2.130  -0.042  0.00  0.00    +0.077 C 
BRANCH  23  26
ATOM     26  C   UNL     1       8.203  -1.073  -0.417  0.00  0.00    +0.007 C 
BRANCH  26  27
ATOM     27  C   UNL     1       9.511  -1.700  -0.898  0.00  0.00    -0.003 C 
ATOM     31  C   UNL     1      10.524  -0.639  -1.298  0.00  0.00    +0.004 C 
ENDBRANCH  26  27
ENDBRANCH  23  26
ENDBRANCH  21  23
ENDBRANCH  13  15
ENDBRANCH   8  13
TORSDOF 8
