MODEL 1
REMARK VINA RESULT:      -6.6      0.000      0.000
REMARK  Name = 75367798
REMARK  7 active torsions:
REMARK  status: ('A' for Active; 'I' for Inactive)
REMARK    1  A    between atoms: O_2  and  C_6
REMARK    2  A    between atoms: O_2  and  C_12
REMARK    3  A    between atoms: O_3  and  C_18
REMARK    4  A    between atoms: O_3  and  C_24
REMARK    5  A    between atoms: N_4  and  C_9
REMARK    6  A    between atoms: C_9  and  C_11
REMARK    7  A    between atoms: C_12  and  C_15
REMARK                            x       y       z     vdW  Elec       q    Type
REMARK                         _______ _______ _______ _____ _____    ______ ____
ROOT
ATOM      1  O   UNL     1      10.909   6.674  21.254  0.00  0.00    -0.376 OA
ATOM      4  N   UNL     1      12.207   9.508  21.149  0.00  0.00    -0.293 NA
ATOM      5  C   UNL     1      13.132   8.801  20.255  0.00  0.00    +0.118 C 
ATOM      6  C   UNL     1      12.843   7.323  19.950  0.00  0.00    +0.158 C 
ATOM      7  C   UNL     1      10.803   9.129  20.987  0.00  0.00    +0.113 C 
ATOM      8  C   UNL     1      12.321   6.526  21.137  0.00  0.00    +0.192 C 
ATOM     10  C   UNL     1      10.493   7.899  21.842  0.00  0.00    +0.175 C 
ENDROOT
BRANCH   6   2
ATOM      2  O   UNL     1      14.059   6.714  19.511  0.00  0.00    -0.368 OA
BRANCH   2  12
ATOM     12  C   UNL     1      15.060   7.687  19.260  0.00  0.00    +0.195 C 
BRANCH  12  15
ATOM     15  C   UNL     1      16.391   7.142  19.683  0.00  0.00    -0.022 A 
ATOM     19  C   UNL     1      16.917   6.014  19.052  0.00  0.00    +0.006 A 
ATOM     20  C   UNL     1      17.106   7.763  20.707  0.00  0.00    +0.006 A 
ATOM     21  C   UNL     1      18.155   5.508  19.445  0.00  0.00    +0.000 A 
ATOM     22  C   UNL     1      18.344   7.257  21.100  0.00  0.00    +0.000 A 
ATOM     23  C   UNL     1      18.870   6.129  20.469  0.00  0.00    +0.000 A 
ENDBRANCH  12  15
ENDBRANCH   2  12
ENDBRANCH   6   2
BRANCH   4   9
ATOM      9  C   UNL     1      12.389  10.954  21.018  0.00  0.00    +0.119 C 
BRANCH   9  11
ATOM     11  C   UNL     1      11.819  11.699  22.195  0.00  0.00    -0.033 A 
ATOM     13  C   UNL     1      10.988  12.801  21.987  0.00  0.00    +0.008 A 
ATOM     14  C   UNL     1      12.123  11.290  23.494  0.00  0.00    +0.008 A 
ATOM     16  C   UNL     1      10.460  13.492  23.077  0.00  0.00    +0.046 A 
ATOM     17  C   UNL     1      11.594  11.982  24.584  0.00  0.00    +0.046 A 
ATOM     18  C   UNL     1      10.763  13.083  24.376  0.00  0.00    +0.120 A 
BRANCH  18   3
ATOM      3  O   UNL     1      10.248  13.757  25.440  0.00  0.00    -0.495 OA
ATOM     24  C   UNL     1      11.164  14.512  26.233  0.00  0.00    +0.277 C 
ENDBRANCH  18   3
ENDBRANCH   9  11
ENDBRANCH   4   9
TORSDOF 6
ENDMDL
MODEL 2
REMARK VINA RESULT:      -6.6      3.236      5.724
REMARK  Name = 75367798
REMARK  7 active torsions:
REMARK  status: ('A' for Active; 'I' for Inactive)
REMARK    1  A    between atoms: O_2  and  C_6
REMARK    2  A    between atoms: O_2  and  C_12
REMARK    3  A    between atoms: O_3  and  C_18
REMARK    4  A    between atoms: O_3  and  C_24
REMARK    5  A    between atoms: N_4  and  C_9
REMARK    6  A    between atoms: C_9  and  C_11
REMARK    7  A    between atoms: C_12  and  C_15
REMARK                            x       y       z     vdW  Elec       q    Type
REMARK                         _______ _______ _______ _____ _____    ______ ____
ROOT
ATOM      1  O   UNL     1      12.042   8.077  21.886  0.00  0.00    -0.376 OA
ATOM      4  N   UNL     1      12.565   8.765  18.889  0.00  0.00    -0.293 NA
ATOM      5  C   UNL     1      13.483   7.629  19.025  0.00  0.00    +0.118 C 
ATOM      6  C   UNL     1      13.525   6.900  20.378  0.00  0.00    +0.158 C 
ATOM      7  C   UNL     1      11.291   8.598  19.590  0.00  0.00    +0.113 C 
ATOM      8  C   UNL     1      13.410   7.815  21.589  0.00  0.00    +0.192 C 
ATOM     10  C   UNL     1      11.433   9.048  21.045  0.00  0.00    +0.175 C 
ENDROOT
BRANCH   6   2
ATOM      2  O   UNL     1      14.770   6.204  20.468  0.00  0.00    -0.368 OA
BRANCH   2  12
ATOM     12  C   UNL     1      15.687   6.658  19.487  0.00  0.00    +0.195 C 
BRANCH  12  15
ATOM     15  C   UNL     1      17.024   6.878  20.129  0.00  0.00    -0.022 A 
ATOM     19  C   UNL     1      17.217   7.958  20.990  0.00  0.00    +0.006 A 
ATOM     20  C   UNL     1      18.076   6.000  19.867  0.00  0.00    +0.006 A 
ATOM     21  C   UNL     1      18.461   8.161  21.588  0.00  0.00    +0.000 A 
ATOM     22  C   UNL     1      19.319   6.203  20.464  0.00  0.00    +0.000 A 
ATOM     23  C   UNL     1      19.512   7.284  21.326  0.00  0.00    +0.000 A 
ENDBRANCH  12  15
ENDBRANCH   2  12
ENDBRANCH   6   2
BRANCH   4   9
ATOM      9  C   UNL     1      12.360   9.078  17.475  0.00  0.00    +0.119 C 
BRANCH   9  11
ATOM     11  C   UNL     1      13.461   9.948  16.929  0.00  0.00    -0.033 A 
ATOM     13  C   UNL     1      13.917  11.040  17.667  0.00  0.00    +0.008 A 
ATOM     14  C   UNL     1      14.023   9.664  15.684  0.00  0.00    +0.008 A 
ATOM     16  C   UNL     1      14.936  11.848  17.161  0.00  0.00    +0.046 A 
ATOM     17  C   UNL     1      15.042  10.471  15.179  0.00  0.00    +0.046 A 
ATOM     18  C   UNL     1      15.500  11.563  15.917  0.00  0.00    +0.120 A 
BRANCH  18   3
ATOM      3  O   UNL     1      16.493  12.349  15.423  0.00  0.00    -0.495 OA
ATOM     24  C   UNL     1      16.910  12.101  14.081  0.00  0.00    +0.277 C 
ENDBRANCH  18   3
ENDBRANCH   9  11
ENDBRANCH   4   9
TORSDOF 6
ENDMDL
MODEL 3
REMARK VINA RESULT:      -6.3      1.422      2.109
REMARK  Name = 75367798
REMARK  7 active torsions:
REMARK  status: ('A' for Active; 'I' for Inactive)
REMARK    1  A    between atoms: O_2  and  C_6
REMARK    2  A    between atoms: O_2  and  C_12
REMARK    3  A    between atoms: O_3  and  C_18
REMARK    4  A    between atoms: O_3  and  C_24
REMARK    5  A    between atoms: N_4  and  C_9
REMARK    6  A    between atoms: C_9  and  C_11
REMARK    7  A    between atoms: C_12  and  C_15
REMARK                            x       y       z     vdW  Elec       q    Type
REMARK                         _______ _______ _______ _____ _____    ______ ____
ROOT
ATOM      1  O   UNL     1      11.241   6.737  20.768  0.00  0.00    -0.376 OA
ATOM      4  N   UNL     1      12.686   9.471  20.366  0.00  0.00    -0.293 NA
ATOM      5  C   UNL     1      13.826   8.576  20.141  0.00  0.00    +0.118 C 
ATOM      6  C   UNL     1      13.568   7.061  20.184  0.00  0.00    +0.158 C 
ATOM      7  C   UNL     1      11.426   8.999  19.790  0.00  0.00    +0.113 C 
ATOM      8  C   UNL     1      12.575   6.623  21.252  0.00  0.00    +0.192 C 
ATOM     10  C   UNL     1      10.723   8.060  20.773  0.00  0.00    +0.175 C 
ENDROOT
BRANCH   6   2
ATOM      2  O   UNL     1      14.811   6.406  20.443  0.00  0.00    -0.368 OA
BRANCH   2  12
ATOM     12  C   UNL     1      15.787   6.754  19.474  0.00  0.00    +0.195 C 
BRANCH  12  15
ATOM     15  C   UNL     1      17.143   6.734  20.115  0.00  0.00    -0.022 A 
ATOM     19  C   UNL     1      17.446   7.634  21.137  0.00  0.00    +0.006 A 
ATOM     20  C   UNL     1      18.101   5.813  19.691  0.00  0.00    +0.006 A 
ATOM     21  C   UNL     1      18.707   7.615  21.733  0.00  0.00    +0.000 A 
ATOM     22  C   UNL     1      19.361   5.793  20.287  0.00  0.00    +0.000 A 
ATOM     23  C   UNL     1      19.665   6.694  21.309  0.00  0.00    +0.000 A 
ENDBRANCH  12  15
ENDBRANCH   2  12
ENDBRANCH   6   2
BRANCH   4   9
ATOM      9  C   UNL     1      13.010  10.823  19.908  0.00  0.00    +0.119 C 
BRANCH   9  11
ATOM     11  C   UNL     1      12.295  11.874  20.714  0.00  0.00    -0.033 A 
ATOM     13  C   UNL     1      11.706  11.536  21.933  0.00  0.00    +0.008 A 
ATOM     14  C   UNL     1      12.220  13.185  20.242  0.00  0.00    +0.008 A 
ATOM     16  C   UNL     1      11.042  12.510  22.680  0.00  0.00    +0.046 A 
ATOM     17  C   UNL     1      11.557  14.158  20.989  0.00  0.00    +0.046 A 
ATOM     18  C   UNL     1      10.968  13.821  22.209  0.00  0.00    +0.120 A 
BRANCH  18   3
ATOM      3  O   UNL     1      10.322  14.771  22.937  0.00  0.00    -0.495 OA
ATOM     24  C   UNL     1       8.897  14.798  22.847  0.00  0.00    +0.277 C 
ENDBRANCH  18   3
ENDBRANCH   9  11
ENDBRANCH   4   9
TORSDOF 6
ENDMDL
MODEL 4
REMARK VINA RESULT:      -6.2      2.599      7.906
REMARK  Name = 75367798
REMARK  7 active torsions:
REMARK  status: ('A' for Active; 'I' for Inactive)
REMARK    1  A    between atoms: O_2  and  C_6
REMARK    2  A    between atoms: O_2  and  C_12
REMARK    3  A    between atoms: O_3  and  C_18
REMARK    4  A    between atoms: O_3  and  C_24
REMARK    5  A    between atoms: N_4  and  C_9
REMARK    6  A    between atoms: C_9  and  C_11
REMARK    7  A    between atoms: C_12  and  C_15
REMARK                            x       y       z     vdW  Elec       q    Type
REMARK                         _______ _______ _______ _____ _____    ______ ____
ROOT
ATOM      1  O   UNL     1      10.699   6.785  21.954  0.00  0.00    -0.376 OA
ATOM      4  N   UNL     1      13.057   8.404  20.709  0.00  0.00    -0.293 NA
ATOM      5  C   UNL     1      12.518   9.436  21.602  0.00  0.00    +0.118 C 
ATOM      6  C   UNL     1      11.329   9.058  22.500  0.00  0.00    +0.158 C 
ATOM      7  C   UNL     1      13.061   7.056  21.279  0.00  0.00    +0.113 C 
ATOM      8  C   UNL     1      10.305   8.149  21.836  0.00  0.00    +0.192 C 
ATOM     10  C   UNL     1      11.708   6.384  21.038  0.00  0.00    +0.175 C 
ENDROOT
BRANCH   6   2
ATOM      2  O   UNL     1      10.665  10.262  22.887  0.00  0.00    -0.368 OA
BRANCH   2  12
ATOM     12  C   UNL     1      11.197  10.778  24.096  0.00  0.00    +0.195 C 
BRANCH  12  15
ATOM     15  C   UNL     1      10.875  12.241  24.189  0.00  0.00    -0.022 A 
ATOM     19  C   UNL     1      10.709  12.994  23.027  0.00  0.00    +0.006 A 
ATOM     20  C   UNL     1      10.741  12.847  25.438  0.00  0.00    +0.006 A 
ATOM     21  C   UNL     1      10.409  14.354  23.114  0.00  0.00    +0.000 A 
ATOM     22  C   UNL     1      10.441  14.206  25.525  0.00  0.00    +0.000 A 
ATOM     23  C   UNL     1      10.275  14.960  24.363  0.00  0.00    +0.000 A 
ENDBRANCH  12  15
ENDBRANCH   2  12
ENDBRANCH   6   2
BRANCH   4   9
ATOM      9  C   UNL     1      14.387   8.791  20.240  0.00  0.00    +0.119 C 
BRANCH   9  11
ATOM     11  C   UNL     1      14.373   9.197  18.790  0.00  0.00    -0.033 A 
ATOM     13  C   UNL     1      14.691  10.508  18.431  0.00  0.00    +0.008 A 
ATOM     14  C   UNL     1      14.041   8.265  17.807  0.00  0.00    +0.008 A 
ATOM     16  C   UNL     1      14.677  10.886  17.088  0.00  0.00    +0.046 A 
ATOM     17  C   UNL     1      14.028   8.644  16.464  0.00  0.00    +0.046 A 
ATOM     18  C   UNL     1      14.346   9.953  16.104  0.00  0.00    +0.120 A 
BRANCH  18   3
ATOM      3  O   UNL     1      14.333  10.321  14.795  0.00  0.00    -0.495 OA
ATOM     24  C   UNL     1      15.506  10.957  14.287  0.00  0.00    +0.277 C 
ENDBRANCH  18   3
ENDBRANCH   9  11
ENDBRANCH   4   9
TORSDOF 6
ENDMDL
MODEL 5
REMARK VINA RESULT:      -6.1     26.998     28.966
REMARK  Name = 75367798
REMARK  7 active torsions:
REMARK  status: ('A' for Active; 'I' for Inactive)
REMARK    1  A    between atoms: O_2  and  C_6
REMARK    2  A    between atoms: O_2  and  C_12
REMARK    3  A    between atoms: O_3  and  C_18
REMARK    4  A    between atoms: O_3  and  C_24
REMARK    5  A    between atoms: N_4  and  C_9
REMARK    6  A    between atoms: C_9  and  C_11
REMARK    7  A    between atoms: C_12  and  C_15
REMARK                            x       y       z     vdW  Elec       q    Type
REMARK                         _______ _______ _______ _____ _____    ______ ____
ROOT
ATOM      1  O   UNL     1      -2.999 -13.842  14.763  0.00  0.00    -0.376 OA
ATOM      4  N   UNL     1      -2.565 -11.376  12.903  0.00  0.00    -0.293 NA
ATOM      5  C   UNL     1      -2.657 -10.677  14.189  0.00  0.00    +0.118 C 
ATOM      6  C   UNL     1      -2.822 -11.530  15.458  0.00  0.00    +0.158 C 
ATOM      7  C   UNL     1      -1.824 -12.637  12.953  0.00  0.00    +0.113 C 
ATOM      8  C   UNL     1      -3.731 -12.739  15.289  0.00  0.00    +0.192 C 
ATOM     10  C   UNL     1      -2.760 -13.776  13.364  0.00  0.00    +0.175 C 
ENDROOT
BRANCH   6   2
ATOM      2  O   UNL     1      -3.377 -10.701  16.481  0.00  0.00    -0.368 OA
BRANCH   2  12
ATOM     12  C   UNL     1      -4.689 -10.278  16.146  0.00  0.00    +0.195 C 
BRANCH  12  15
ATOM     15  C   UNL     1      -5.586 -10.476  17.332  0.00  0.00    -0.022 A 
ATOM     19  C   UNL     1      -5.075 -11.019  18.511  0.00  0.00    +0.006 A 
ATOM     20  C   UNL     1      -6.931 -10.115  17.257  0.00  0.00    +0.006 A 
ATOM     21  C   UNL     1      -5.908 -11.202  19.614  0.00  0.00    +0.000 A 
ATOM     22  C   UNL     1      -7.765 -10.297  18.360  0.00  0.00    +0.000 A 
ATOM     23  C   UNL     1      -7.253 -10.841  19.539  0.00  0.00    +0.000 A 
ENDBRANCH  12  15
ENDBRANCH   2  12
ENDBRANCH   6   2
BRANCH   4   9
ATOM      9  C   UNL     1      -2.025 -10.479  11.881  0.00  0.00    +0.119 C 
BRANCH   9  11
ATOM     11  C   UNL     1      -2.980 -10.301  10.731  0.00  0.00    -0.033 A 
ATOM     13  C   UNL     1      -3.191  -9.032  10.190  0.00  0.00    +0.008 A 
ATOM     14  C   UNL     1      -3.655 -11.404  10.206  0.00  0.00    +0.008 A 
ATOM     16  C   UNL     1      -4.077  -8.866   9.125  0.00  0.00    +0.046 A 
ATOM     17  C   UNL     1      -4.539 -11.238   9.141  0.00  0.00    +0.046 A 
ATOM     18  C   UNL     1      -4.751  -9.970   8.599  0.00  0.00    +0.120 A 
BRANCH  18   3
ATOM      3  O   UNL     1      -5.614  -9.809   7.561  0.00  0.00    -0.495 OA
ATOM     24  C   UNL     1      -5.630 -10.833   6.567  0.00  0.00    +0.277 C 
ENDBRANCH  18   3
ENDBRANCH   9  11
ENDBRANCH   4   9
TORSDOF 6
ENDMDL
MODEL 6
REMARK VINA RESULT:      -6.1     26.981     30.009
REMARK  Name = 75367798
REMARK  7 active torsions:
REMARK  status: ('A' for Active; 'I' for Inactive)
REMARK    1  A    between atoms: O_2  and  C_6
REMARK    2  A    between atoms: O_2  and  C_12
REMARK    3  A    between atoms: O_3  and  C_18
REMARK    4  A    between atoms: O_3  and  C_24
REMARK    5  A    between atoms: N_4  and  C_9
REMARK    6  A    between atoms: C_9  and  C_11
REMARK    7  A    between atoms: C_12  and  C_15
REMARK                            x       y       z     vdW  Elec       q    Type
REMARK                         _______ _______ _______ _____ _____    ______ ____
ROOT
ATOM      1  O   UNL     1     -18.734   3.259  23.134  0.00  0.00    -0.376 OA
ATOM      4  N   UNL     1     -17.111   3.874  25.726  0.00  0.00    -0.293 NA
ATOM      5  C   UNL     1     -16.113   4.282  24.731  0.00  0.00    +0.118 C 
ATOM      6  C   UNL     1     -16.509   4.206  23.247  0.00  0.00    +0.158 C 
ATOM      7  C   UNL     1     -18.486   4.242  25.388  0.00  0.00    +0.113 C 
ATOM      8  C   UNL     1     -17.357   2.996  22.884  0.00  0.00    +0.192 C 
ATOM     10  C   UNL     1     -19.112   3.165  24.501  0.00  0.00    +0.175 C 
ENDROOT
BRANCH   6   2
ATOM      2  O   UNL     1     -15.310   4.154  22.470  0.00  0.00    -0.368 OA
BRANCH   2  12
ATOM     12  C   UNL     1     -14.315   5.014  23.001  0.00  0.00    +0.195 C 
BRANCH  12  15
ATOM     15  C   UNL     1     -13.797   5.898  21.906  0.00  0.00    -0.022 A 
ATOM     19  C   UNL     1     -12.429   5.949  21.638  0.00  0.00    +0.006 A 
ATOM     20  C   UNL     1     -14.683   6.669  21.154  0.00  0.00    +0.006 A 
ATOM     21  C   UNL     1     -11.948   6.772  20.619  0.00  0.00    +0.000 A 
ATOM     22  C   UNL     1     -14.203   7.491  20.136  0.00  0.00    +0.000 A 
ATOM     23  C   UNL     1     -12.834   7.542  19.867  0.00  0.00    +0.000 A 
ENDBRANCH  12  15
ENDBRANCH   2  12
ENDBRANCH   6   2
BRANCH   4   9
ATOM      9  C   UNL     1     -16.733   4.371  27.049  0.00  0.00    +0.119 C 
BRANCH   9  11
ATOM     11  C   UNL     1     -16.184   3.275  27.924  0.00  0.00    -0.033 A 
ATOM     13  C   UNL     1     -16.535   1.947  27.679  0.00  0.00    +0.008 A 
ATOM     14  C   UNL     1     -15.328   3.587  28.980  0.00  0.00    +0.008 A 
ATOM     16  C   UNL     1     -16.028   0.931  28.490  0.00  0.00    +0.046 A 
ATOM     17  C   UNL     1     -14.821   2.571  29.790  0.00  0.00    +0.046 A 
ATOM     18  C   UNL     1     -15.170   1.243  29.545  0.00  0.00    +0.120 A 
BRANCH  18   3
ATOM      3  O   UNL     1     -14.675   0.253  30.336  0.00  0.00    -0.495 OA
ATOM     24  C   UNL     1     -13.624  -0.545  29.794  0.00  0.00    +0.277 C 
ENDBRANCH  18   3
ENDBRANCH   9  11
ENDBRANCH   4   9
TORSDOF 6
ENDMDL
MODEL 7
REMARK VINA RESULT:      -5.8      1.866      7.912
REMARK  Name = 75367798
REMARK  7 active torsions:
REMARK  status: ('A' for Active; 'I' for Inactive)
REMARK    1  A    between atoms: O_2  and  C_6
REMARK    2  A    between atoms: O_2  and  C_12
REMARK    3  A    between atoms: O_3  and  C_18
REMARK    4  A    between atoms: O_3  and  C_24
REMARK    5  A    between atoms: N_4  and  C_9
REMARK    6  A    between atoms: C_9  and  C_11
REMARK    7  A    between atoms: C_12  and  C_15
REMARK                            x       y       z     vdW  Elec       q    Type
REMARK                         _______ _______ _______ _____ _____    ______ ____
ROOT
ATOM      1  O   UNL     1      11.250   7.589  22.220  0.00  0.00    -0.376 OA
ATOM      4  N   UNL     1      13.310   8.104  19.935  0.00  0.00    -0.293 NA
ATOM      5  C   UNL     1      13.461   9.366  20.667  0.00  0.00    +0.118 C 
ATOM      6  C   UNL     1      12.647   9.548  21.958  0.00  0.00    +0.158 C 
ATOM      7  C   UNL     1      13.153   6.926  20.790  0.00  0.00    +0.113 C 
ATOM      8  C   UNL     1      11.238   8.976  21.898  0.00  0.00    +0.192 C 
ATOM     10  C   UNL     1      11.681   6.744  21.162  0.00  0.00    +0.175 C 
ENDROOT
BRANCH   6   2
ATOM      2  O   UNL     1      12.544  10.948  22.224  0.00  0.00    -0.368 OA
BRANCH   2  12
ATOM     12  C   UNL     1      11.203  11.396  22.117  0.00  0.00    +0.195 C 
BRANCH  12  15
ATOM     15  C   UNL     1      10.927  12.386  23.209  0.00  0.00    -0.022 A 
ATOM     19  C   UNL     1      10.634  13.712  22.892  0.00  0.00    +0.006 A 
ATOM     20  C   UNL     1      10.962  11.980  24.543  0.00  0.00    +0.006 A 
ATOM     21  C   UNL     1      10.377  14.633  23.909  0.00  0.00    +0.000 A 
ATOM     22  C   UNL     1      10.705  12.899  25.559  0.00  0.00    +0.000 A 
ATOM     23  C   UNL     1      10.413  14.227  25.242  0.00  0.00    +0.000 A 
ENDBRANCH  12  15
ENDBRANCH   2  12
ENDBRANCH   6   2
BRANCH   4   9
ATOM      9  C   UNL     1      14.413   7.935  18.989  0.00  0.00    +0.119 C 
BRANCH   9  11
ATOM     11  C   UNL     1      15.714   7.651  19.691  0.00  0.00    -0.033 A 
ATOM     13  C   UNL     1      16.352   6.424  19.505  0.00  0.00    +0.008 A 
ATOM     14  C   UNL     1      16.281   8.612  20.528  0.00  0.00    +0.008 A 
ATOM     16  C   UNL     1      17.558   6.159  20.157  0.00  0.00    +0.046 A 
ATOM     17  C   UNL     1      17.486   8.347  21.178  0.00  0.00    +0.046 A 
ATOM     18  C   UNL     1      18.125   7.121  20.992  0.00  0.00    +0.120 A 
BRANCH  18   3
ATOM      3  O   UNL     1      19.300   6.864  21.628  0.00  0.00    -0.495 OA
ATOM     24  C   UNL     1      19.772   7.852  22.543  0.00  0.00    +0.277 C 
ENDBRANCH  18   3
ENDBRANCH   9  11
ENDBRANCH   4   9
TORSDOF 6
ENDMDL
MODEL 8
REMARK VINA RESULT:      -5.8     26.223     29.336
REMARK  Name = 75367798
REMARK  7 active torsions:
REMARK  status: ('A' for Active; 'I' for Inactive)
REMARK    1  A    between atoms: O_2  and  C_6
REMARK    2  A    between atoms: O_2  and  C_12
REMARK    3  A    between atoms: O_3  and  C_18
REMARK    4  A    between atoms: O_3  and  C_24
REMARK    5  A    between atoms: N_4  and  C_9
REMARK    6  A    between atoms: C_9  and  C_11
REMARK    7  A    between atoms: C_12  and  C_15
REMARK                            x       y       z     vdW  Elec       q    Type
REMARK                         _______ _______ _______ _____ _____    ______ ____
ROOT
ATOM      1  O   UNL     1     -18.208   5.132  23.600  0.00  0.00    -0.376 OA
ATOM      4  N   UNL     1     -15.180   5.112  22.853  0.00  0.00    -0.293 NA
ATOM      5  C   UNL     1     -15.107   4.373  24.119  0.00  0.00    +0.118 C 
ATOM      6  C   UNL     1     -16.425   4.079  24.853  0.00  0.00    +0.158 C 
ATOM      7  C   UNL     1     -16.338   4.776  22.024  0.00  0.00    +0.113 C 
ATOM      8  C   UNL     1     -17.441   5.210  24.798  0.00  0.00    +0.192 C 
ATOM     10  C   UNL     1     -17.543   5.620  22.444  0.00  0.00    +0.175 C 
ENDROOT
BRANCH   6   2
ATOM      2  O   UNL     1     -16.120   3.826  26.226  0.00  0.00    -0.368 OA
BRANCH   2  12
ATOM     12  C   UNL     1     -16.561   2.538  26.623  0.00  0.00    +0.195 C 
BRANCH  12  15
ATOM     15  C   UNL     1     -16.084   2.264  28.019  0.00  0.00    -0.022 A 
ATOM     19  C   UNL     1     -16.318   1.021  28.606  0.00  0.00    +0.006 A 
ATOM     20  C   UNL     1     -15.403   3.253  28.729  0.00  0.00    +0.006 A 
ATOM     21  C   UNL     1     -15.874   0.766  29.903  0.00  0.00    +0.000 A 
ATOM     22  C   UNL     1     -14.958   2.999  30.026  0.00  0.00    +0.000 A 
ATOM     23  C   UNL     1     -15.193   1.755  30.614  0.00  0.00    +0.000 A 
ENDBRANCH  12  15
ENDBRANCH   2  12
ENDBRANCH   6   2
BRANCH   4   9
ATOM      9  C   UNL     1     -13.928   4.961  22.110  0.00  0.00    +0.119 C 
BRANCH   9  11
ATOM     11  C   UNL     1     -13.360   6.291  21.693  0.00  0.00    -0.033 A 
ATOM     13  C   UNL     1     -14.036   7.469  22.014  0.00  0.00    +0.008 A 
ATOM     14  C   UNL     1     -12.160   6.347  20.985  0.00  0.00    +0.008 A 
ATOM     16  C   UNL     1     -13.511   8.703  21.627  0.00  0.00    +0.046 A 
ATOM     17  C   UNL     1     -11.635   7.580  20.599  0.00  0.00    +0.046 A 
ATOM     18  C   UNL     1     -12.310   8.758  20.920  0.00  0.00    +0.120 A 
BRANCH  18   3
ATOM      3  O   UNL     1     -11.797   9.960  20.542  0.00  0.00    -0.495 OA
ATOM     24  C   UNL     1     -12.341  11.122  21.167  0.00  0.00    +0.277 C 
ENDBRANCH  18   3
ENDBRANCH   9  11
ENDBRANCH   4   9
TORSDOF 6
ENDMDL
MODEL 9
REMARK VINA RESULT:      -5.8     26.981     29.960
REMARK  Name = 75367798
REMARK  7 active torsions:
REMARK  status: ('A' for Active; 'I' for Inactive)
REMARK    1  A    between atoms: O_2  and  C_6
REMARK    2  A    between atoms: O_2  and  C_12
REMARK    3  A    between atoms: O_3  and  C_18
REMARK    4  A    between atoms: O_3  and  C_24
REMARK    5  A    between atoms: N_4  and  C_9
REMARK    6  A    between atoms: C_9  and  C_11
REMARK    7  A    between atoms: C_12  and  C_15
REMARK                            x       y       z     vdW  Elec       q    Type
REMARK                         _______ _______ _______ _____ _____    ______ ____
ROOT
ATOM      1  O   UNL     1     -17.089   2.244  23.220  0.00  0.00    -0.376 OA
ATOM      4  N   UNL     1     -17.141   3.179  26.195  0.00  0.00    -0.293 NA
ATOM      5  C   UNL     1     -16.755   4.446  25.565  0.00  0.00    +0.118 C 
ATOM      6  C   UNL     1     -16.656   4.483  24.031  0.00  0.00    +0.158 C 
ATOM      7  C   UNL     1     -18.142   2.414  25.449  0.00  0.00    +0.113 C 
ATOM      8  C   UNL     1     -16.072   3.223  23.409  0.00  0.00    +0.192 C 
ATOM     10  C   UNL     1     -17.454   1.540  24.399  0.00  0.00    +0.175 C 
ENDROOT
BRANCH   6   2
ATOM      2  O   UNL     1     -15.820   5.584  23.668  0.00  0.00    -0.368 OA
BRANCH   2  12
ATOM     12  C   UNL     1     -15.949   5.894  22.290  0.00  0.00    +0.195 C 
BRANCH  12  15
ATOM     15  C   UNL     1     -14.605   6.282  21.747  0.00  0.00    -0.022 A 
ATOM     19  C   UNL     1     -14.473   7.428  20.962  0.00  0.00    +0.006 A 
ATOM     20  C   UNL     1     -13.486   5.499  22.030  0.00  0.00    +0.006 A 
ATOM     21  C   UNL     1     -13.223   7.789  20.458  0.00  0.00    +0.000 A 
ATOM     22  C   UNL     1     -12.237   5.859  21.527  0.00  0.00    +0.000 A 
ATOM     23  C   UNL     1     -12.105   7.005  20.741  0.00  0.00    +0.000 A 
ENDBRANCH  12  15
ENDBRANCH   2  12
ENDBRANCH   6   2
BRANCH   4   9
ATOM      9  C   UNL     1     -17.566   3.412  27.576  0.00  0.00    +0.119 C 
BRANCH   9  11
ATOM     11  C   UNL     1     -16.548   2.914  28.567  0.00  0.00    -0.033 A 
ATOM     13  C   UNL     1     -15.597   3.791  29.090  0.00  0.00    +0.008 A 
ATOM     14  C   UNL     1     -16.554   1.575  28.960  0.00  0.00    +0.008 A 
ATOM     16  C   UNL     1     -14.653   3.329  30.008  0.00  0.00    +0.046 A 
ATOM     17  C   UNL     1     -15.610   1.115  29.878  0.00  0.00    +0.046 A 
ATOM     18  C   UNL     1     -14.660   1.991  30.403  0.00  0.00    +0.120 A 
BRANCH  18   3
ATOM      3  O   UNL     1     -13.740   1.541  31.297  0.00  0.00    -0.495 OA
ATOM     24  C   UNL     1     -13.684   2.203  32.560  0.00  0.00    +0.277 C 
ENDBRANCH  18   3
ENDBRANCH   9  11
ENDBRANCH   4   9
TORSDOF 6
ENDMDL
MODEL 10
REMARK VINA RESULT:      -5.8     23.618     25.822
REMARK  Name = 75367798
REMARK  7 active torsions:
REMARK  status: ('A' for Active; 'I' for Inactive)
REMARK    1  A    between atoms: O_2  and  C_6
REMARK    2  A    between atoms: O_2  and  C_12
REMARK    3  A    between atoms: O_3  and  C_18
REMARK    4  A    between atoms: O_3  and  C_24
REMARK    5  A    between atoms: N_4  and  C_9
REMARK    6  A    between atoms: C_9  and  C_11
REMARK    7  A    between atoms: C_12  and  C_15
REMARK                            x       y       z     vdW  Elec       q    Type
REMARK                         _______ _______ _______ _____ _____    ______ ____
ROOT
ATOM      1  O   UNL     1      -0.075  12.892   2.479  0.00  0.00    -0.376 OA
ATOM      4  N   UNL     1      -1.156  10.319   3.871  0.00  0.00    -0.293 NA
ATOM      5  C   UNL     1      -0.713   9.724   2.606  0.00  0.00    +0.118 C 
ATOM      6  C   UNL     1      -0.031  10.644   1.581  0.00  0.00    +0.158 C 
ATOM      7  C   UNL     1      -0.260  11.349   4.400  0.00  0.00    +0.113 C 
ATOM      8  C   UNL     1      -0.636  12.038   1.487  0.00  0.00    +0.192 C 
ATOM     10  C   UNL     1      -0.605  12.706   3.784  0.00  0.00    +0.175 C 
ENDROOT
BRANCH   6   2
ATOM      2  O   UNL     1      -0.136  10.030   0.295  0.00  0.00    -0.368 OA
BRANCH   2  12
ATOM     12  C   UNL     1      -1.310   9.241   0.195  0.00  0.00    +0.195 C 
BRANCH  12  15
ATOM     15  C   UNL     1      -2.111   9.701  -0.987  0.00  0.00    -0.022 A 
ATOM     19  C   UNL     1      -3.500   9.580  -0.979  0.00  0.00    +0.006 A 
ATOM     20  C   UNL     1      -1.466  10.251  -2.095  0.00  0.00    +0.006 A 
ATOM     21  C   UNL     1      -4.245  10.008  -2.078  0.00  0.00    +0.000 A 
ATOM     22  C   UNL     1      -2.210  10.680  -3.193  0.00  0.00    +0.000 A 
ATOM     23  C   UNL     1      -3.600  10.559  -3.185  0.00  0.00    +0.000 A 
ENDBRANCH  12  15
ENDBRANCH   2  12
ENDBRANCH   6   2
BRANCH   4   9
ATOM      9  C   UNL     1      -1.407   9.270   4.860  0.00  0.00    +0.119 C 
BRANCH   9  11
ATOM     11  C   UNL     1      -2.787   8.684   4.716  0.00  0.00    -0.033 A 
ATOM     13  C   UNL     1      -3.769   9.378   4.009  0.00  0.00    +0.008 A 
ATOM     14  C   UNL     1      -3.084   7.448   5.292  0.00  0.00    +0.008 A 
ATOM     16  C   UNL     1      -5.048   8.836   3.876  0.00  0.00    +0.046 A 
ATOM     17  C   UNL     1      -4.362   6.907   5.159  0.00  0.00    +0.046 A 
ATOM     18  C   UNL     1      -5.344   7.600   4.451  0.00  0.00    +0.120 A 
BRANCH  18   3
ATOM      3  O   UNL     1      -6.591   7.071   4.322  0.00  0.00    -0.495 OA
ATOM     24  C   UNL     1      -7.665   7.987   4.112  0.00  0.00    +0.277 C 
ENDBRANCH  18   3
ENDBRANCH   9  11
ENDBRANCH   4   9
TORSDOF 6
ENDMDL
