MODEL 1
REMARK VINA RESULT:      -6.9      0.000      0.000
REMARK  Name = 25389952
REMARK  8 active torsions:
REMARK  status: ('A' for Active; 'I' for Inactive)
REMARK    1  A    between atoms: O_2  and  C_20
REMARK    2  A    between atoms: O_2  and  C_32
REMARK    3  A    between atoms: O_4  and  C_26
REMARK    4  A    between atoms: N_7  and  C_11
REMARK    5  A    between atoms: N_7  and  C_21
REMARK    6  A    between atoms: C_9  and  C_17
REMARK    7  A    between atoms: C_13  and  C_20
REMARK    8  A    between atoms: C_21  and  C_26
REMARK                            x       y       z     vdW  Elec       q    Type
REMARK                         _______ _______ _______ _____ _____    ______ ____
ROOT
ATOM      5  N   UNL     1      11.928   6.621   5.598  0.00  0.00    -0.274 NA
ATOM      6  N   UNL     1      14.675   7.582   3.223  0.00  0.00    -0.356 N 
ATOM      8  C   UNL     1      12.388   7.039   4.238  0.00  0.00    +0.106 C 
ATOM      9  C   UNL     1      10.486   6.267   5.613  0.00  0.00    +0.090 C 
ATOM     10  C   UNL     1      12.133   5.923   3.212  0.00  0.00    +0.044 C 
ATOM     11  C   UNL     1      10.647   5.568   3.166  0.00  0.00    +0.057 C 
ATOM     12  C   UNL     1      10.172   5.173   4.565  0.00  0.00    +0.042 C 
ATOM     13  C   UNL     1      12.349   7.567   6.667  0.00  0.00    +0.172 C 
ATOM     14  C   UNL     1      13.837   7.421   4.291  0.00  0.00    +0.038 A 
ATOM     15  C   UNL     1      13.890   7.694   6.776  0.00  0.00    +0.068 C 
ATOM     16  C   UNL     1      14.535   7.740   5.435  0.00  0.00    -0.016 A 
ATOM     18  C   UNL     1      15.862   8.077   5.055  0.00  0.00    +0.003 A 
ATOM     19  C   UNL     1      15.924   7.967   3.662  0.00  0.00    +0.047 A 
ATOM     24  C   UNL     1      17.021   8.468   5.756  0.00  0.00    +0.010 A 
ATOM     25  C   UNL     1      17.091   8.231   2.936  0.00  0.00    +0.026 A 
ATOM     27  C   UNL     1      18.195   8.732   5.041  0.00  0.00    +0.001 A 
ATOM     30  C   UNL     1      18.227   8.614   3.654  0.00  0.00    +0.002 A 
ATOM     33  H   UNL     1      14.425   7.439   2.254  0.00  0.00    +0.166 HD
ENDROOT
BRANCH   9  17
ATOM      1  F   UNL     1       8.613   4.431  10.623  0.00  0.00    -0.205 F 
ATOM     17  C   UNL     1       9.980   5.772   6.965  0.00  0.00    -0.030 A 
ATOM     22  C   UNL     1      10.146   4.433   7.324  0.00  0.00    +0.008 A 
ATOM     23  C   UNL     1       9.353   6.655   7.842  0.00  0.00    +0.008 A 
ATOM     28  C   UNL     1       9.684   3.980   8.559  0.00  0.00    +0.038 A 
ATOM     29  C   UNL     1       8.891   6.203   9.078  0.00  0.00    +0.038 A 
ATOM     31  C   UNL     1       9.056   4.865   9.436  0.00  0.00    +0.123 A 
ENDBRANCH   9  17
BRANCH  13  20
ATOM      3  O   UNL     1      10.765   9.115   5.714  0.00  0.00    -0.249 OA
ATOM     20  C   UNL     1      11.714   8.913   6.460  0.00  0.00    +0.325 C 
BRANCH  20   2
ATOM      2  O   UNL     1      12.357   9.844   7.222  0.00  0.00    -0.467 OA
ATOM     32  C   UNL     1      11.537  10.535   8.169  0.00  0.00    +0.280 C 
ENDBRANCH  20   2
ENDBRANCH  13  20
BRANCH  11   7
ATOM      7  N   UNL     1      10.418   4.484   2.213  0.00  0.00    -0.311 NA
ATOM     34  H   UNL     1      10.032   3.674   2.697  0.00  0.00    +0.122 HD
BRANCH   7  21
ATOM     21  C   UNL     1      11.662   4.095   1.567  0.00  0.00    +0.109 C 
BRANCH  21  26
ATOM     26  C   UNL     1      11.516   4.135   0.054  0.00  0.00    +0.171 C 
BRANCH  26   4
ATOM      4  O   UNL     1      10.133   4.189  -0.269  0.00  0.00    -0.394 OA
ATOM     35  H   UNL     1       9.807   5.059   0.019  0.00  0.00    +0.209 HD
ENDBRANCH  26   4
ENDBRANCH  21  26
ENDBRANCH   7  21
ENDBRANCH  11   7
TORSDOF 7
ENDMDL
MODEL 2
REMARK VINA RESULT:      -6.9     18.212     20.770
REMARK  Name = 25389952
REMARK  8 active torsions:
REMARK  status: ('A' for Active; 'I' for Inactive)
REMARK    1  A    between atoms: O_2  and  C_20
REMARK    2  A    between atoms: O_2  and  C_32
REMARK    3  A    between atoms: O_4  and  C_26
REMARK    4  A    between atoms: N_7  and  C_11
REMARK    5  A    between atoms: N_7  and  C_21
REMARK    6  A    between atoms: C_9  and  C_17
REMARK    7  A    between atoms: C_13  and  C_20
REMARK    8  A    between atoms: C_21  and  C_26
REMARK                            x       y       z     vdW  Elec       q    Type
REMARK                         _______ _______ _______ _____ _____    ______ ____
ROOT
ATOM      5  N   UNL     1      21.534   5.248  22.691  0.00  0.00    -0.274 NA
ATOM      6  N   UNL     1      18.693   7.613  22.026  0.00  0.00    -0.356 N 
ATOM      8  C   UNL     1      20.900   6.595  22.830  0.00  0.00    +0.106 C 
ATOM      9  C   UNL     1      22.771   5.129  23.504  0.00  0.00    +0.090 C 
ATOM     10  C   UNL     1      20.566   6.888  24.301  0.00  0.00    +0.044 C 
ATOM     11  C   UNL     1      21.828   6.822  25.161  0.00  0.00    +0.057 C 
ATOM     12  C   UNL     1      22.492   5.456  24.990  0.00  0.00    +0.042 C 
ATOM     13  C   UNL     1      21.676   4.820  21.272  0.00  0.00    +0.172 C 
ATOM     14  C   UNL     1      19.681   6.671  21.960  0.00  0.00    +0.038 A 
ATOM     15  C   UNL     1      20.312   4.708  20.545  0.00  0.00    +0.068 C 
ATOM     16  C   UNL     1      19.404   5.832  20.903  0.00  0.00    -0.016 A 
ATOM     18  C   UNL     1      18.180   6.257  20.320  0.00  0.00    +0.003 A 
ATOM     19  C   UNL     1      17.754   7.375  21.044  0.00  0.00    +0.047 A 
ATOM     24  C   UNL     1      17.389   5.805  19.244  0.00  0.00    +0.010 A 
ATOM     25  C   UNL     1      16.573   8.063  20.743  0.00  0.00    +0.026 A 
ATOM     27  C   UNL     1      16.205   6.484  18.934  0.00  0.00    +0.001 A 
ATOM     30  C   UNL     1      15.805   7.594  19.674  0.00  0.00    +0.002 A 
ATOM     33  H   UNL     1      18.648   8.372  22.692  0.00  0.00    +0.166 HD
ENDROOT
BRANCH   9  17
ATOM      1  F   UNL     1      25.192   0.022  23.297  0.00  0.00    -0.205 F 
ATOM     17  C   UNL     1      23.424   3.751  23.448  0.00  0.00    -0.030 A 
ATOM     22  C   UNL     1      24.734   3.618  22.985  0.00  0.00    +0.008 A 
ATOM     23  C   UNL     1      22.713   2.624  23.858  0.00  0.00    +0.008 A 
ATOM     28  C   UNL     1      25.331   2.359  22.934  0.00  0.00    +0.038 A 
ATOM     29  C   UNL     1      23.309   1.364  23.808  0.00  0.00    +0.038 A 
ATOM     31  C   UNL     1      24.619   1.232  23.345  0.00  0.00    +0.123 A 
ENDBRANCH   9  17
BRANCH  13  20
ATOM      3  O   UNL     1      22.351   6.915  20.287  0.00  0.00    -0.249 OA
ATOM     20  C   UNL     1      22.603   5.743  20.533  0.00  0.00    +0.325 C 
BRANCH  20   2
ATOM      2  O   UNL     1      23.741   5.072  20.193  0.00  0.00    -0.467 OA
ATOM     32  C   UNL     1      24.941   5.851  20.204  0.00  0.00    +0.280 C 
ENDBRANCH  20   2
ENDBRANCH  13  20
BRANCH  11   7
ATOM      7  N   UNL     1      21.496   7.069  26.562  0.00  0.00    -0.311 NA
ATOM     34  H   UNL     1      21.937   7.934  26.875  0.00  0.00    +0.122 HD
BRANCH   7  21
ATOM     21  C   UNL     1      21.963   5.977  27.402  0.00  0.00    +0.109 C 
BRANCH  21  26
ATOM     26  C   UNL     1      20.876   5.546  28.374  0.00  0.00    +0.171 C 
BRANCH  26   4
ATOM      4  O   UNL     1      19.704   5.228  27.636  0.00  0.00    -0.394 OA
ATOM     35  H   UNL     1      18.952   5.622  28.112  0.00  0.00    +0.209 HD
ENDBRANCH  26   4
ENDBRANCH  21  26
ENDBRANCH   7  21
ENDBRANCH  11   7
TORSDOF 7
ENDMDL
MODEL 3
REMARK VINA RESULT:      -6.8      4.653      7.944
REMARK  Name = 25389952
REMARK  8 active torsions:
REMARK  status: ('A' for Active; 'I' for Inactive)
REMARK    1  A    between atoms: O_2  and  C_20
REMARK    2  A    between atoms: O_2  and  C_32
REMARK    3  A    between atoms: O_4  and  C_26
REMARK    4  A    between atoms: N_7  and  C_11
REMARK    5  A    between atoms: N_7  and  C_21
REMARK    6  A    between atoms: C_9  and  C_17
REMARK    7  A    between atoms: C_13  and  C_20
REMARK    8  A    between atoms: C_21  and  C_26
REMARK                            x       y       z     vdW  Elec       q    Type
REMARK                         _______ _______ _______ _____ _____    ______ ____
ROOT
ATOM      5  N   UNL     1       9.470   7.441   3.837  0.00  0.00    -0.274 NA
ATOM      6  N   UNL     1       6.675   9.805   4.678  0.00  0.00    -0.356 N 
ATOM      8  C   UNL     1       8.809   8.396   4.780  0.00  0.00    +0.106 C 
ATOM      9  C   UNL     1      10.627   6.753   4.463  0.00  0.00    +0.090 C 
ATOM     10  C   UNL     1       8.336   7.665   6.047  0.00  0.00    +0.044 C 
ATOM     11  C   UNL     1       9.514   6.985   6.745  0.00  0.00    +0.057 C 
ATOM     12  C   UNL     1      10.207   6.035   5.768  0.00  0.00    +0.042 C 
ATOM     13  C   UNL     1       9.749   8.045   2.505  0.00  0.00    +0.172 C 
ATOM     14  C   UNL     1       7.676   9.089   4.085  0.00  0.00    +0.038 A 
ATOM     15  C   UNL     1       8.460   8.511   1.782  0.00  0.00    +0.068 C 
ATOM     16  C   UNL     1       7.509   9.167   2.720  0.00  0.00    -0.016 A 
ATOM     18  C   UNL     1       6.339   9.934   2.468  0.00  0.00    +0.003 A 
ATOM     19  C   UNL     1       5.834  10.320   3.714  0.00  0.00    +0.047 A 
ATOM     24  C   UNL     1       5.658  10.344   1.304  0.00  0.00    +0.010 A 
ATOM     25  C   UNL     1       4.678  11.098   3.850  0.00  0.00    +0.026 A 
ATOM     27  C   UNL     1       4.500  11.119   1.428  0.00  0.00    +0.001 A 
ATOM     30  C   UNL     1       4.019  11.489   2.682  0.00  0.00    +0.002 A 
ATOM     33  H   UNL     1       6.559   9.940   5.673  0.00  0.00    +0.166 HD
ENDROOT
BRANCH   9  17
ATOM      1  F   UNL     1      13.120   2.926   1.129  0.00  0.00    -0.205 F 
ATOM     17  C   UNL     1      11.299   5.720   3.563  0.00  0.00    -0.030 A 
ATOM     22  C   UNL     1      12.503   6.027   2.927  0.00  0.00    +0.008 A 
ATOM     23  C   UNL     1      10.712   4.469   3.376  0.00  0.00    +0.008 A 
ATOM     28  C   UNL     1      13.118   5.084   2.105  0.00  0.00    +0.038 A 
ATOM     29  C   UNL     1      11.327   3.525   2.554  0.00  0.00    +0.038 A 
ATOM     31  C   UNL     1      12.530   3.833   1.918  0.00  0.00    +0.123 A 
ENDBRANCH   9  17
BRANCH  13  20
ATOM      3  O   UNL     1      10.740   9.971   3.565  0.00  0.00    -0.249 OA
ATOM     20  C   UNL     1      10.730   9.176   2.634  0.00  0.00    +0.325 C 
BRANCH  20   2
ATOM      2  O   UNL     1      11.580   9.168   1.569  0.00  0.00    -0.467 OA
ATOM     32  C   UNL     1      12.922   9.577   1.849  0.00  0.00    +0.280 C 
ENDBRANCH  20   2
ENDBRANCH  13  20
BRANCH  11   7
ATOM      7  N   UNL     1       9.049   6.266   7.929  0.00  0.00    -0.311 NA
ATOM     34  H   UNL     1       8.775   6.931   8.652  0.00  0.00    +0.122 HD
BRANCH   7  21
ATOM     21  C   UNL     1      10.100   5.409   8.457  0.00  0.00    +0.109 C 
BRANCH  21  26
ATOM     26  C   UNL     1       9.520   4.369   9.402  0.00  0.00    +0.171 C 
BRANCH  26   4
ATOM      4  O   UNL     1      10.083   4.563  10.693  0.00  0.00    -0.394 OA
ATOM     35  H   UNL     1      11.021   4.787  10.564  0.00  0.00    +0.209 HD
ENDBRANCH  26   4
ENDBRANCH  21  26
ENDBRANCH   7  21
ENDBRANCH  11   7
TORSDOF 7
ENDMDL
MODEL 4
REMARK VINA RESULT:      -6.7      3.157      5.728
REMARK  Name = 25389952
REMARK  8 active torsions:
REMARK  status: ('A' for Active; 'I' for Inactive)
REMARK    1  A    between atoms: O_2  and  C_20
REMARK    2  A    between atoms: O_2  and  C_32
REMARK    3  A    between atoms: O_4  and  C_26
REMARK    4  A    between atoms: N_7  and  C_11
REMARK    5  A    between atoms: N_7  and  C_21
REMARK    6  A    between atoms: C_9  and  C_17
REMARK    7  A    between atoms: C_13  and  C_20
REMARK    8  A    between atoms: C_21  and  C_26
REMARK                            x       y       z     vdW  Elec       q    Type
REMARK                         _______ _______ _______ _____ _____    ______ ____
ROOT
ATOM      5  N   UNL     1       9.630   6.637   4.351  0.00  0.00    -0.274 NA
ATOM      6  N   UNL     1       9.596   7.175   0.634  0.00  0.00    -0.356 N 
ATOM      8  C   UNL     1       9.541   7.546   3.166  0.00  0.00    +0.106 C 
ATOM      9  C   UNL     1       9.373   7.357   5.623  0.00  0.00    +0.090 C 
ATOM     10  C   UNL     1       8.159   8.213   3.097  0.00  0.00    +0.044 C 
ATOM     11  C   UNL     1       7.882   9.005   4.374  0.00  0.00    +0.057 C 
ATOM     12  C   UNL     1       8.006   8.081   5.586  0.00  0.00    +0.042 C 
ATOM     13  C   UNL     1      10.860   5.799   4.346  0.00  0.00    +0.172 C 
ATOM     14  C   UNL     1       9.847   6.776   1.916  0.00  0.00    +0.038 A 
ATOM     15  C   UNL     1      10.940   4.869   3.108  0.00  0.00    +0.068 C 
ATOM     16  C   UNL     1      10.499   5.563   1.868  0.00  0.00    -0.016 A 
ATOM     18  C   UNL     1      10.622   5.190   0.502  0.00  0.00    +0.003 A 
ATOM     19  C   UNL     1      10.046   6.218  -0.251  0.00  0.00    +0.047 A 
ATOM     24  C   UNL     1      11.170   4.080  -0.173  0.00  0.00    +0.010 A 
ATOM     25  C   UNL     1       9.992   6.188  -1.649  0.00  0.00    +0.026 A 
ATOM     27  C   UNL     1      11.119   4.038  -1.571  0.00  0.00    +0.001 A 
ATOM     30  C   UNL     1      10.538   5.076  -2.295  0.00  0.00    +0.002 A 
ATOM     33  H   UNL     1       9.147   8.040   0.365  0.00  0.00    +0.166 HD
ENDROOT
BRANCH   9  17
ATOM      1  F   UNL     1       9.427   4.041  10.205  0.00  0.00    -0.205 F 
ATOM     17  C   UNL     1       9.388   6.462   6.860  0.00  0.00    -0.030 A 
ATOM     22  C   UNL     1       9.086   6.998   8.112  0.00  0.00    +0.008 A 
ATOM     23  C   UNL     1       9.703   5.109   6.739  0.00  0.00    +0.008 A 
ATOM     28  C   UNL     1       9.100   6.181   9.242  0.00  0.00    +0.038 A 
ATOM     29  C   UNL     1       9.716   4.291   7.868  0.00  0.00    +0.038 A 
ATOM     31  C   UNL     1       9.415   4.827   9.120  0.00  0.00    +0.123 A 
ENDBRANCH   9  17
BRANCH  13  20
ATOM      3  O   UNL     1      12.585   7.257   3.503  0.00  0.00    -0.249 OA
ATOM     20  C   UNL     1      12.086   6.661   4.449  0.00  0.00    +0.325 C 
BRANCH  20   2
ATOM      2  O   UNL     1      12.535   6.666   5.736  0.00  0.00    -0.467 OA
ATOM     32  C   UNL     1      12.934   7.942   6.243  0.00  0.00    +0.280 C 
ENDBRANCH  20   2
ENDBRANCH  13  20
BRANCH  11   7
ATOM      7  N   UNL     1       6.552   9.609   4.314  0.00  0.00    -0.311 NA
ATOM     34  H   UNL     1       5.877   9.008   4.786  0.00  0.00    +0.122 HD
BRANCH   7  21
ATOM     21  C   UNL     1       6.131   9.791   2.933  0.00  0.00    +0.109 C 
BRANCH  21  26
ATOM     26  C   UNL     1       4.758  10.440   2.872  0.00  0.00    +0.171 C 
BRANCH  26   4
ATOM      4  O   UNL     1       3.871   9.568   2.184  0.00  0.00    -0.394 OA
ATOM     35  H   UNL     1       3.017   9.607   2.647  0.00  0.00    +0.209 HD
ENDBRANCH  26   4
ENDBRANCH  21  26
ENDBRANCH   7  21
ENDBRANCH  11   7
TORSDOF 7
ENDMDL
MODEL 5
REMARK VINA RESULT:      -6.6     29.449     33.774
REMARK  Name = 25389952
REMARK  8 active torsions:
REMARK  status: ('A' for Active; 'I' for Inactive)
REMARK    1  A    between atoms: O_2  and  C_20
REMARK    2  A    between atoms: O_2  and  C_32
REMARK    3  A    between atoms: O_4  and  C_26
REMARK    4  A    between atoms: N_7  and  C_11
REMARK    5  A    between atoms: N_7  and  C_21
REMARK    6  A    between atoms: C_9  and  C_17
REMARK    7  A    between atoms: C_13  and  C_20
REMARK    8  A    between atoms: C_21  and  C_26
REMARK                            x       y       z     vdW  Elec       q    Type
REMARK                         _______ _______ _______ _____ _____    ______ ____
ROOT
ATOM      5  N   UNL     1      -2.238  12.603  34.626  0.00  0.00    -0.274 NA
ATOM      6  N   UNL     1      -0.115  10.260  36.653  0.00  0.00    -0.356 N 
ATOM      8  C   UNL     1      -1.003  12.320  35.421  0.00  0.00    +0.106 C 
ATOM      9  C   UNL     1      -2.187  13.936  33.974  0.00  0.00    +0.090 C 
ATOM     10  C   UNL     1       0.245  12.396  34.527  0.00  0.00    +0.044 C 
ATOM     11  C   UNL     1       0.355  13.775  33.877  0.00  0.00    +0.057 C 
ATOM     12  C   UNL     1      -0.922  14.075  33.093  0.00  0.00    +0.042 C 
ATOM     13  C   UNL     1      -3.489  12.328  35.385  0.00  0.00    +0.172 C 
ATOM     14  C   UNL     1      -1.127  10.982  36.086  0.00  0.00    +0.038 A 
ATOM     15  C   UNL     1      -3.609  10.844  35.815  0.00  0.00    +0.068 C 
ATOM     16  C   UNL     1      -2.307  10.302  36.291  0.00  0.00    -0.016 A 
ATOM     18  C   UNL     1      -2.000   9.098  36.982  0.00  0.00    +0.003 A 
ATOM     19  C   UNL     1      -0.618   9.096  37.195  0.00  0.00    +0.047 A 
ATOM     24  C   UNL     1      -2.760   8.008  37.452  0.00  0.00    +0.010 A 
ATOM     25  C   UNL     1       0.041   8.053  37.857  0.00  0.00    +0.026 A 
ATOM     27  C   UNL     1      -2.112   6.958  38.113  0.00  0.00    +0.001 A 
ATOM     30  C   UNL     1      -0.733   6.982  38.310  0.00  0.00    +0.002 A 
ATOM     33  H   UNL     1       0.859  10.530  36.674  0.00  0.00    +0.166 HD
ENDROOT
BRANCH   9  17
ATOM      1  F   UNL     1      -6.672  15.091  30.729  0.00  0.00    -0.205 F 
ATOM     17  C   UNL     1      -3.397  14.248  33.098  0.00  0.00    -0.030 A 
ATOM     22  C   UNL     1      -3.646  13.486  31.955  0.00  0.00    +0.008 A 
ATOM     23  C   UNL     1      -4.255  15.293  33.439  0.00  0.00    +0.008 A 
ATOM     28  C   UNL     1      -4.752  13.771  31.155  0.00  0.00    +0.038 A 
ATOM     29  C   UNL     1      -5.361  15.578  32.639  0.00  0.00    +0.038 A 
ATOM     31  C   UNL     1      -5.610  14.817  31.497  0.00  0.00    +0.123 A 
ENDBRANCH   9  17
BRANCH  13  20
ATOM      3  O   UNL     1      -3.259  14.417  36.566  0.00  0.00    -0.249 OA
ATOM     20  C   UNL     1      -3.597  13.241  36.573  0.00  0.00    +0.325 C 
BRANCH  20   2
ATOM      2  O   UNL     1      -4.119  12.556  37.630  0.00  0.00    -0.467 OA
ATOM     32  C   UNL     1      -3.591  12.906  38.912  0.00  0.00    +0.280 C 
ENDBRANCH  20   2
ENDBRANCH  13  20
BRANCH  11   7
ATOM      7  N   UNL     1       1.526  13.827  33.004  0.00  0.00    -0.311 NA
ATOM     34  H   UNL     1       2.222  14.461  33.396  0.00  0.00    +0.122 HD
BRANCH   7  21
ATOM     21  C   UNL     1       1.159  14.299  31.678  0.00  0.00    +0.109 C 
BRANCH  21  26
ATOM     26  C   UNL     1       1.652  13.335  30.610  0.00  0.00    +0.171 C 
BRANCH  26   4
ATOM      4  O   UNL     1       0.792  12.203  30.586  0.00  0.00    -0.394 OA
ATOM     35  H   UNL     1       0.452  12.086  31.490  0.00  0.00    +0.209 HD
ENDBRANCH  26   4
ENDBRANCH  21  26
ENDBRANCH   7  21
ENDBRANCH  11   7
TORSDOF 7
ENDMDL
MODEL 6
REMARK VINA RESULT:      -6.6     27.971     30.859
REMARK  Name = 25389952
REMARK  8 active torsions:
REMARK  status: ('A' for Active; 'I' for Inactive)
REMARK    1  A    between atoms: O_2  and  C_20
REMARK    2  A    between atoms: O_2  and  C_32
REMARK    3  A    between atoms: O_4  and  C_26
REMARK    4  A    between atoms: N_7  and  C_11
REMARK    5  A    between atoms: N_7  and  C_21
REMARK    6  A    between atoms: C_9  and  C_17
REMARK    7  A    between atoms: C_13  and  C_20
REMARK    8  A    between atoms: C_21  and  C_26
REMARK                            x       y       z     vdW  Elec       q    Type
REMARK                         _______ _______ _______ _____ _____    ______ ____
ROOT
ATOM      5  N   UNL     1      -9.956  -9.652  17.491  0.00  0.00    -0.274 NA
ATOM      6  N   UNL     1      -7.353 -11.701  19.261  0.00  0.00    -0.356 N 
ATOM      8  C   UNL     1      -9.576 -10.810  18.359  0.00  0.00    +0.106 C 
ATOM      9  C   UNL     1     -11.428  -9.483  17.404  0.00  0.00    +0.090 C 
ATOM     10  C   UNL     1     -10.148 -10.636  19.774  0.00  0.00    +0.044 C 
ATOM     11  C   UNL     1     -11.671 -10.508  19.725  0.00  0.00    +0.057 C 
ATOM     12  C   UNL     1     -12.056  -9.345  18.811  0.00  0.00    +0.042 C 
ATOM     13  C   UNL     1      -9.249  -9.656  16.181  0.00  0.00    +0.172 C 
ATOM     14  C   UNL     1      -8.084 -10.957  18.379  0.00  0.00    +0.038 A 
ATOM     15  C   UNL     1      -7.710  -9.565  16.335  0.00  0.00    +0.068 C 
ATOM     16  C   UNL     1      -7.218 -10.413  17.456  0.00  0.00    -0.016 A 
ATOM     18  C   UNL     1      -5.901 -10.812  17.808  0.00  0.00    +0.003 A 
ATOM     19  C   UNL     1      -6.013 -11.618  18.945  0.00  0.00    +0.047 A 
ATOM     24  C   UNL     1      -4.619 -10.572  17.271  0.00  0.00    +0.010 A 
ATOM     25  C   UNL     1      -4.903 -12.196  19.572  0.00  0.00    +0.026 A 
ATOM     27  C   UNL     1      -3.502 -11.143  17.891  0.00  0.00    +0.001 A 
ATOM     30  C   UNL     1      -3.643 -11.941  19.023  0.00  0.00    +0.002 A 
ATOM     33  H   UNL     1      -7.729 -12.233  20.034  0.00  0.00    +0.166 HD
ENDROOT
BRANCH   9  17
ATOM      1  F   UNL     1     -13.062  -5.008  14.355  0.00  0.00    -0.205 F 
ATOM     17  C   UNL     1     -11.868  -8.275  16.580  0.00  0.00    -0.030 A 
ATOM     22  C   UNL     1     -12.985  -8.368  15.748  0.00  0.00    +0.008 A 
ATOM     23  C   UNL     1     -11.157  -7.079  16.659  0.00  0.00    +0.008 A 
ATOM     28  C   UNL     1     -13.388  -7.265  14.996  0.00  0.00    +0.038 A 
ATOM     29  C   UNL     1     -11.559  -5.975  15.908  0.00  0.00    +0.038 A 
ATOM     31  C   UNL     1     -12.675  -6.068  15.076  0.00  0.00    +0.123 A 
ENDBRANCH   9  17
BRANCH  13  20
ATOM      3  O   UNL     1      -9.183 -11.985  15.562  0.00  0.00    -0.249 OA
ATOM     20  C   UNL     1      -9.637 -10.864  15.376  0.00  0.00    +0.325 C 
BRANCH  20   2
ATOM      2  O   UNL     1     -10.553 -10.508  14.430  0.00  0.00    -0.467 OA
ATOM     32  C   UNL     1     -10.115  -9.526  13.488  0.00  0.00    +0.280 C 
ENDBRANCH  20   2
ENDBRANCH  13  20
BRANCH  11   7
ATOM      7  N   UNL     1     -12.203 -10.310  21.071  0.00  0.00    -0.311 NA
ATOM     34  H   UNL     1     -11.530 -10.644  21.762  0.00  0.00    +0.122 HD
BRANCH   7  21
ATOM     21  C   UNL     1     -13.451 -11.039  21.244  0.00  0.00    +0.109 C 
BRANCH  21  26
ATOM     26  C   UNL     1     -13.189 -12.426  21.809  0.00  0.00    +0.171 C 
BRANCH  26   4
ATOM      4  O   UNL     1     -13.139 -12.339  23.227  0.00  0.00    -0.394 OA
ATOM     35  H   UNL     1     -12.241 -12.052  23.463  0.00  0.00    +0.209 HD
ENDBRANCH  26   4
ENDBRANCH  21  26
ENDBRANCH   7  21
ENDBRANCH  11   7
TORSDOF 7
ENDMDL
MODEL 7
REMARK VINA RESULT:      -6.5      2.167      2.782
REMARK  Name = 25389952
REMARK  8 active torsions:
REMARK  status: ('A' for Active; 'I' for Inactive)
REMARK    1  A    between atoms: O_2  and  C_20
REMARK    2  A    between atoms: O_2  and  C_32
REMARK    3  A    between atoms: O_4  and  C_26
REMARK    4  A    between atoms: N_7  and  C_11
REMARK    5  A    between atoms: N_7  and  C_21
REMARK    6  A    between atoms: C_9  and  C_17
REMARK    7  A    between atoms: C_13  and  C_20
REMARK    8  A    between atoms: C_21  and  C_26
REMARK                            x       y       z     vdW  Elec       q    Type
REMARK                         _______ _______ _______ _____ _____    ______ ____
ROOT
ATOM      5  N   UNL     1      13.603   7.702   4.821  0.00  0.00    -0.274 NA
ATOM      6  N   UNL     1      17.071   7.794   3.381  0.00  0.00    -0.356 N 
ATOM      8  C   UNL     1      14.525   7.801   3.647  0.00  0.00    +0.106 C 
ATOM      9  C   UNL     1      12.183   7.587   4.404  0.00  0.00    +0.090 C 
ATOM     10  C   UNL     1      14.367   6.578   2.731  0.00  0.00    +0.044 C 
ATOM     11  C   UNL     1      12.924   6.457   2.243  0.00  0.00    +0.057 C 
ATOM     12  C   UNL     1      11.981   6.390   3.445  0.00  0.00    +0.042 C 
ATOM     13  C   UNL     1      13.868   8.743   5.853  0.00  0.00    +0.172 C 
ATOM     14  C   UNL     1      15.937   7.955   4.127  0.00  0.00    +0.038 A 
ATOM     15  C   UNL     1      15.297   8.644   6.444  0.00  0.00    +0.068 C 
ATOM     16  C   UNL     1      16.309   8.355   5.392  0.00  0.00    -0.016 A 
ATOM     18  C   UNL     1      17.729   8.409   5.430  0.00  0.00    +0.003 A 
ATOM     19  C   UNL     1      18.181   8.050   4.157  0.00  0.00    +0.047 A 
ATOM     24  C   UNL     1      18.678   8.730   6.421  0.00  0.00    +0.010 A 
ATOM     25  C   UNL     1      19.541   7.998   3.827  0.00  0.00    +0.026 A 
ATOM     27  C   UNL     1      20.040   8.678   6.105  0.00  0.00    +0.001 A 
ATOM     30  C   UNL     1      20.463   8.317   4.828  0.00  0.00    +0.002 A 
ATOM     33  H   UNL     1      17.100   7.526   2.407  0.00  0.00    +0.166 HD
ENDROOT
BRANCH   9  17
ATOM      1  F   UNL     1       8.561   6.966   8.703  0.00  0.00    -0.205 F 
ATOM     17  C   UNL     1      11.205   7.419   5.564  0.00  0.00    -0.030 A 
ATOM     22  C   UNL     1      11.364   6.364   6.464  0.00  0.00    +0.008 A 
ATOM     23  C   UNL     1      10.153   8.319   5.726  0.00  0.00    +0.008 A 
ATOM     28  C   UNL     1      10.471   6.211   7.524  0.00  0.00    +0.038 A 
ATOM     29  C   UNL     1       9.259   8.167   6.786  0.00  0.00    +0.038 A 
ATOM     31  C   UNL     1       9.419   7.112   7.685  0.00  0.00    +0.123 A 
ENDBRANCH   9  17
BRANCH  13  20
ATOM      3  O   UNL     1      12.633  10.409   4.623  0.00  0.00    -0.249 OA
ATOM     20  C   UNL     1      13.612  10.115   5.296  0.00  0.00    +0.325 C 
BRANCH  20   2
ATOM      2  O   UNL     1      14.626  10.951   5.657  0.00  0.00    -0.467 OA
ATOM     32  C   UNL     1      15.051  11.873   4.649  0.00  0.00    +0.280 C 
ENDBRANCH  20   2
ENDBRANCH  13  20
BRANCH  11   7
ATOM      7  N   UNL     1      12.776   5.273   1.399  0.00  0.00    -0.311 NA
ATOM     34  H   UNL     1      12.253   4.554   1.899  0.00  0.00    +0.122 HD
BRANCH   7  21
ATOM     21  C   UNL     1      14.077   4.734   1.033  0.00  0.00    +0.109 C 
BRANCH  21  26
ATOM     26  C   UNL     1      14.223   3.303   1.525  0.00  0.00    +0.171 C 
BRANCH  26   4
ATOM      4  O   UNL     1      15.407   3.208   2.305  0.00  0.00    -0.394 OA
ATOM     35  H   UNL     1      16.059   2.719   1.773  0.00  0.00    +0.209 HD
ENDBRANCH  26   4
ENDBRANCH  21  26
ENDBRANCH   7  21
ENDBRANCH  11   7
TORSDOF 7
ENDMDL
MODEL 8
REMARK VINA RESULT:      -6.5     24.318     27.973
REMARK  Name = 25389952
REMARK  8 active torsions:
REMARK  status: ('A' for Active; 'I' for Inactive)
REMARK    1  A    between atoms: O_2  and  C_20
REMARK    2  A    between atoms: O_2  and  C_32
REMARK    3  A    between atoms: O_4  and  C_26
REMARK    4  A    between atoms: N_7  and  C_11
REMARK    5  A    between atoms: N_7  and  C_21
REMARK    6  A    between atoms: C_9  and  C_17
REMARK    7  A    between atoms: C_13  and  C_20
REMARK    8  A    between atoms: C_21  and  C_26
REMARK                            x       y       z     vdW  Elec       q    Type
REMARK                         _______ _______ _______ _____ _____    ______ ____
ROOT
ATOM      5  N   UNL     1      -7.711  -9.738  15.118  0.00  0.00    -0.274 NA
ATOM      6  N   UNL     1      -4.294 -10.630  13.839  0.00  0.00    -0.356 N 
ATOM      8  C   UNL     1      -6.469 -10.570  15.186  0.00  0.00    +0.106 C 
ATOM      9  C   UNL     1      -8.621 -10.004  16.260  0.00  0.00    +0.090 C 
ATOM     10  C   UNL     1      -5.716 -10.313  16.501  0.00  0.00    +0.044 C 
ATOM     11  C   UNL     1      -6.611 -10.624  17.701  0.00  0.00    +0.057 C 
ATOM     12  C   UNL     1      -7.894  -9.797  17.610  0.00  0.00    +0.042 C 
ATOM     13  C   UNL     1      -8.361  -9.779  13.779  0.00  0.00    +0.172 C 
ATOM     14  C   UNL     1      -5.608 -10.289  13.991  0.00  0.00    +0.038 A 
ATOM     15  C   UNL     1      -7.442  -9.237  12.655  0.00  0.00    +0.068 C 
ATOM     16  C   UNL     1      -6.037  -9.699  12.823  0.00  0.00    -0.016 A 
ATOM     18  C   UNL     1      -4.930  -9.646  11.932  0.00  0.00    +0.003 A 
ATOM     19  C   UNL     1      -3.849 -10.235  12.595  0.00  0.00    +0.047 A 
ATOM     24  C   UNL     1      -4.739  -9.159  10.623  0.00  0.00    +0.010 A 
ATOM     25  C   UNL     1      -2.584 -10.360  12.010  0.00  0.00    +0.026 A 
ATOM     27  C   UNL     1      -3.477  -9.275  10.029  0.00  0.00    +0.001 A 
ATOM     30  C   UNL     1      -2.418  -9.866  10.713  0.00  0.00    +0.002 A 
ATOM     33  H   UNL     1      -3.725 -11.099  14.530  0.00  0.00    +0.166 HD
ENDROOT
BRANCH   9  17
ATOM      1  F   UNL     1     -13.269  -6.782  16.309  0.00  0.00    -0.205 F 
ATOM     17  C   UNL     1      -9.876  -9.134  16.273  0.00  0.00    -0.030 A 
ATOM     22  C   UNL     1     -11.137  -9.730  16.265  0.00  0.00    +0.008 A 
ATOM     23  C   UNL     1      -9.762  -7.745  16.294  0.00  0.00    +0.008 A 
ATOM     28  C   UNL     1     -12.283  -8.936  16.276  0.00  0.00    +0.038 A 
ATOM     29  C   UNL     1     -10.907  -6.950  16.306  0.00  0.00    +0.038 A 
ATOM     31  C   UNL     1     -12.169  -7.545  16.297  0.00  0.00    +0.123 A 
ENDBRANCH   9  17
BRANCH  13  20
ATOM      3  O   UNL     1      -8.084 -12.131  13.329  0.00  0.00    -0.249 OA
ATOM     20  C   UNL     1      -8.831 -11.170  13.463  0.00  0.00    +0.325 C 
BRANCH  20   2
ATOM      2  O   UNL     1     -10.189 -11.180  13.354  0.00  0.00    -0.467 OA
ATOM     32  C   UNL     1     -10.757 -10.081  12.636  0.00  0.00    +0.280 C 
ENDBRANCH  20   2
ENDBRANCH  13  20
BRANCH  11   7
ATOM      7  N   UNL     1      -5.899 -10.346  18.946  0.00  0.00    -0.311 NA
ATOM     34  H   UNL     1      -5.048  -9.820  18.747  0.00  0.00    +0.122 HD
BRANCH   7  21
ATOM     21  C   UNL     1      -5.537 -11.583  19.620  0.00  0.00    +0.109 C 
BRANCH  21  26
ATOM     26  C   UNL     1      -4.271 -12.172  19.017  0.00  0.00    +0.171 C 
BRANCH  26   4
ATOM      4  O   UNL     1      -3.267 -12.220  20.022  0.00  0.00    -0.394 OA
ATOM     35  H   UNL     1      -3.495 -12.953  20.619  0.00  0.00    +0.209 HD
ENDBRANCH  26   4
ENDBRANCH  21  26
ENDBRANCH   7  21
ENDBRANCH  11   7
TORSDOF 7
ENDMDL
MODEL 9
REMARK VINA RESULT:      -6.5     11.791     13.932
REMARK  Name = 25389952
REMARK  8 active torsions:
REMARK  status: ('A' for Active; 'I' for Inactive)
REMARK    1  A    between atoms: O_2  and  C_20
REMARK    2  A    between atoms: O_2  and  C_32
REMARK    3  A    between atoms: O_4  and  C_26
REMARK    4  A    between atoms: N_7  and  C_11
REMARK    5  A    between atoms: N_7  and  C_21
REMARK    6  A    between atoms: C_9  and  C_17
REMARK    7  A    between atoms: C_13  and  C_20
REMARK    8  A    between atoms: C_21  and  C_26
REMARK                            x       y       z     vdW  Elec       q    Type
REMARK                         _______ _______ _______ _____ _____    ______ ____
ROOT
ATOM      5  N   UNL     1      -0.854  10.872   4.812  0.00  0.00    -0.274 NA
ATOM      6  N   UNL     1       2.264  12.860   5.473  0.00  0.00    -0.356 N 
ATOM      8  C   UNL     1       0.194  11.840   4.363  0.00  0.00    +0.106 C 
ATOM      9  C   UNL     1      -1.758  10.479   3.702  0.00  0.00    +0.090 C 
ATOM     10  C   UNL     1       1.030  11.244   3.220  0.00  0.00    +0.044 C 
ATOM     11  C   UNL     1       0.133  10.873   2.038  0.00  0.00    +0.057 C 
ATOM     12  C   UNL     1      -0.957   9.909   2.507  0.00  0.00    +0.042 C 
ATOM     13  C   UNL     1      -1.545  11.304   6.057  0.00  0.00    +0.172 C 
ATOM     14  C   UNL     1       1.052  12.231   5.530  0.00  0.00    +0.038 A 
ATOM     15  C   UNL     1      -0.575  11.443   7.258  0.00  0.00    +0.068 C 
ATOM     16  C   UNL     1       0.711  12.074   6.855  0.00  0.00    -0.016 A 
ATOM     18  C   UNL     1       1.773  12.598   7.641  0.00  0.00    +0.003 A 
ATOM     19  C   UNL     1       2.735  13.083   6.749  0.00  0.00    +0.047 A 
ATOM     24  C   UNL     1       2.013  12.714   9.025  0.00  0.00    +0.010 A 
ATOM     25  C   UNL     1       3.927  13.678   7.177  0.00  0.00    +0.026 A 
ATOM     27  C   UNL     1       3.203  13.305   9.465  0.00  0.00    +0.001 A 
ATOM     30  C   UNL     1       4.144  13.778   8.554  0.00  0.00    +0.002 A 
ATOM     33  H   UNL     1       2.750  13.123   4.627  0.00  0.00    +0.166 HD
ENDROOT
BRANCH   9  17
ATOM      1  F   UNL     1      -5.649   6.636   5.142  0.00  0.00    -0.205 F 
ATOM     17  C   UNL     1      -2.809   9.442   4.091  0.00  0.00    -0.030 A 
ATOM     22  C   UNL     1      -4.107   9.543   3.591  0.00  0.00    +0.008 A 
ATOM     23  C   UNL     1      -2.471   8.393   4.945  0.00  0.00    +0.008 A 
ATOM     28  C   UNL     1      -5.067   8.596   3.946  0.00  0.00    +0.038 A 
ATOM     29  C   UNL     1      -3.430   7.445   5.301  0.00  0.00    +0.038 A 
ATOM     31  C   UNL     1      -4.728   7.547   4.801  0.00  0.00    +0.123 A 
ENDBRANCH   9  17
BRANCH  13  20
ATOM      3  O   UNL     1      -1.767  13.679   5.710  0.00  0.00    -0.249 OA
ATOM     20  C   UNL     1      -2.299  12.583   5.825  0.00  0.00    +0.325 C 
BRANCH  20   2
ATOM      2  O   UNL     1      -3.636  12.322   5.767  0.00  0.00    -0.467 OA
ATOM     32  C   UNL     1      -4.150  11.507   6.824  0.00  0.00    +0.280 C 
ENDBRANCH  20   2
ENDBRANCH  13  20
BRANCH  11   7
ATOM      7  N   UNL     1       0.931  10.276   0.969  0.00  0.00    -0.311 NA
ATOM     34  H   UNL     1       1.102   9.292   1.173  0.00  0.00    +0.122 HD
BRANCH   7  21
ATOM     21  C   UNL     1       2.210  10.956   0.840  0.00  0.00    +0.109 C 
BRANCH  21  26
ATOM     26  C   UNL     1       3.330   9.954   0.611  0.00  0.00    +0.171 C 
BRANCH  26   4
ATOM      4  O   UNL     1       3.719   9.410   1.866  0.00  0.00    -0.394 OA
ATOM     35  H   UNL     1       4.647   9.663   2.010  0.00  0.00    +0.209 HD
ENDBRANCH  26   4
ENDBRANCH  21  26
ENDBRANCH   7  21
ENDBRANCH  11   7
TORSDOF 7
ENDMDL
MODEL 10
REMARK VINA RESULT:      -6.2     28.638     31.134
REMARK  Name = 25389952
REMARK  8 active torsions:
REMARK  status: ('A' for Active; 'I' for Inactive)
REMARK    1  A    between atoms: O_2  and  C_20
REMARK    2  A    between atoms: O_2  and  C_32
REMARK    3  A    between atoms: O_4  and  C_26
REMARK    4  A    between atoms: N_7  and  C_11
REMARK    5  A    between atoms: N_7  and  C_21
REMARK    6  A    between atoms: C_9  and  C_17
REMARK    7  A    between atoms: C_13  and  C_20
REMARK    8  A    between atoms: C_21  and  C_26
REMARK                            x       y       z     vdW  Elec       q    Type
REMARK                         _______ _______ _______ _____ _____    ______ ____
ROOT
ATOM      5  N   UNL     1      10.258  -7.296  32.611  0.00  0.00    -0.274 NA
ATOM      6  N   UNL     1      12.922  -4.686  33.056  0.00  0.00    -0.356 N 
ATOM      8  C   UNL     1      10.992  -6.316  33.470  0.00  0.00    +0.106 C 
ATOM      9  C   UNL     1       9.089  -7.883  33.313  0.00  0.00    +0.090 C 
ATOM     10  C   UNL     1      10.055  -5.184  33.921  0.00  0.00    +0.044 C 
ATOM     11  C   UNL     1       8.862  -5.750  34.691  0.00  0.00    +0.057 C 
ATOM     12  C   UNL     1       8.134  -6.777  33.823  0.00  0.00    +0.042 C 
ATOM     13  C   UNL     1      11.161  -8.289  31.967  0.00  0.00    +0.172 C 
ATOM     14  C   UNL     1      12.182  -5.786  32.727  0.00  0.00    +0.038 A 
ATOM     15  C   UNL     1      12.204  -7.625  31.032  0.00  0.00    +0.068 C 
ATOM     16  C   UNL     1      12.760  -6.378  31.625  0.00  0.00    -0.016 A 
ATOM     18  C   UNL     1      13.878  -5.588  31.244  0.00  0.00    +0.003 A 
ATOM     19  C   UNL     1      13.956  -4.532  32.157  0.00  0.00    +0.047 A 
ATOM     24  C   UNL     1      14.837  -5.666  30.215  0.00  0.00    +0.010 A 
ATOM     25  C   UNL     1      14.949  -3.548  32.089  0.00  0.00    +0.026 A 
ATOM     27  C   UNL     1      15.834  -4.687  30.134  0.00  0.00    +0.001 A 
ATOM     30  C   UNL     1      15.887  -3.645  31.057  0.00  0.00    +0.002 A 
ATOM     33  H   UNL     1      12.743  -4.070  33.838  0.00  0.00    +0.166 HD
ENDROOT
BRANCH   9  17
ATOM      1  F   UNL     1       6.043 -11.445  30.147  0.00  0.00    -0.205 F 
ATOM     17  C   UNL     1       8.267  -8.844  32.458  0.00  0.00    -0.030 A 
ATOM     22  C   UNL     1       8.238 -10.204  32.770  0.00  0.00    +0.008 A 
ATOM     23  C   UNL     1       7.545  -8.365  31.366  0.00  0.00    +0.008 A 
ATOM     28  C   UNL     1       7.487 -11.083  31.989  0.00  0.00    +0.038 A 
ATOM     29  C   UNL     1       6.793  -9.243  30.585  0.00  0.00    +0.038 A 
ATOM     31  C   UNL     1       6.765 -10.602  30.897  0.00  0.00    +0.123 A 
ENDBRANCH   9  17
BRANCH  13  20
ATOM      3  O   UNL     1      11.786  -8.921  34.208  0.00  0.00    -0.249 OA
ATOM     20  C   UNL     1      11.837  -9.139  33.005  0.00  0.00    +0.325 C 
BRANCH  20   2
ATOM      2  O   UNL     1      12.497 -10.165  32.396  0.00  0.00    -0.467 OA
ATOM     32  C   UNL     1      11.666 -11.144  31.766  0.00  0.00    +0.280 C 
ENDBRANCH  20   2
ENDBRANCH  13  20
BRANCH  11   7
ATOM      7  N   UNL     1       7.961  -4.671  35.087  0.00  0.00    -0.311 NA
ATOM     34  H   UNL     1       8.498  -3.827  35.287  0.00  0.00    +0.122 HD
BRANCH   7  21
ATOM     21  C   UNL     1       7.209  -5.038  36.277  0.00  0.00    +0.109 C 
BRANCH  21  26
ATOM     26  C   UNL     1       6.558  -3.813  36.900  0.00  0.00    +0.171 C 
BRANCH  26   4
ATOM      4  O   UNL     1       5.668  -3.238  35.953  0.00  0.00    -0.394 OA
ATOM     35  H   UNL     1       4.813  -3.120  36.401  0.00  0.00    +0.209 HD
ENDBRANCH  26   4
ENDBRANCH  21  26
ENDBRANCH   7  21
ENDBRANCH  11   7
TORSDOF 7
ENDMDL
