REMARK  Name = 11912204
REMARK  8 active torsions:
REMARK  status: ('A' for Active; 'I' for Inactive)
REMARK    1  A    between atoms: S_1  and  C_25
REMARK    2  A    between atoms: S_1  and  C_27
REMARK    3  A    between atoms: O_8  and  C_34
REMARK    4  A    between atoms: O_8  and  C_38
REMARK    5  A    between atoms: N_11  and  C_18
REMARK    6  A    between atoms: C_13  and  C_17
REMARK    7  A    between atoms: C_20  and  C_25
REMARK    8  A    between atoms: C_22  and  C_26
REMARK                            x       y       z     vdW  Elec       q    Type
REMARK                         _______ _______ _______ _____ _____    ______ ____
ROOT
ATOM      3  O   UNL     1       0.895  -3.264   0.856  0.00  0.00    -0.274 OA
ATOM      4  O   UNL     1      -3.565   1.675  -1.867  0.00  0.00    -0.270 OA
ATOM      9  N   UNL     1      -2.412  -0.018  -0.732  0.00  0.00    -0.283 N 
ATOM     10  N   UNL     1      -0.175  -1.774  -0.568  0.00  0.00    -0.296 N 
ATOM     13  C   UNL     1      -1.098   0.437  -1.204  0.00  0.00    +0.179 C 
ATOM     14  C   UNL     1      -0.154  -0.707  -1.573  0.00  0.00    +0.139 C 
ATOM     15  C   UNL     1      -2.420  -1.155   0.206  0.00  0.00    +0.128 C 
ATOM     16  C   UNL     1      -1.510  -2.282  -0.264  0.00  0.00    +0.127 C 
ATOM     20  C   UNL     1       0.943  -2.335   0.045  0.00  0.00    +0.237 C 
ATOM     22  C   UNL     1      -3.547   0.724  -1.088  0.00  0.00    +0.247 C 
ENDROOT
BRANCH  22  26
ATOM     26  C   UNL     1      -4.835   0.360  -0.481  0.00  0.00    +0.037 A 
ATOM     28  C   UNL     1      -5.228   0.953   0.717  0.00  0.00    +0.016 A 
ATOM     29  C   UNL     1      -5.655  -0.575  -1.106  0.00  0.00    +0.016 A 
ATOM     30  C   UNL     1      -6.450   0.607   1.293  0.00  0.00    +0.046 A 
ATOM     31  C   UNL     1      -6.878  -0.920  -0.529  0.00  0.00    +0.046 A 
ATOM     34  C   UNL     1      -7.275  -0.329   0.670  0.00  0.00    +0.120 A 
BRANCH  34   8
ATOM      8  O   UNL     1      -8.467  -0.667   1.233  0.00  0.00    -0.495 OA
ATOM     38  C   UNL     1      -9.262  -1.631   0.543  0.00  0.00    +0.277 C 
ENDBRANCH  34   8
ENDBRANCH  22  26
BRANCH  13  17
ATOM      2  O   UNL     1      -1.119   1.455   0.956  0.00  0.00    -0.274 OA
ATOM     11  N   UNL     1       0.681   1.860  -0.462  0.00  0.00    -0.302 N 
ATOM     17  C   UNL     1      -0.530   1.292  -0.109  0.00  0.00    +0.236 C 
ATOM     39  H   UNL     1       1.064   1.683  -1.386  0.00  0.00    +0.150 HD
BRANCH  11  18
ATOM      5  O   UNL     1       1.565   4.236  -1.485  0.00  0.00    -0.274 OA
ATOM     12  N   UNL     1       3.281   4.314   0.020  0.00  0.00    -0.314 N 
ATOM     18  C   UNL     1       1.421   2.740   0.404  0.00  0.00    +0.159 C 
ATOM     19  C   UNL     1       2.375   1.952   1.291  0.00  0.00    +0.033 C 
ATOM     21  C   UNL     1       3.263   2.913   2.065  0.00  0.00    +0.021 C 
ATOM     23  C   UNL     1       4.080   3.733   1.084  0.00  0.00    +0.104 C 
ATOM     24  C   UNL     1       2.097   3.795  -0.464  0.00  0.00    +0.233 C 
ATOM     40  H   UNL     1       3.711   5.058  -0.521  0.00  0.00    +0.149 HD
ENDBRANCH  11  18
ENDBRANCH  13  17
BRANCH  20  25
ATOM     25  C   UNL     1       2.281  -1.746  -0.324  0.00  0.00    +0.267 C 
BRANCH  25   1
ATOM      1  S   UNL     1       3.538  -2.568   0.578  0.00  0.00    +0.005 S 
ATOM      6  O   UNL     1       3.635  -3.948   0.118  0.00  0.00    -0.169 OA
ATOM      7  O   UNL     1       3.339  -2.293   1.995  0.00  0.00    -0.169 OA
BRANCH   1  27
ATOM     27  C   UNL     1       5.036  -1.763   0.082  0.00  0.00    +0.089 A 
ATOM     32  C   UNL     1       5.476  -0.664   0.796  0.00  0.00    +0.027 A 
ATOM     33  C   UNL     1       5.732  -2.251  -1.008  0.00  0.00    +0.027 A 
ATOM     35  C   UNL     1       6.656  -0.030   0.405  0.00  0.00    +0.002 A 
ATOM     36  C   UNL     1       6.911  -1.617  -1.399  0.00  0.00    +0.002 A 
ATOM     37  C   UNL     1       7.373  -0.507  -0.692  0.00  0.00    +0.000 A 
ENDBRANCH   1  27
ENDBRANCH  25   1
ENDBRANCH  20  25
TORSDOF 7
