MODEL 1
REMARK VINA RESULT:      -7.3      0.000      0.000
REMARK  Name = 45360575
REMARK  6 active torsions:
REMARK  status: ('A' for Active; 'I' for Inactive)
REMARK    1  A    between atoms: O_6  and  C_13
REMARK    2  A    between atoms: N_8  and  C_12
REMARK    3  A    between atoms: N_9  and  C_14
REMARK    4  A    between atoms: N_10  and  C_23
REMARK    5  A    between atoms: N_11  and  C_24
REMARK    6  A    between atoms: C_27  and  C_30
REMARK                            x       y       z     vdW  Elec       q    Type
REMARK                         _______ _______ _______ _____ _____    ______ ____
ROOT
ATOM      4  O   UNL     1      14.294   4.029   1.573  0.00  0.00    -0.342 OA
ATOM      5  O   UNL     1      13.761   4.167  -0.680  0.00  0.00    -0.347 OA
ATOM     12  C   UNL     1      13.858   6.202   0.623  0.00  0.00    +0.144 C 
ATOM     13  C   UNL     1      12.358   6.075   0.972  0.00  0.00    +0.159 C 
ATOM     14  C   UNL     1      12.020   4.801   1.777  0.00  0.00    +0.136 C 
ATOM     15  C   UNL     1      14.477   4.812   0.386  0.00  0.00    +0.270 C 
ATOM     16  C   UNL     1      12.934   3.607   1.436  0.00  0.00    +0.170 C 
ATOM     17  C   UNL     1      12.914   3.209  -0.028  0.00  0.00    +0.196 C 
ENDROOT
BRANCH  12   8
ATOM      8  N   UNL     1      14.571   6.883   1.702  0.00  0.00    -0.290 NA
ATOM     10  N   UNL     1      15.863   9.183   2.884  0.00  0.00    -0.303 NA
ATOM     18  C   UNL     1      13.791   8.021   2.205  0.00  0.00    +0.100 C 
ATOM     19  C   UNL     1      15.896   7.329   1.251  0.00  0.00    +0.100 C 
ATOM     20  C   UNL     1      14.540   8.737   3.335  0.00  0.00    +0.099 C 
ATOM     21  C   UNL     1      16.643   8.046   2.380  0.00  0.00    +0.099 C 
ATOM     23  C   UNL     1      16.576   9.865   3.962  0.00  0.00    +0.105 C 
ENDBRANCH  12   8
BRANCH  14   9
ATOM      7  O   UNL     1       9.881   5.738   3.436  0.00  0.00    -0.252 OA
ATOM      9  N   UNL     1      12.082   5.077   3.196  0.00  0.00    -0.291 N 
ATOM     11  N   UNL     1      11.344   5.712   5.271  0.00  0.00    -0.269 N 
ATOM     22  C   UNL     1      10.986   5.534   3.932  0.00  0.00    +0.304 C 
ATOM     31  H   UNL     1      12.983   5.010   3.660  0.00  0.00    +0.151 HD
ATOM     33  H   UNL     1      12.307   5.496   5.519  0.00  0.00    +0.156 HD
BRANCH  11  24
ATOM     24  C   UNL     1      10.527   6.158   6.336  0.00  0.00    +0.035 A 
ATOM     25  C   UNL     1      10.298   5.330   7.435  0.00  0.00    +0.035 A 
ATOM     26  C   UNL     1       9.950   7.427   6.286  0.00  0.00    +0.023 A 
ATOM     27  C   UNL     1       9.493   5.772   8.485  0.00  0.00    +0.057 A 
ATOM     28  C   UNL     1       9.145   7.869   7.337  0.00  0.00    +0.002 A 
ATOM     29  C   UNL     1       8.916   7.041   8.435  0.00  0.00    +0.012 A 
BRANCH  27  30
ATOM      1  F   UNL     1       9.098   3.576   9.308  0.00  0.00    -0.166 F 
ATOM      2  F   UNL     1      10.254   4.907  10.582  0.00  0.00    -0.166 F 
ATOM      3  F   UNL     1       8.117   5.208  10.359  0.00  0.00    -0.166 F 
ATOM     30  C   UNL     1       9.247   4.887   9.660  0.00  0.00    +0.417 C 
ENDBRANCH  27  30
ENDBRANCH  11  24
ENDBRANCH  14   9
BRANCH  13   6
ATOM      6  O   UNL     1      11.624   6.051  -0.259  0.00  0.00    -0.388 OA
ATOM     32  H   UNL     1      10.693   6.244  -0.049  0.00  0.00    +0.210 HD
ENDBRANCH  13   6
TORSDOF 5
ENDMDL
MODEL 2
REMARK VINA RESULT:      -7.3     15.528     18.653
REMARK  Name = 45360575
REMARK  6 active torsions:
REMARK  status: ('A' for Active; 'I' for Inactive)
REMARK    1  A    between atoms: O_6  and  C_13
REMARK    2  A    between atoms: N_8  and  C_12
REMARK    3  A    between atoms: N_9  and  C_14
REMARK    4  A    between atoms: N_10  and  C_23
REMARK    5  A    between atoms: N_11  and  C_24
REMARK    6  A    between atoms: C_27  and  C_30
REMARK                            x       y       z     vdW  Elec       q    Type
REMARK                         _______ _______ _______ _____ _____    ______ ____
ROOT
ATOM      4  O   UNL     1      13.008   9.103  19.074  0.00  0.00    -0.342 OA
ATOM      5  O   UNL     1      11.114   7.961  18.373  0.00  0.00    -0.347 OA
ATOM     12  C   UNL     1      11.409   8.396  20.734  0.00  0.00    +0.144 C 
ATOM     13  C   UNL     1      12.155   7.054  20.910  0.00  0.00    +0.159 C 
ATOM     14  C   UNL     1      13.463   6.967  20.094  0.00  0.00    +0.136 C 
ATOM     15  C   UNL     1      11.602   8.939  19.307  0.00  0.00    +0.270 C 
ATOM     16  C   UNL     1      13.411   7.763  18.775  0.00  0.00    +0.170 C 
ATOM     17  C   UNL     1      12.293   7.341  17.840  0.00  0.00    +0.196 C 
ENDROOT
BRANCH  12   8
ATOM      8  N   UNL     1      11.894   9.373  21.706  0.00  0.00    -0.290 NA
ATOM     10  N   UNL     1      11.692  11.842  23.196  0.00  0.00    -0.303 NA
ATOM     18  C   UNL     1      10.949   9.516  22.820  0.00  0.00    +0.100 C 
ATOM     19  C   UNL     1      12.131  10.673  21.065  0.00  0.00    +0.100 C 
ATOM     20  C   UNL     1      11.457  10.544  23.838  0.00  0.00    +0.099 C 
ATOM     21  C   UNL     1      12.637  11.700  22.083  0.00  0.00    +0.099 C 
ATOM     23  C   UNL     1      12.177  12.821  24.167  0.00  0.00    +0.105 C 
ENDBRANCH  12   8
BRANCH  14   9
ATOM      7  O   UNL     1      16.243   6.503  19.578  0.00  0.00    -0.252 OA
ATOM      9  N   UNL     1      14.580   7.420  20.896  0.00  0.00    -0.291 N 
ATOM     11  N   UNL     1      16.766   7.709  21.522  0.00  0.00    -0.269 N 
ATOM     22  C   UNL     1      15.911   7.148  20.570  0.00  0.00    +0.304 C 
ATOM     31  H   UNL     1      14.383   7.890  21.774  0.00  0.00    +0.151 HD
ATOM     33  H   UNL     1      16.328   8.216  22.287  0.00  0.00    +0.156 HD
BRANCH  11  24
ATOM     24  C   UNL     1      18.180   7.661  21.556  0.00  0.00    +0.035 A 
ATOM     25  C   UNL     1      18.847   6.486  21.211  0.00  0.00    +0.035 A 
ATOM     26  C   UNL     1      18.905   8.790  21.936  0.00  0.00    +0.023 A 
ATOM     27  C   UNL     1      20.241   6.440  21.243  0.00  0.00    +0.057 A 
ATOM     28  C   UNL     1      20.300   8.744  21.968  0.00  0.00    +0.002 A 
ATOM     29  C   UNL     1      20.967   7.569  21.623  0.00  0.00    +0.012 A 
BRANCH  27  30
ATOM      1  F   UNL     1      21.379   4.481  21.965  0.00  0.00    -0.166 F 
ATOM      2  F   UNL     1      20.192   4.312  20.150  0.00  0.00    -0.166 F 
ATOM      3  F   UNL     1      22.073   5.393  20.116  0.00  0.00    -0.166 F 
ATOM     30  C   UNL     1      20.954   5.184  20.874  0.00  0.00    +0.417 C 
ENDBRANCH  27  30
ENDBRANCH  11  24
ENDBRANCH  14   9
BRANCH  13   6
ATOM      6  O   UNL     1      11.275   6.006  20.482  0.00  0.00    -0.388 OA
ATOM     32  H   UNL     1      10.794   6.326  19.700  0.00  0.00    +0.210 HD
ENDBRANCH  13   6
TORSDOF 5
ENDMDL
MODEL 3
REMARK VINA RESULT:      -6.9     26.672     29.537
REMARK  Name = 45360575
REMARK  6 active torsions:
REMARK  status: ('A' for Active; 'I' for Inactive)
REMARK    1  A    between atoms: O_6  and  C_13
REMARK    2  A    between atoms: N_8  and  C_12
REMARK    3  A    between atoms: N_9  and  C_14
REMARK    4  A    between atoms: N_10  and  C_23
REMARK    5  A    between atoms: N_11  and  C_24
REMARK    6  A    between atoms: C_27  and  C_30
REMARK                            x       y       z     vdW  Elec       q    Type
REMARK                         _______ _______ _______ _____ _____    ______ ____
ROOT
ATOM      4  O   UNL     1     -10.120   9.170  18.892  0.00  0.00    -0.342 OA
ATOM      5  O   UNL     1     -11.170   8.072  17.138  0.00  0.00    -0.347 OA
ATOM     12  C   UNL     1     -11.318  10.483  17.263  0.00  0.00    +0.144 C 
ATOM     13  C   UNL     1     -12.611  10.381  18.103  0.00  0.00    +0.159 C 
ATOM     14  C   UNL     1     -12.409   9.670  19.459  0.00  0.00    +0.136 C 
ATOM     15  C   UNL     1     -10.426   9.250  17.493  0.00  0.00    +0.270 C 
ATOM     16  C   UNL     1     -11.314   8.584  19.418  0.00  0.00    +0.170 C 
ATOM     17  C   UNL     1     -11.562   7.493  18.392  0.00  0.00    +0.196 C 
ENDROOT
BRANCH  12   8
ATOM      8  N   UNL     1     -10.584  11.697  17.612  0.00  0.00    -0.290 NA
ATOM     10  N   UNL     1      -9.609  14.363  17.068  0.00  0.00    -0.303 NA
ATOM     18  C   UNL     1     -11.481  12.859  17.645  0.00  0.00    +0.100 C 
ATOM     19  C   UNL     1      -9.480  11.928  16.672  0.00  0.00    +0.100 C 
ATOM     20  C   UNL     1     -10.711  14.133  18.009  0.00  0.00    +0.099 C 
ATOM     21  C   UNL     1      -8.712  13.203  17.035  0.00  0.00    +0.099 C 
ATOM     23  C   UNL     1      -8.875  15.578  17.416  0.00  0.00    +0.105 C 
ENDBRANCH  12   8
BRANCH  14   9
ATOM      7  O   UNL     1     -13.012   9.455  22.251  0.00  0.00    -0.252 OA
ATOM      9  N   UNL     1     -12.099  10.639  20.488  0.00  0.00    -0.291 N 
ATOM     11  N   UNL     1     -12.009  11.550  22.590  0.00  0.00    -0.269 N 
ATOM     22  C   UNL     1     -12.432  10.454  21.833  0.00  0.00    +0.304 C 
ATOM     31  H   UNL     1     -11.691  11.526  20.207  0.00  0.00    +0.151 HD
ATOM     33  H   UNL     1     -11.539  12.299  22.086  0.00  0.00    +0.156 HD
BRANCH  11  24
ATOM     24  C   UNL     1     -12.154  11.751  23.982  0.00  0.00    +0.035 A 
ATOM     25  C   UNL     1     -11.377  11.017  24.878  0.00  0.00    +0.035 A 
ATOM     26  C   UNL     1     -13.075  12.683  24.459  0.00  0.00    +0.023 A 
ATOM     27  C   UNL     1     -11.519  11.217  26.251  0.00  0.00    +0.057 A 
ATOM     28  C   UNL     1     -13.218  12.883  25.833  0.00  0.00    +0.002 A 
ATOM     29  C   UNL     1     -12.441  12.149  26.728  0.00  0.00    +0.012 A 
BRANCH  27  30
ATOM      1  F   UNL     1      -9.409  10.250  26.769  0.00  0.00    -0.166 F 
ATOM      2  F   UNL     1     -10.574  11.012  28.440  0.00  0.00    -0.166 F 
ATOM      3  F   UNL     1     -11.174   9.176  27.451  0.00  0.00    -0.166 F 
ATOM     30  C   UNL     1     -10.689  10.431  27.209  0.00  0.00    +0.417 C 
ENDBRANCH  27  30
ENDBRANCH  11  24
ENDBRANCH  14   9
BRANCH  13   6
ATOM      6  O   UNL     1     -13.574   9.647  17.336  0.00  0.00    -0.388 OA
ATOM     32  H   UNL     1     -14.047   9.056  17.947  0.00  0.00    +0.210 HD
ENDBRANCH  13   6
TORSDOF 5
ENDMDL
MODEL 4
REMARK VINA RESULT:      -6.6      4.468      7.638
REMARK  Name = 45360575
REMARK  6 active torsions:
REMARK  status: ('A' for Active; 'I' for Inactive)
REMARK    1  A    between atoms: O_6  and  C_13
REMARK    2  A    between atoms: N_8  and  C_12
REMARK    3  A    between atoms: N_9  and  C_14
REMARK    4  A    between atoms: N_10  and  C_23
REMARK    5  A    between atoms: N_11  and  C_24
REMARK    6  A    between atoms: C_27  and  C_30
REMARK                            x       y       z     vdW  Elec       q    Type
REMARK                         _______ _______ _______ _____ _____    ______ ____
ROOT
ATOM      4  O   UNL     1      10.216   8.278   5.682  0.00  0.00    -0.342 OA
ATOM      5  O   UNL     1       9.536   7.824   7.853  0.00  0.00    -0.347 OA
ATOM     12  C   UNL     1      11.892   7.703   7.317  0.00  0.00    +0.144 C 
ATOM     13  C   UNL     1      11.755   6.206   6.959  0.00  0.00    +0.159 C 
ATOM     14  C   UNL     1      10.802   5.942   5.773  0.00  0.00    +0.136 C 
ATOM     15  C   UNL     1      10.565   8.442   7.063  0.00  0.00    +0.270 C 
ATOM     16  C   UNL     1       9.651   6.964   5.679  0.00  0.00    +0.170 C 
ATOM     17  C   UNL     1       8.782   7.034   6.921  0.00  0.00    +0.196 C 
ENDROOT
BRANCH  12   8
ATOM      8  N   UNL     1      12.958   8.315   6.527  0.00  0.00    -0.290 NA
ATOM     10  N   UNL     1      15.559   9.539   6.224  0.00  0.00    -0.303 NA
ATOM     18  C   UNL     1      14.190   7.520   6.609  0.00  0.00    +0.100 C 
ATOM     19  C   UNL     1      13.208   9.693   6.968  0.00  0.00    +0.100 C 
ATOM     20  C   UNL     1      15.309   8.163   5.783  0.00  0.00    +0.099 C 
ATOM     21  C   UNL     1      14.329  10.335   6.143  0.00  0.00    +0.099 C 
ATOM     23  C   UNL     1      16.627  10.152   5.435  0.00  0.00    +0.105 C 
ENDBRANCH  12   8
BRANCH  14   9
ATOM      7  O   UNL     1      10.230   4.361   3.453  0.00  0.00    -0.252 OA
ATOM      9  N   UNL     1      11.546   5.926   4.531  0.00  0.00    -0.291 N 
ATOM     11  N   UNL     1      12.092   5.317   2.390  0.00  0.00    -0.269 N 
ATOM     22  C   UNL     1      11.196   5.121   3.444  0.00  0.00    +0.304 C 
ATOM     31  H   UNL     1      12.403   6.468   4.477  0.00  0.00    +0.151 HD
ATOM     33  H   UNL     1      12.841   5.987   2.546  0.00  0.00    +0.156 HD
BRANCH  11  24
ATOM     24  C   UNL     1      12.086   4.695   1.119  0.00  0.00    +0.035 A 
ATOM     25  C   UNL     1      11.119   5.042   0.177  0.00  0.00    +0.035 A 
ATOM     26  C   UNL     1      13.049   3.735   0.811  0.00  0.00    +0.023 A 
ATOM     27  C   UNL     1      11.115   4.429  -1.077  0.00  0.00    +0.057 A 
ATOM     28  C   UNL     1      13.046   3.122  -0.443  0.00  0.00    +0.002 A 
ATOM     29  C   UNL     1      12.078   3.468  -1.386  0.00  0.00    +0.012 A 
BRANCH  27  30
ATOM      1  F   UNL     1      10.493   5.798  -2.919  0.00  0.00    -0.166 F 
ATOM      2  F   UNL     1       9.717   3.766  -2.902  0.00  0.00    -0.166 F 
ATOM      3  F   UNL     1       8.913   5.243  -1.531  0.00  0.00    -0.166 F 
ATOM     30  C   UNL     1      10.080   4.799  -2.085  0.00  0.00    +0.417 C 
ENDBRANCH  27  30
ENDBRANCH  11  24
ENDBRANCH  14   9
BRANCH  13   6
ATOM      6  O   UNL     1      11.252   5.525   8.115  0.00  0.00    -0.388 OA
ATOM     32  H   UNL     1      11.684   4.654   8.155  0.00  0.00    +0.210 HD
ENDBRANCH  13   6
TORSDOF 5
ENDMDL
MODEL 5
REMARK VINA RESULT:      -6.6     25.836     29.660
REMARK  Name = 45360575
REMARK  6 active torsions:
REMARK  status: ('A' for Active; 'I' for Inactive)
REMARK    1  A    between atoms: O_6  and  C_13
REMARK    2  A    between atoms: N_8  and  C_12
REMARK    3  A    between atoms: N_9  and  C_14
REMARK    4  A    between atoms: N_10  and  C_23
REMARK    5  A    between atoms: N_11  and  C_24
REMARK    6  A    between atoms: C_27  and  C_30
REMARK                            x       y       z     vdW  Elec       q    Type
REMARK                         _______ _______ _______ _____ _____    ______ ____
ROOT
ATOM      4  O   UNL     1     -10.638 -11.964  17.109  0.00  0.00    -0.342 OA
ATOM      5  O   UNL     1     -11.542 -12.339  19.213  0.00  0.00    -0.347 OA
ATOM     12  C   UNL     1     -11.205 -10.060  18.476  0.00  0.00    +0.144 C 
ATOM     13  C   UNL     1      -9.786 -10.050  19.086  0.00  0.00    +0.159 C 
ATOM     14  C   UNL     1      -8.836 -11.088  18.449  0.00  0.00    +0.136 C 
ATOM     15  C   UNL     1     -11.603 -11.487  18.057  0.00  0.00    +0.270 C 
ATOM     16  C   UNL     1      -9.562 -12.360  17.965  0.00  0.00    +0.170 C 
ATOM     17  C   UNL     1     -10.328 -13.088  19.053  0.00  0.00    +0.196 C 
ENDROOT
BRANCH  12   8
ATOM      8  N   UNL     1     -11.262  -9.170  17.319  0.00  0.00    -0.290 NA
ATOM     10  N   UNL     1     -11.923  -6.673  16.021  0.00  0.00    -0.303 NA
ATOM     18  C   UNL     1     -10.472  -7.955  17.554  0.00  0.00    +0.100 C 
ATOM     19  C   UNL     1     -12.652  -8.822  16.996  0.00  0.00    +0.100 C 
ATOM     20  C   UNL     1     -10.534  -7.021  16.341  0.00  0.00    +0.099 C 
ATOM     21  C   UNL     1     -12.714  -7.887  15.785  0.00  0.00    +0.099 C 
ATOM     23  C   UNL     1     -11.981  -5.782  14.863  0.00  0.00    +0.105 C 
ENDBRANCH  12   8
BRANCH  14   9
ATOM      7  O   UNL     1      -6.322 -11.955  17.383  0.00  0.00    -0.252 OA
ATOM      9  N   UNL     1      -8.109 -10.490  17.350  0.00  0.00    -0.291 N 
ATOM     11  N   UNL     1      -6.422 -10.203  15.824  0.00  0.00    -0.269 N 
ATOM     22  C   UNL     1      -6.883 -10.979  16.891  0.00  0.00    +0.304 C 
ATOM     31  H   UNL     1      -8.471  -9.632  16.945  0.00  0.00    +0.151 HD
ATOM     33  H   UNL     1      -7.012  -9.425  15.537  0.00  0.00    +0.156 HD
BRANCH  11  24
ATOM     24  C   UNL     1      -5.228 -10.366  15.085  0.00  0.00    +0.035 A 
ATOM     25  C   UNL     1      -4.003 -10.447  15.746  0.00  0.00    +0.035 A 
ATOM     26  C   UNL     1      -5.276 -10.444  13.693  0.00  0.00    +0.023 A 
ATOM     27  C   UNL     1      -2.825 -10.609  15.016  0.00  0.00    +0.057 A 
ATOM     28  C   UNL     1      -4.098 -10.605  12.963  0.00  0.00    +0.002 A 
ATOM     29  C   UNL     1      -2.873 -10.687  13.624  0.00  0.00    +0.012 A 
BRANCH  27  30
ATOM      1  F   UNL     1      -0.723 -11.698  15.242  0.00  0.00    -0.166 F 
ATOM      2  F   UNL     1      -0.765  -9.558  15.629  0.00  0.00    -0.166 F 
ATOM      3  F   UNL     1      -1.633 -10.935  17.064  0.00  0.00    -0.166 F 
ATOM     30  C   UNL     1      -1.515 -10.696  15.723  0.00  0.00    +0.417 C 
ENDBRANCH  27  30
ENDBRANCH  11  24
ENDBRANCH  14   9
BRANCH  13   6
ATOM      6  O   UNL     1      -9.909 -10.336  20.485  0.00  0.00    -0.388 OA
ATOM     32  H   UNL     1     -10.795 -10.050  20.767  0.00  0.00    +0.210 HD
ENDBRANCH  13   6
TORSDOF 5
ENDMDL
MODEL 6
REMARK VINA RESULT:      -6.6     24.552     28.634
REMARK  Name = 45360575
REMARK  6 active torsions:
REMARK  status: ('A' for Active; 'I' for Inactive)
REMARK    1  A    between atoms: O_6  and  C_13
REMARK    2  A    between atoms: N_8  and  C_12
REMARK    3  A    between atoms: N_9  and  C_14
REMARK    4  A    between atoms: N_10  and  C_23
REMARK    5  A    between atoms: N_11  and  C_24
REMARK    6  A    between atoms: C_27  and  C_30
REMARK                            x       y       z     vdW  Elec       q    Type
REMARK                         _______ _______ _______ _____ _____    ______ ____
ROOT
ATOM      4  O   UNL     1      -8.461 -12.793  17.949  0.00  0.00    -0.342 OA
ATOM      5  O   UNL     1      -8.587 -11.781  20.032  0.00  0.00    -0.347 OA
ATOM     12  C   UNL     1      -8.781 -10.406  18.052  0.00  0.00    +0.144 C 
ATOM     13  C   UNL     1      -7.253 -10.180  18.033  0.00  0.00    +0.159 C 
ATOM     14  C   UNL     1      -6.442 -11.481  17.846  0.00  0.00    +0.136 C 
ATOM     15  C   UNL     1      -9.119 -11.762  18.697  0.00  0.00    +0.270 C 
ATOM     16  C   UNL     1      -7.127 -12.718  18.461  0.00  0.00    +0.170 C 
ATOM     17  C   UNL     1      -7.409 -12.596  19.947  0.00  0.00    +0.196 C 
ENDROOT
BRANCH  12   8
ATOM      8  N   UNL     1      -9.315 -10.358  16.692  0.00  0.00    -0.290 NA
ATOM     10  N   UNL     1     -10.809  -9.111  14.555  0.00  0.00    -0.303 NA
ATOM     18  C   UNL     1      -8.781  -9.201  15.963  0.00  0.00    +0.100 C 
ATOM     19  C   UNL     1     -10.783 -10.321  16.709  0.00  0.00    +0.100 C 
ATOM     20  C   UNL     1      -9.343  -9.150  14.537  0.00  0.00    +0.099 C 
ATOM     21  C   UNL     1     -11.344 -10.267  15.285  0.00  0.00    +0.099 C 
ATOM     23  C   UNL     1     -11.344  -9.062  13.196  0.00  0.00    +0.105 C 
ENDBRANCH  12   8
BRANCH  14   9
ATOM      7  O   UNL     1      -4.409 -10.245  16.250  0.00  0.00    -0.252 OA
ATOM      9  N   UNL     1      -6.186 -11.711  16.440  0.00  0.00    -0.291 N 
ATOM     11  N   UNL     1      -5.161 -11.481  14.403  0.00  0.00    -0.269 N 
ATOM     22  C   UNL     1      -5.169 -11.062  15.736  0.00  0.00    +0.304 C 
ATOM     31  H   UNL     1      -6.823 -12.312  15.927  0.00  0.00    +0.151 HD
ATOM     33  H   UNL     1      -5.862 -12.170  14.137  0.00  0.00    +0.156 HD
BRANCH  11  24
ATOM     24  C   UNL     1      -4.292 -11.066  13.367  0.00  0.00    +0.035 A 
ATOM     25  C   UNL     1      -4.768 -10.249  12.342  0.00  0.00    +0.035 A 
ATOM     26  C   UNL     1      -2.959 -11.476  13.371  0.00  0.00    +0.023 A 
ATOM     27  C   UNL     1      -3.910  -9.840  11.321  0.00  0.00    +0.057 A 
ATOM     28  C   UNL     1      -2.100 -11.066  12.349  0.00  0.00    +0.002 A 
ATOM     29  C   UNL     1      -2.577 -10.249  11.324  0.00  0.00    +0.012 A 
BRANCH  27  30
ATOM      1  F   UNL     1      -3.463  -8.685   9.290  0.00  0.00    -0.166 F 
ATOM      2  F   UNL     1      -5.462  -9.509   9.530  0.00  0.00    -0.166 F 
ATOM      3  F   UNL     1      -4.873  -7.752  10.659  0.00  0.00    -0.166 F 
ATOM     30  C   UNL     1      -4.419  -8.966  10.224  0.00  0.00    +0.417 C 
ENDBRANCH  27  30
ENDBRANCH  11  24
ENDBRANCH  14   9
BRANCH  13   6
ATOM      6  O   UNL     1      -6.884  -9.582  19.282  0.00  0.00    -0.388 OA
ATOM     32  H   UNL     1      -6.496 -10.280  19.839  0.00  0.00    +0.210 HD
ENDBRANCH  13   6
TORSDOF 5
ENDMDL
MODEL 7
REMARK VINA RESULT:      -6.5      4.516      7.704
REMARK  Name = 45360575
REMARK  6 active torsions:
REMARK  status: ('A' for Active; 'I' for Inactive)
REMARK    1  A    between atoms: O_6  and  C_13
REMARK    2  A    between atoms: N_8  and  C_12
REMARK    3  A    between atoms: N_9  and  C_14
REMARK    4  A    between atoms: N_10  and  C_23
REMARK    5  A    between atoms: N_11  and  C_24
REMARK    6  A    between atoms: C_27  and  C_30
REMARK                            x       y       z     vdW  Elec       q    Type
REMARK                         _______ _______ _______ _____ _____    ______ ____
ROOT
ATOM      4  O   UNL     1       9.788   8.552   5.850  0.00  0.00    -0.342 OA
ATOM      5  O   UNL     1       9.093   7.662   7.876  0.00  0.00    -0.347 OA
ATOM     12  C   UNL     1      11.388   7.340   7.185  0.00  0.00    +0.144 C 
ATOM     13  C   UNL     1      11.011   6.021   6.475  0.00  0.00    +0.159 C 
ATOM     14  C   UNL     1      10.003   6.210   5.320  0.00  0.00    +0.136 C 
ATOM     15  C   UNL     1      10.189   8.305   7.204  0.00  0.00    +0.270 C 
ATOM     16  C   UNL     1       9.024   7.379   5.554  0.00  0.00    +0.170 C 
ATOM     17  C   UNL     1       8.204   7.256   6.825  0.00  0.00    +0.196 C 
ENDROOT
BRANCH  12   8
ATOM      8  N   UNL     1      12.520   7.970   6.510  0.00  0.00    -0.290 NA
ATOM     10  N   UNL     1      15.177   9.107   6.454  0.00  0.00    -0.303 NA
ATOM     18  C   UNL     1      13.715   7.121   6.590  0.00  0.00    +0.100 C 
ATOM     19  C   UNL     1      12.795   9.296   7.079  0.00  0.00    +0.100 C 
ATOM     20  C   UNL     1      14.903   7.783   5.884  0.00  0.00    +0.099 C 
ATOM     21  C   UNL     1      13.983   9.957   6.374  0.00  0.00    +0.099 C 
ATOM     23  C   UNL     1      16.310   9.738   5.780  0.00  0.00    +0.105 C 
ENDBRANCH  12   8
BRANCH  14   9
ATOM      7  O   UNL     1      10.994   4.165   3.577  0.00  0.00    -0.252 OA
ATOM      9  N   UNL     1      10.708   6.404   4.071  0.00  0.00    -0.291 N 
ATOM     11  N   UNL     1      11.801   5.835   2.138  0.00  0.00    -0.269 N 
ATOM     22  C   UNL     1      11.159   5.345   3.279  0.00  0.00    +0.304 C 
ATOM     31  H   UNL     1      10.952   7.352   3.798  0.00  0.00    +0.151 HD
ATOM     33  H   UNL     1      11.852   6.846   2.041  0.00  0.00    +0.156 HD
BRANCH  11  24
ATOM     24  C   UNL     1      12.395   5.093   1.090  0.00  0.00    +0.035 A 
ATOM     25  C   UNL     1      13.783   5.058   0.959  0.00  0.00    +0.035 A 
ATOM     26  C   UNL     1      11.591   4.397   0.188  0.00  0.00    +0.023 A 
ATOM     27  C   UNL     1      14.367   4.325  -0.074  0.00  0.00    +0.057 A 
ATOM     28  C   UNL     1      12.176   3.664  -0.846  0.00  0.00    +0.002 A 
ATOM     29  C   UNL     1      13.564   3.629  -0.977  0.00  0.00    +0.012 A 
BRANCH  27  30
ATOM      1  F   UNL     1      16.251   4.000  -1.488  0.00  0.00    -0.166 F 
ATOM      2  F   UNL     1      16.462   5.468   0.103  0.00  0.00    -0.166 F 
ATOM      3  F   UNL     1      16.453   3.351   0.578  0.00  0.00    -0.166 F 
ATOM     30  C   UNL     1      15.852   4.289  -0.215  0.00  0.00    +0.417 C 
ENDBRANCH  27  30
ENDBRANCH  11  24
ENDBRANCH  14   9
BRANCH  13   6
ATOM      6  O   UNL     1      10.432   5.147   7.453  0.00  0.00    -0.388 OA
ATOM     32  H   UNL     1      11.142   4.870   8.057  0.00  0.00    +0.210 HD
ENDBRANCH  13   6
TORSDOF 5
ENDMDL
MODEL 8
REMARK VINA RESULT:      -6.4     25.039     28.412
REMARK  Name = 45360575
REMARK  6 active torsions:
REMARK  status: ('A' for Active; 'I' for Inactive)
REMARK    1  A    between atoms: O_6  and  C_13
REMARK    2  A    between atoms: N_8  and  C_12
REMARK    3  A    between atoms: N_9  and  C_14
REMARK    4  A    between atoms: N_10  and  C_23
REMARK    5  A    between atoms: N_11  and  C_24
REMARK    6  A    between atoms: C_27  and  C_30
REMARK                            x       y       z     vdW  Elec       q    Type
REMARK                         _______ _______ _______ _____ _____    ______ ____
ROOT
ATOM      4  O   UNL     1      -4.951 -10.268  17.937  0.00  0.00    -0.342 OA
ATOM      5  O   UNL     1      -4.399 -12.117  19.225  0.00  0.00    -0.347 OA
ATOM     12  C   UNL     1      -4.343 -12.314  16.815  0.00  0.00    +0.144 C 
ATOM     13  C   UNL     1      -5.820 -12.766  16.796  0.00  0.00    +0.159 C 
ATOM     14  C   UNL     1      -6.796 -11.700  17.341  0.00  0.00    +0.136 C 
ATOM     15  C   UNL     1      -4.073 -11.398  18.023  0.00  0.00    +0.270 C 
ATOM     16  C   UNL     1      -6.175 -10.812  18.439  0.00  0.00    +0.170 C 
ATOM     17  C   UNL     1      -5.664 -11.582  19.642  0.00  0.00    +0.196 C 
ENDROOT
BRANCH  12   8
ATOM      8  N   UNL     1      -4.016 -11.608  15.577  0.00  0.00    -0.290 NA
ATOM     10  N   UNL     1      -2.622 -11.336  13.059  0.00  0.00    -0.303 NA
ATOM     18  C   UNL     1      -4.396 -12.406  14.405  0.00  0.00    +0.100 C 
ATOM     19  C   UNL     1      -2.587 -11.275  15.529  0.00  0.00    +0.100 C 
ATOM     20  C   UNL     1      -4.051 -11.668  13.108  0.00  0.00    +0.099 C 
ATOM     21  C   UNL     1      -2.242 -10.538  14.231  0.00  0.00    +0.099 C 
ATOM     23  C   UNL     1      -2.294 -10.631  11.822  0.00  0.00    +0.105 C 
ENDBRANCH  12   8
BRANCH  14   9
ATOM      7  O   UNL     1      -9.467 -10.722  17.001  0.00  0.00    -0.252 OA
ATOM      9  N   UNL     1      -7.284 -10.872  16.258  0.00  0.00    -0.291 N 
ATOM     11  N   UNL     1      -8.786  -9.658  15.023  0.00  0.00    -0.269 N 
ATOM     22  C   UNL     1      -8.609 -10.438  16.169  0.00  0.00    +0.304 C 
ATOM     31  H   UNL     1      -6.653 -10.663  15.491  0.00  0.00    +0.151 HD
ATOM     33  H   UNL     1      -7.967  -9.517  14.436  0.00  0.00    +0.156 HD
BRANCH  11  24
ATOM     24  C   UNL     1      -9.972  -9.033  14.573  0.00  0.00    +0.035 A 
ATOM     25  C   UNL     1     -10.435  -7.878  15.203  0.00  0.00    +0.035 A 
ATOM     26  C   UNL     1     -10.678  -9.573  13.499  0.00  0.00    +0.023 A 
ATOM     27  C   UNL     1     -11.604  -7.261  14.757  0.00  0.00    +0.057 A 
ATOM     28  C   UNL     1     -11.848  -8.956  13.053  0.00  0.00    +0.002 A 
ATOM     29  C   UNL     1     -12.311  -7.801  13.683  0.00  0.00    +0.012 A 
BRANCH  27  30
ATOM      1  F   UNL     1     -11.251  -5.582  16.405  0.00  0.00    -0.166 F 
ATOM      2  F   UNL     1     -12.270  -4.969  14.583  0.00  0.00    -0.166 F 
ATOM      3  F   UNL     1     -13.310  -6.188  16.046  0.00  0.00    -0.166 F 
ATOM     30  C   UNL     1     -12.100  -6.026  15.431  0.00  0.00    +0.417 C 
ENDBRANCH  27  30
ENDBRANCH  11  24
ENDBRANCH  14   9
BRANCH  13   6
ATOM      6  O   UNL     1      -5.927 -13.944  17.605  0.00  0.00    -0.388 OA
ATOM     32  H   UNL     1      -6.552 -14.547  17.166  0.00  0.00    +0.210 HD
ENDBRANCH  13   6
TORSDOF 5
ENDMDL
MODEL 9
REMARK VINA RESULT:      -6.3     25.470     29.539
REMARK  Name = 45360575
REMARK  6 active torsions:
REMARK  status: ('A' for Active; 'I' for Inactive)
REMARK    1  A    between atoms: O_6  and  C_13
REMARK    2  A    between atoms: N_8  and  C_12
REMARK    3  A    between atoms: N_9  and  C_14
REMARK    4  A    between atoms: N_10  and  C_23
REMARK    5  A    between atoms: N_11  and  C_24
REMARK    6  A    between atoms: C_27  and  C_30
REMARK                            x       y       z     vdW  Elec       q    Type
REMARK                         _______ _______ _______ _____ _____    ______ ____
ROOT
ATOM      4  O   UNL     1     -10.077 -12.432  17.132  0.00  0.00    -0.342 OA
ATOM      5  O   UNL     1     -11.100 -12.761  19.189  0.00  0.00    -0.347 OA
ATOM     12  C   UNL     1     -10.734 -10.499  18.415  0.00  0.00    +0.144 C 
ATOM     13  C   UNL     1      -9.353 -10.464  19.106  0.00  0.00    +0.159 C 
ATOM     14  C   UNL     1      -8.361 -11.510  18.553  0.00  0.00    +0.136 C 
ATOM     15  C   UNL     1     -11.099 -11.939  18.010  0.00  0.00    +0.270 C 
ATOM     16  C   UNL     1      -9.051 -12.799  18.059  0.00  0.00    +0.170 C 
ATOM     17  C   UNL     1      -9.875 -13.506  19.119  0.00  0.00    +0.196 C 
ENDROOT
BRANCH  12   8
ATOM      8  N   UNL     1     -10.729  -9.639  17.234  0.00  0.00    -0.290 NA
ATOM     10  N   UNL     1     -11.517  -7.277  15.766  0.00  0.00    -0.303 NA
ATOM     18  C   UNL     1     -10.166  -8.321  17.551  0.00  0.00    +0.100 C 
ATOM     19  C   UNL     1     -12.084  -9.498  16.685  0.00  0.00    +0.100 C 
ATOM     20  C   UNL     1     -10.163  -7.417  16.313  0.00  0.00    +0.099 C 
ATOM     21  C   UNL     1     -12.080  -8.594  15.449  0.00  0.00    +0.099 C 
ATOM     23  C   UNL     1     -11.513  -6.415  14.585  0.00  0.00    +0.105 C 
ENDBRANCH  12   8
BRANCH  14   9
ATOM      7  O   UNL     1      -5.601 -12.025  17.985  0.00  0.00    -0.252 OA
ATOM      9  N   UNL     1      -7.575 -10.934  17.483  0.00  0.00    -0.291 N 
ATOM     11  N   UNL     1      -5.735 -10.538  16.174  0.00  0.00    -0.269 N 
ATOM     22  C   UNL     1      -6.228 -11.242  17.276  0.00  0.00    +0.304 C 
ATOM     31  H   UNL     1      -8.003 -10.217  16.904  0.00  0.00    +0.151 HD
ATOM     33  H   UNL     1      -6.390  -9.926  15.693  0.00  0.00    +0.156 HD
BRANCH  11  24
ATOM     24  C   UNL     1      -4.427 -10.570  15.638  0.00  0.00    +0.035 A 
ATOM     25  C   UNL     1      -4.239 -10.596  14.257  0.00  0.00    +0.035 A 
ATOM     26  C   UNL     1      -3.325 -10.576  16.493  0.00  0.00    +0.023 A 
ATOM     27  C   UNL     1      -2.948 -10.627  13.729  0.00  0.00    +0.057 A 
ATOM     28  C   UNL     1      -2.033 -10.607  15.964  0.00  0.00    +0.002 A 
ATOM     29  C   UNL     1      -1.845 -10.633  14.583  0.00  0.00    +0.012 A 
BRANCH  27  30
ATOM      1  F   UNL     1      -3.727  -9.988  11.574  0.00  0.00    -0.166 F 
ATOM      2  F   UNL     1      -1.571 -10.091  11.846  0.00  0.00    -0.166 F 
ATOM      3  F   UNL     1      -2.735 -11.918  11.726  0.00  0.00    -0.166 F 
ATOM     30  C   UNL     1      -2.747 -10.655  12.251  0.00  0.00    +0.417 C 
ENDBRANCH  27  30
ENDBRANCH  11  24
ENDBRANCH  14   9
BRANCH  13   6
ATOM      6  O   UNL     1      -9.556 -10.716  20.503  0.00  0.00    -0.388 OA
ATOM     32  H   UNL     1      -8.912 -10.178  20.996  0.00  0.00    +0.210 HD
ENDBRANCH  13   6
TORSDOF 5
ENDMDL
MODEL 10
REMARK VINA RESULT:      -6.3     25.014     28.646
REMARK  Name = 45360575
REMARK  6 active torsions:
REMARK  status: ('A' for Active; 'I' for Inactive)
REMARK    1  A    between atoms: O_6  and  C_13
REMARK    2  A    between atoms: N_8  and  C_12
REMARK    3  A    between atoms: N_9  and  C_14
REMARK    4  A    between atoms: N_10  and  C_23
REMARK    5  A    between atoms: N_11  and  C_24
REMARK    6  A    between atoms: C_27  and  C_30
REMARK                            x       y       z     vdW  Elec       q    Type
REMARK                         _______ _______ _______ _____ _____    ______ ____
ROOT
ATOM      4  O   UNL     1      -9.739  -8.234  17.328  0.00  0.00    -0.342 OA
ATOM      5  O   UNL     1     -11.727  -9.377  17.677  0.00  0.00    -0.347 OA
ATOM     12  C   UNL     1      -9.678 -10.641  17.454  0.00  0.00    +0.144 C 
ATOM     13  C   UNL     1      -9.883 -10.746  15.927  0.00  0.00    +0.159 C 
ATOM     14  C   UNL     1      -9.886  -9.377  15.211  0.00  0.00    +0.136 C 
ATOM     15  C   UNL     1     -10.327  -9.356  18.000  0.00  0.00    +0.270 C 
ATOM     16  C   UNL     1     -10.447  -8.236  16.085  0.00  0.00    +0.170 C 
ATOM     17  C   UNL     1     -11.864  -8.469  16.574  0.00  0.00    +0.196 C 
ENDROOT
BRANCH  12   8
ATOM      8  N   UNL     1      -8.251 -10.648  17.772  0.00  0.00    -0.290 NA
ATOM     10  N   UNL     1      -5.841 -11.897  18.766  0.00  0.00    -0.303 NA
ATOM     18  C   UNL     1      -7.548 -11.676  16.995  0.00  0.00    +0.100 C 
ATOM     19  C   UNL     1      -8.038 -10.858  19.210  0.00  0.00    +0.100 C 
ATOM     20  C   UNL     1      -6.053 -11.685  17.330  0.00  0.00    +0.099 C 
ATOM     21  C   UNL     1      -6.543 -10.869  19.544  0.00  0.00    +0.099 C 
ATOM     23  C   UNL     1      -4.415 -11.905  19.085  0.00  0.00    +0.105 C 
ENDBRANCH  12   8
BRANCH  14   9
ATOM      7  O   UNL     1      -8.487 -10.512  12.984  0.00  0.00    -0.252 OA
ATOM      9  N   UNL     1      -8.549  -9.044  14.768  0.00  0.00    -0.291 N 
ATOM     11  N   UNL     1      -6.656  -9.130  13.479  0.00  0.00    -0.269 N 
ATOM     22  C   UNL     1      -7.939  -9.649  13.666  0.00  0.00    +0.304 C 
ATOM     31  H   UNL     1      -8.003  -8.398  15.330  0.00  0.00    +0.151 HD
ATOM     33  H   UNL     1      -6.352  -8.415  14.137  0.00  0.00    +0.156 HD
BRANCH  11  24
ATOM     24  C   UNL     1      -5.717  -9.475  12.479  0.00  0.00    +0.035 A 
ATOM     25  C   UNL     1      -4.734 -10.428  12.744  0.00  0.00    +0.035 A 
ATOM     26  C   UNL     1      -5.774  -8.860  11.229  0.00  0.00    +0.023 A 
ATOM     27  C   UNL     1      -3.808 -10.768  11.757  0.00  0.00    +0.057 A 
ATOM     28  C   UNL     1      -4.848  -9.201  10.241  0.00  0.00    +0.002 A 
ATOM     29  C   UNL     1      -3.865 -10.154  10.506  0.00  0.00    +0.012 A 
BRANCH  27  30
ATOM      1  F   UNL     1      -2.866 -12.321  13.292  0.00  0.00    -0.166 F 
ATOM      2  F   UNL     1      -2.779 -12.851  11.184  0.00  0.00    -0.166 F 
ATOM      3  F   UNL     1      -1.484 -11.293  11.963  0.00  0.00    -0.166 F 
ATOM     30  C   UNL     1      -2.756 -11.787  12.040  0.00  0.00    +0.417 C 
ENDBRANCH  27  30
ENDBRANCH  11  24
ENDBRANCH  14   9
BRANCH  13   6
ATOM      6  O   UNL     1     -11.145 -11.388  15.699  0.00  0.00    -0.388 OA
ATOM     32  H   UNL     1     -11.728 -10.743  15.261  0.00  0.00    +0.210 HD
ENDBRANCH  13   6
TORSDOF 5
ENDMDL
