MODEL 1
REMARK VINA RESULT:      -6.8      0.000      0.000
REMARK  Name = 44716352
REMARK  7 active torsions:
REMARK  status: ('A' for Active; 'I' for Inactive)
REMARK    1  A    between atoms: N_2  and  C_11
REMARK    2  A    between atoms: N_2  and  C_13
REMARK    3  A    between atoms: C_4  and  C_10
REMARK    4  A    between atoms: C_5  and  C_11
REMARK    5  A    between atoms: C_10  and  C_12
REMARK    6  A    between atoms: C_13  and  C_14
REMARK    7  A    between atoms: C_19  and  C_20
REMARK                            x       y       z     vdW  Elec       q    Type
REMARK                         _______ _______ _______ _____ _____    ______ ____
ROOT
ATOM      2  N   UNL     1      13.751   6.492  20.918  0.00  0.00    -0.311 NA
ATOM     26  H   UNL     1      13.644   5.497  21.117  0.00  0.00    +0.122 HD
ENDROOT
BRANCH   2  11
ATOM     11  C   UNL     1      12.439   7.108  20.812  0.00  0.00    +0.100 C 
BRANCH  11   5
ATOM      1  N   UNL     1      11.755   9.521  20.866  0.00  0.00    -0.298 NA
ATOM      3  C   UNL     1      13.973  10.322  21.962  0.00  0.00    -0.004 C 
ATOM      4  C   UNL     1      13.957  10.647  20.451  0.00  0.00    +0.006 C 
ATOM      5  C   UNL     1      12.380   8.404  21.623  0.00  0.00    +0.071 C 
ATOM      6  C   UNL     1      13.772   8.809  22.160  0.00  0.00    +0.024 C 
ATOM      7  C   UNL     1      12.688  10.024  19.827  0.00  0.00    +0.088 C 
ATOM      8  C   UNL     1      12.756  11.030  22.586  0.00  0.00    +0.019 C 
ATOM      9  C   UNL     1      11.485  10.625  21.818  0.00  0.00    +0.085 C 
BRANCH   4  10
ATOM     10  C   UNL     1      15.221  10.197  19.724  0.00  0.00    +0.002 C 
ATOM     12  C   UNL     1      16.469  10.730  20.403  0.00  0.00    +0.004 C 
ENDBRANCH   4  10
ENDBRANCH  11   5
ENDBRANCH   2  11
BRANCH   2  13
ATOM     13  C   UNL     1      14.511   6.665  19.686  0.00  0.00    +0.116 C 
BRANCH  13  14
ATOM     14  C   UNL     1      15.990   6.496  19.912  0.00  0.00    -0.034 A 
ATOM     15  C   UNL     1      16.773   5.858  18.949  0.00  0.00    +0.005 A 
ATOM     16  C   UNL     1      16.578   6.977  21.082  0.00  0.00    +0.005 A 
ATOM     17  C   UNL     1      18.144   5.701  19.157  0.00  0.00    +0.009 A 
ATOM     18  C   UNL     1      17.947   6.820  21.290  0.00  0.00    +0.009 A 
ATOM     19  C   UNL     1      18.730   6.182  20.328  0.00  0.00    -0.018 A 
BRANCH  19  20
ATOM     20  C   UNL     1      20.152   6.020  20.544  0.00  0.00    -0.018 A 
ATOM     21  C   UNL     1      20.718   4.744  20.533  0.00  0.00    +0.008 A 
ATOM     22  C   UNL     1      20.957   7.138  20.763  0.00  0.00    +0.008 A 
ATOM     23  C   UNL     1      22.088   4.588  20.741  0.00  0.00    +0.001 A 
ATOM     24  C   UNL     1      22.328   6.981  20.969  0.00  0.00    +0.001 A 
ATOM     25  C   UNL     1      22.894   5.706  20.959  0.00  0.00    +0.000 A 
ENDBRANCH  19  20
ENDBRANCH  13  14
ENDBRANCH   2  13
TORSDOF 6
ENDMDL
MODEL 2
REMARK VINA RESULT:      -6.7      1.463      2.211
REMARK  Name = 44716352
REMARK  7 active torsions:
REMARK  status: ('A' for Active; 'I' for Inactive)
REMARK    1  A    between atoms: N_2  and  C_11
REMARK    2  A    between atoms: N_2  and  C_13
REMARK    3  A    between atoms: C_4  and  C_10
REMARK    4  A    between atoms: C_5  and  C_11
REMARK    5  A    between atoms: C_10  and  C_12
REMARK    6  A    between atoms: C_13  and  C_14
REMARK    7  A    between atoms: C_19  and  C_20
REMARK                            x       y       z     vdW  Elec       q    Type
REMARK                         _______ _______ _______ _____ _____    ______ ____
ROOT
ATOM      2  N   UNL     1      14.696   6.333  20.539  0.00  0.00    -0.311 NA
ATOM     26  H   UNL     1      14.803   5.354  20.805  0.00  0.00    +0.122 HD
ENDROOT
BRANCH   2  11
ATOM     11  C   UNL     1      13.345   6.559  20.054  0.00  0.00    +0.100 C 
BRANCH  11   5
ATOM      1  N   UNL     1      11.104   7.499  20.678  0.00  0.00    -0.298 NA
ATOM      3  C   UNL     1      12.099   9.394  22.156  0.00  0.00    -0.004 C 
ATOM      4  C   UNL     1      11.632   9.949  20.791  0.00  0.00    +0.006 C 
ATOM      5  C   UNL     1      12.452   7.107  21.170  0.00  0.00    +0.071 C 
ATOM      6  C   UNL     1      13.128   8.273  21.927  0.00  0.00    +0.024 C 
ATOM      7  C   UNL     1      11.187   8.763  19.905  0.00  0.00    +0.088 C 
ATOM      8  C   UNL     1      10.868   8.755  22.825  0.00  0.00    +0.019 C 
ATOM      9  C   UNL     1      10.238   7.736  21.858  0.00  0.00    +0.085 C 
BRANCH   4  10
ATOM     10  C   UNL     1      12.686  10.806  20.096  0.00  0.00    +0.002 C 
ATOM     12  C   UNL     1      13.074  10.223  18.749  0.00  0.00    +0.004 C 
ENDBRANCH   4  10
ENDBRANCH  11   5
ENDBRANCH   2  11
BRANCH   2  13
ATOM     13  C   UNL     1      15.682   6.673  19.521  0.00  0.00    +0.116 C 
BRANCH  13  14
ATOM     14  C   UNL     1      17.088   6.404  19.988  0.00  0.00    -0.034 A 
ATOM     15  C   UNL     1      17.578   7.044  21.127  0.00  0.00    +0.005 A 
ATOM     16  C   UNL     1      17.900   5.515  19.284  0.00  0.00    +0.005 A 
ATOM     17  C   UNL     1      18.880   6.794  21.561  0.00  0.00    +0.009 A 
ATOM     18  C   UNL     1      19.201   5.266  19.717  0.00  0.00    +0.009 A 
ATOM     19  C   UNL     1      19.691   5.905  20.856  0.00  0.00    -0.018 A 
BRANCH  19  20
ATOM     20  C   UNL     1      21.042   5.646  21.306  0.00  0.00    -0.018 A 
ATOM     21  C   UNL     1      21.359   5.753  22.661  0.00  0.00    +0.008 A 
ATOM     22  C   UNL     1      22.028   5.289  20.386  0.00  0.00    +0.008 A 
ATOM     23  C   UNL     1      22.661   5.503  23.094  0.00  0.00    +0.001 A 
ATOM     24  C   UNL     1      23.329   5.038  20.820  0.00  0.00    +0.001 A 
ATOM     25  C   UNL     1      23.646   5.145  22.174  0.00  0.00    +0.000 A 
ENDBRANCH  19  20
ENDBRANCH  13  14
ENDBRANCH   2  13
TORSDOF 6
ENDMDL
MODEL 3
REMARK VINA RESULT:      -6.4      1.649      3.340
REMARK  Name = 44716352
REMARK  7 active torsions:
REMARK  status: ('A' for Active; 'I' for Inactive)
REMARK    1  A    between atoms: N_2  and  C_11
REMARK    2  A    between atoms: N_2  and  C_13
REMARK    3  A    between atoms: C_4  and  C_10
REMARK    4  A    between atoms: C_5  and  C_11
REMARK    5  A    between atoms: C_10  and  C_12
REMARK    6  A    between atoms: C_13  and  C_14
REMARK    7  A    between atoms: C_19  and  C_20
REMARK                            x       y       z     vdW  Elec       q    Type
REMARK                         _______ _______ _______ _____ _____    ______ ____
ROOT
ATOM      2  N   UNL     1      16.002   6.924  21.869  0.00  0.00    -0.311 NA
ATOM     26  H   UNL     1      15.869   6.021  21.412  0.00  0.00    +0.122 HD
ENDROOT
BRANCH   2  11
ATOM     11  C   UNL     1      14.755   7.670  21.838  0.00  0.00    +0.100 C 
BRANCH  11   5
ATOM      1  N   UNL     1      13.918   9.415  20.242  0.00  0.00    -0.298 NA
ATOM      3  C   UNL     1      12.211   7.820  19.097  0.00  0.00    -0.004 C 
ATOM      4  C   UNL     1      11.496   8.782  20.075  0.00  0.00    +0.006 C 
ATOM      5  C   UNL     1      14.357   8.002  20.398  0.00  0.00    +0.071 C 
ATOM      6  C   UNL     1      13.287   7.025  19.859  0.00  0.00    +0.024 C 
ATOM      7  C   UNL     1      12.568   9.602  20.829  0.00  0.00    +0.088 C 
ATOM      8  C   UNL     1      12.938   8.695  18.059  0.00  0.00    +0.019 C 
ATOM      9  C   UNL     1      13.835   9.710  18.791  0.00  0.00    +0.085 C 
BRANCH   4  10
ATOM     10  C   UNL     1      10.552   8.069  21.039  0.00  0.00    +0.002 C 
ATOM     12  C   UNL     1      10.892   8.387  22.483  0.00  0.00    +0.004 C 
ENDBRANCH   4  10
ENDBRANCH  11   5
ENDBRANCH   2  11
BRANCH   2  13
ATOM     13  C   UNL     1      17.069   7.658  21.201  0.00  0.00    +0.116 C 
BRANCH  13  14
ATOM     14  C   UNL     1      18.338   6.852  21.118  0.00  0.00    -0.034 A 
ATOM     15  C   UNL     1      18.487   5.888  20.120  0.00  0.00    +0.005 A 
ATOM     16  C   UNL     1      19.365   7.070  22.037  0.00  0.00    +0.005 A 
ATOM     17  C   UNL     1      19.664   5.141  20.043  0.00  0.00    +0.009 A 
ATOM     18  C   UNL     1      20.540   6.323  21.960  0.00  0.00    +0.009 A 
ATOM     19  C   UNL     1      20.689   5.359  20.962  0.00  0.00    -0.018 A 
BRANCH  19  20
ATOM     20  C   UNL     1      21.909   4.585  20.883  0.00  0.00    -0.018 A 
ATOM     21  C   UNL     1      23.099   5.196  20.487  0.00  0.00    +0.008 A 
ATOM     22  C   UNL     1      21.896   3.227  21.202  0.00  0.00    +0.008 A 
ATOM     23  C   UNL     1      24.275   4.450  20.411  0.00  0.00    +0.001 A 
ATOM     24  C   UNL     1      23.072   2.481  21.127  0.00  0.00    +0.001 A 
ATOM     25  C   UNL     1      24.262   3.092  20.731  0.00  0.00    +0.000 A 
ENDBRANCH  19  20
ENDBRANCH  13  14
ENDBRANCH   2  13
TORSDOF 6
ENDMDL
MODEL 4
REMARK VINA RESULT:      -6.4     26.737     29.777
REMARK  Name = 44716352
REMARK  7 active torsions:
REMARK  status: ('A' for Active; 'I' for Inactive)
REMARK    1  A    between atoms: N_2  and  C_11
REMARK    2  A    between atoms: N_2  and  C_13
REMARK    3  A    between atoms: C_4  and  C_10
REMARK    4  A    between atoms: C_5  and  C_11
REMARK    5  A    between atoms: C_10  and  C_12
REMARK    6  A    between atoms: C_13  and  C_14
REMARK    7  A    between atoms: C_19  and  C_20
REMARK                            x       y       z     vdW  Elec       q    Type
REMARK                         _______ _______ _______ _____ _____    ______ ____
ROOT
ATOM      2  N   UNL     1      -9.590   9.520  17.704  0.00  0.00    -0.311 NA
ATOM     26  H   UNL     1      -8.587   9.340  17.655  0.00  0.00    +0.122 HD
ENDROOT
BRANCH   2  11
ATOM     11  C   UNL     1      -9.948  10.534  16.728  0.00  0.00    +0.100 C 
BRANCH  11   5
ATOM      1  N   UNL     1     -11.759  10.814  15.014  0.00  0.00    -0.298 NA
ATOM      3  C   UNL     1     -12.726   8.426  15.369  0.00  0.00    -0.004 C 
ATOM      4  C   UNL     1     -13.613   9.488  16.061  0.00  0.00    +0.006 C 
ATOM      5  C   UNL     1     -10.705   9.913  15.551  0.00  0.00    +0.071 C 
ATOM      6  C   UNL     1     -11.290   8.528  15.912  0.00  0.00    +0.024 C 
ATOM      7  C   UNL     1     -12.916  10.862  15.942  0.00  0.00    +0.088 C 
ATOM      8  C   UNL     1     -12.677   8.790  13.873  0.00  0.00    +0.019 C 
ATOM      9  C   UNL     1     -12.225  10.254  13.723  0.00  0.00    +0.085 C 
BRANCH   4  10
ATOM     10  C   UNL     1     -13.939   9.146  17.512  0.00  0.00    +0.002 C 
ATOM     12  C   UNL     1     -15.023   8.088  17.601  0.00  0.00    +0.004 C 
ENDBRANCH   4  10
ENDBRANCH  11   5
ENDBRANCH   2  11
BRANCH   2  13
ATOM     13  C   UNL     1      -9.946   9.941  19.053  0.00  0.00    +0.116 C 
BRANCH  13  14
ATOM     14  C   UNL     1     -10.995   9.049  19.661  0.00  0.00    -0.034 A 
ATOM     15  C   UNL     1     -11.002   7.684  19.372  0.00  0.00    +0.005 A 
ATOM     16  C   UNL     1     -11.960   9.586  20.513  0.00  0.00    +0.005 A 
ATOM     17  C   UNL     1     -11.975   6.857  19.936  0.00  0.00    +0.009 A 
ATOM     18  C   UNL     1     -12.932   8.760  21.076  0.00  0.00    +0.009 A 
ATOM     19  C   UNL     1     -12.939   7.395  20.788  0.00  0.00    -0.018 A 
BRANCH  19  20
ATOM     20  C   UNL     1     -13.947   6.538  21.372  0.00  0.00    -0.018 A 
ATOM     21  C   UNL     1     -13.572   5.506  22.233  0.00  0.00    +0.008 A 
ATOM     22  C   UNL     1     -15.295   6.743  21.076  0.00  0.00    +0.008 A 
ATOM     23  C   UNL     1     -14.544   4.680  22.797  0.00  0.00    +0.001 A 
ATOM     24  C   UNL     1     -16.267   5.918  21.641  0.00  0.00    +0.001 A 
ATOM     25  C   UNL     1     -15.892   4.886  22.501  0.00  0.00    +0.000 A 
ENDBRANCH  19  20
ENDBRANCH  13  14
ENDBRANCH   2  13
TORSDOF 6
ENDMDL
MODEL 5
REMARK VINA RESULT:      -6.3     27.461     29.418
REMARK  Name = 44716352
REMARK  7 active torsions:
REMARK  status: ('A' for Active; 'I' for Inactive)
REMARK    1  A    between atoms: N_2  and  C_11
REMARK    2  A    between atoms: N_2  and  C_13
REMARK    3  A    between atoms: C_4  and  C_10
REMARK    4  A    between atoms: C_5  and  C_11
REMARK    5  A    between atoms: C_10  and  C_12
REMARK    6  A    between atoms: C_13  and  C_14
REMARK    7  A    between atoms: C_19  and  C_20
REMARK                            x       y       z     vdW  Elec       q    Type
REMARK                         _______ _______ _______ _____ _____    ______ ____
ROOT
ATOM      2  N   UNL     1     -13.112  11.023  19.844  0.00  0.00    -0.311 NA
ATOM     26  H   UNL     1     -13.086  12.017  20.068  0.00  0.00    +0.122 HD
ENDROOT
BRANCH   2  11
ATOM     11  C   UNL     1     -13.593  10.846  18.484  0.00  0.00    +0.100 C 
BRANCH  11   5
ATOM      1  N   UNL     1     -12.886   8.869  17.109  0.00  0.00    -0.298 NA
ATOM      3  C   UNL     1     -10.471   8.823  18.072  0.00  0.00    -0.004 C 
ATOM      4  C   UNL     1     -11.338   7.710  18.706  0.00  0.00    +0.006 C 
ATOM      5  C   UNL     1     -12.509  10.221  17.602  0.00  0.00    +0.071 C 
ATOM      6  C   UNL     1     -11.137  10.189  18.314  0.00  0.00    +0.024 C 
ATOM      7  C   UNL     1     -12.792   7.876  18.208  0.00  0.00    +0.088 C 
ATOM      8  C   UNL     1     -10.469   8.578  16.551  0.00  0.00    +0.019 C 
ATOM      9  C   UNL     1     -11.922   8.482  16.052  0.00  0.00    +0.085 C 
BRANCH   4  10
ATOM     10  C   UNL     1     -11.264   7.684  20.230  0.00  0.00    +0.002 C 
ATOM     12  C   UNL     1     -12.420   6.903  20.826  0.00  0.00    +0.004 C 
ENDBRANCH   4  10
ENDBRANCH  11   5
ENDBRANCH   2  11
BRANCH   2  13
ATOM     13  C   UNL     1     -13.969  10.328  20.797  0.00  0.00    +0.116 C 
BRANCH  13  14
ATOM     14  C   UNL     1     -13.484  10.494  22.212  0.00  0.00    -0.034 A 
ATOM     15  C   UNL     1     -14.209   9.937  23.267  0.00  0.00    +0.005 A 
ATOM     16  C   UNL     1     -12.312  11.204  22.470  0.00  0.00    +0.005 A 
ATOM     17  C   UNL     1     -13.759  10.090  24.579  0.00  0.00    +0.009 A 
ATOM     18  C   UNL     1     -11.863  11.358  23.781  0.00  0.00    +0.009 A 
ATOM     19  C   UNL     1     -12.587  10.800  24.835  0.00  0.00    -0.018 A 
BRANCH  19  20
ATOM     20  C   UNL     1     -12.120  10.959  26.196  0.00  0.00    -0.018 A 
ATOM     21  C   UNL     1     -12.191  12.208  26.816  0.00  0.00    +0.008 A 
ATOM     22  C   UNL     1     -11.601   9.866  26.888  0.00  0.00    +0.008 A 
ATOM     23  C   UNL     1     -11.743  12.361  28.128  0.00  0.00    +0.001 A 
ATOM     24  C   UNL     1     -11.154  10.019  28.201  0.00  0.00    +0.001 A 
ATOM     25  C   UNL     1     -11.224  11.266  28.821  0.00  0.00    +0.000 A 
ENDBRANCH  19  20
ENDBRANCH  13  14
ENDBRANCH   2  13
TORSDOF 6
ENDMDL
MODEL 6
REMARK VINA RESULT:      -6.2     17.580     19.432
REMARK  Name = 44716352
REMARK  7 active torsions:
REMARK  status: ('A' for Active; 'I' for Inactive)
REMARK    1  A    between atoms: N_2  and  C_11
REMARK    2  A    between atoms: N_2  and  C_13
REMARK    3  A    between atoms: C_4  and  C_10
REMARK    4  A    between atoms: C_5  and  C_11
REMARK    5  A    between atoms: C_10  and  C_12
REMARK    6  A    between atoms: C_13  and  C_14
REMARK    7  A    between atoms: C_19  and  C_20
REMARK                            x       y       z     vdW  Elec       q    Type
REMARK                         _______ _______ _______ _____ _____    ______ ____
ROOT
ATOM      2  N   UNL     1       9.868   5.853   4.038  0.00  0.00    -0.311 NA
ATOM     26  H   UNL     1       9.310   6.002   3.197  0.00  0.00    +0.122 HD
ENDROOT
BRANCH   2  11
ATOM     11  C   UNL     1      10.692   7.024   4.287  0.00  0.00    +0.100 C 
BRANCH  11   5
ATOM      1  N   UNL     1      11.150   8.029   6.539  0.00  0.00    -0.298 NA
ATOM      3  C   UNL     1       8.895   7.233   7.563  0.00  0.00    -0.004 C 
ATOM      4  C   UNL     1      10.063   6.341   8.042  0.00  0.00    +0.006 C 
ATOM      5  C   UNL     1      10.142   7.835   5.462  0.00  0.00    +0.071 C 
ATOM      6  C   UNL     1       8.840   7.220   6.025  0.00  0.00    +0.024 C 
ATOM      7  C   UNL     1      11.347   6.766   7.293  0.00  0.00    +0.088 C 
ATOM      8  C   UNL     1       9.226   8.674   7.996  0.00  0.00    +0.019 C 
ATOM      9  C   UNL     1      10.625   9.050   7.477  0.00  0.00    +0.085 C 
BRANCH   4  10
ATOM     10  C   UNL     1       9.786   4.849   7.880  0.00  0.00    +0.002 C 
ATOM     12  C   UNL     1       9.411   4.209   9.204  0.00  0.00    +0.004 C 
ENDBRANCH   4  10
ENDBRANCH  11   5
ENDBRANCH   2  11
BRANCH   2  13
ATOM     13  C   UNL     1      10.689   4.660   3.874  0.00  0.00    +0.116 C 
BRANCH  13  14
ATOM     14  C   UNL     1      11.042   4.415   2.431  0.00  0.00    -0.034 A 
ATOM     15  C   UNL     1      12.249   3.795   2.104  0.00  0.00    +0.005 A 
ATOM     16  C   UNL     1      10.163   4.806   1.422  0.00  0.00    +0.005 A 
ATOM     17  C   UNL     1      12.575   3.567   0.767  0.00  0.00    +0.009 A 
ATOM     18  C   UNL     1      10.489   4.579   0.085  0.00  0.00    +0.009 A 
ATOM     19  C   UNL     1      11.695   3.959  -0.242  0.00  0.00    -0.018 A 
BRANCH  19  20
ATOM     20  C   UNL     1      12.034   3.723  -1.629  0.00  0.00    -0.018 A 
ATOM     21  C   UNL     1      13.252   4.180  -2.137  0.00  0.00    +0.008 A 
ATOM     22  C   UNL     1      11.146   3.039  -2.458  0.00  0.00    +0.008 A 
ATOM     23  C   UNL     1      13.579   3.952  -3.473  0.00  0.00    +0.001 A 
ATOM     24  C   UNL     1      11.474   2.810  -3.794  0.00  0.00    +0.001 A 
ATOM     25  C   UNL     1      12.690   3.267  -4.303  0.00  0.00    +0.000 A 
ENDBRANCH  19  20
ENDBRANCH  13  14
ENDBRANCH   2  13
TORSDOF 6
ENDMDL
MODEL 7
REMARK VINA RESULT:      -6.2     26.871     29.452
REMARK  Name = 44716352
REMARK  7 active torsions:
REMARK  status: ('A' for Active; 'I' for Inactive)
REMARK    1  A    between atoms: N_2  and  C_11
REMARK    2  A    between atoms: N_2  and  C_13
REMARK    3  A    between atoms: C_4  and  C_10
REMARK    4  A    between atoms: C_5  and  C_11
REMARK    5  A    between atoms: C_10  and  C_12
REMARK    6  A    between atoms: C_13  and  C_14
REMARK    7  A    between atoms: C_19  and  C_20
REMARK                            x       y       z     vdW  Elec       q    Type
REMARK                         _______ _______ _______ _____ _____    ______ ____
ROOT
ATOM      2  N   UNL     1      -2.661 -10.907  11.226  0.00  0.00    -0.311 NA
ATOM     26  H   UNL     1      -2.093 -11.538  10.661  0.00  0.00    +0.122 HD
ENDROOT
BRANCH   2  11
ATOM     11  C   UNL     1      -3.168  -9.832  10.389  0.00  0.00    +0.100 C 
BRANCH  11   5
ATOM      1  N   UNL     1      -4.838  -9.299   8.594  0.00  0.00    -0.298 NA
ATOM      3  C   UNL     1      -6.503 -11.157   9.328  0.00  0.00    -0.004 C 
ATOM      4  C   UNL     1      -6.990  -9.766   9.795  0.00  0.00    +0.006 C 
ATOM      5  C   UNL     1      -4.110 -10.378   9.315  0.00  0.00    +0.071 C 
ATOM      6  C   UNL     1      -5.095 -11.421   9.891  0.00  0.00    +0.024 C 
ATOM      7  C   UNL     1      -5.897  -8.725   9.461  0.00  0.00    +0.088 C 
ATOM      8  C   UNL     1      -6.377 -11.096   7.794  0.00  0.00    +0.019 C 
ATOM      9  C   UNL     1      -5.488  -9.900   7.406  0.00  0.00    +0.085 C 
BRANCH   4  10
ATOM     10  C   UNL     1      -7.372  -9.727  11.272  0.00  0.00    +0.002 C 
ATOM     12  C   UNL     1      -6.452  -8.810  12.057  0.00  0.00    +0.004 C 
ENDBRANCH   4  10
ENDBRANCH  11   5
ENDBRANCH   2  11
BRANCH   2  13
ATOM     13  C   UNL     1      -1.862 -10.382  12.326  0.00  0.00    +0.116 C 
BRANCH  13  14
ATOM     14  C   UNL     1      -2.562 -10.533  13.651  0.00  0.00    -0.034 A 
ATOM     15  C   UNL     1      -1.828 -10.478  14.836  0.00  0.00    +0.005 A 
ATOM     16  C   UNL     1      -3.942 -10.726  13.693  0.00  0.00    +0.005 A 
ATOM     17  C   UNL     1      -2.477 -10.617  16.064  0.00  0.00    +0.009 A 
ATOM     18  C   UNL     1      -4.590 -10.866  14.919  0.00  0.00    +0.009 A 
ATOM     19  C   UNL     1      -3.857 -10.811  16.105  0.00  0.00    -0.018 A 
BRANCH  19  20
ATOM     20  C   UNL     1      -4.530 -10.956  17.378  0.00  0.00    -0.018 A 
ATOM     21  C   UNL     1      -5.766 -10.343  17.588  0.00  0.00    +0.008 A 
ATOM     22  C   UNL     1      -3.944 -11.708  18.395  0.00  0.00    +0.008 A 
ATOM     23  C   UNL     1      -6.415 -10.483  18.814  0.00  0.00    +0.001 A 
ATOM     24  C   UNL     1      -4.593 -11.850  19.622  0.00  0.00    +0.001 A 
ATOM     25  C   UNL     1      -5.829 -11.237  19.832  0.00  0.00    +0.000 A 
ENDBRANCH  19  20
ENDBRANCH  13  14
ENDBRANCH   2  13
TORSDOF 6
ENDMDL
MODEL 8
REMARK VINA RESULT:      -6.2     13.042     15.558
REMARK  Name = 44716352
REMARK  7 active torsions:
REMARK  status: ('A' for Active; 'I' for Inactive)
REMARK    1  A    between atoms: N_2  and  C_11
REMARK    2  A    between atoms: N_2  and  C_13
REMARK    3  A    between atoms: C_4  and  C_10
REMARK    4  A    between atoms: C_5  and  C_11
REMARK    5  A    between atoms: C_10  and  C_12
REMARK    6  A    between atoms: C_13  and  C_14
REMARK    7  A    between atoms: C_19  and  C_20
REMARK                            x       y       z     vdW  Elec       q    Type
REMARK                         _______ _______ _______ _____ _____    ______ ____
ROOT
ATOM      2  N   UNL     1      18.803  -4.055  26.593  0.00  0.00    -0.311 NA
ATOM     26  H   UNL     1      19.800  -3.932  26.772  0.00  0.00    +0.122 HD
ENDROOT
BRANCH   2  11
ATOM     11  C   UNL     1      18.156  -2.755  26.544  0.00  0.00    +0.100 C 
BRANCH  11   5
ATOM      1  N   UNL     1      16.710  -2.147  24.586  0.00  0.00    -0.298 NA
ATOM      3  C   UNL     1      18.246  -3.321  22.846  0.00  0.00    -0.004 C 
ATOM      4  C   UNL     1      16.992  -4.177  23.140  0.00  0.00    +0.006 C 
ATOM      5  C   UNL     1      18.101  -2.229  25.108  0.00  0.00    +0.071 C 
ATOM      6  C   UNL     1      19.001  -3.054  24.160  0.00  0.00    +0.024 C 
ATOM      7  C   UNL     1      16.194  -3.504  24.280  0.00  0.00    +0.088 C 
ATOM      8  C   UNL     1      17.747  -1.961  22.321  0.00  0.00    +0.019 C 
ATOM      9  C   UNL     1      16.741  -1.370  23.324  0.00  0.00    +0.085 C 
BRANCH   4  10
ATOM     10  C   UNL     1      17.319  -5.632  23.464  0.00  0.00    +0.002 C 
ATOM     12  C   UNL     1      18.267  -6.227  22.439  0.00  0.00    +0.004 C 
ENDBRANCH   4  10
ENDBRANCH  11   5
ENDBRANCH   2  11
BRANCH   2  13
ATOM     13  C   UNL     1      18.219  -4.892  27.634  0.00  0.00    +0.116 C 
BRANCH  13  14
ATOM     14  C   UNL     1      17.569  -6.124  27.063  0.00  0.00    -0.034 A 
ATOM     15  C   UNL     1      16.179  -6.190  26.950  0.00  0.00    +0.005 A 
ATOM     16  C   UNL     1      18.354  -7.200  26.648  0.00  0.00    +0.005 A 
ATOM     17  C   UNL     1      15.577  -7.332  26.421  0.00  0.00    +0.009 A 
ATOM     18  C   UNL     1      17.752  -8.341  26.120  0.00  0.00    +0.009 A 
ATOM     19  C   UNL     1      16.363  -8.407  26.006  0.00  0.00    -0.018 A 
BRANCH  19  20
ATOM     20  C   UNL     1      15.738  -9.591  25.457  0.00  0.00    -0.018 A 
ATOM     21  C   UNL     1      16.516 -10.703  25.132  0.00  0.00    +0.008 A 
ATOM     22  C   UNL     1      14.358  -9.622  25.255  0.00  0.00    +0.008 A 
ATOM     23  C   UNL     1      15.913 -11.845  24.604  0.00  0.00    +0.001 A 
ATOM     24  C   UNL     1      13.756 -10.764  24.728  0.00  0.00    +0.001 A 
ATOM     25  C   UNL     1      14.533 -11.876  24.402  0.00  0.00    +0.000 A 
ENDBRANCH  19  20
ENDBRANCH  13  14
ENDBRANCH   2  13
TORSDOF 6
ENDMDL
MODEL 9
REMARK VINA RESULT:      -6.2     27.464     30.286
REMARK  Name = 44716352
REMARK  7 active torsions:
REMARK  status: ('A' for Active; 'I' for Inactive)
REMARK    1  A    between atoms: N_2  and  C_11
REMARK    2  A    between atoms: N_2  and  C_13
REMARK    3  A    between atoms: C_4  and  C_10
REMARK    4  A    between atoms: C_5  and  C_11
REMARK    5  A    between atoms: C_10  and  C_12
REMARK    6  A    between atoms: C_13  and  C_14
REMARK    7  A    between atoms: C_19  and  C_20
REMARK                            x       y       z     vdW  Elec       q    Type
REMARK                         _______ _______ _______ _____ _____    ______ ____
ROOT
ATOM      2  N   UNL     1      -7.702 -10.588  19.711  0.00  0.00    -0.311 NA
ATOM     26  H   UNL     1      -8.026 -10.056  20.519  0.00  0.00    +0.122 HD
ENDROOT
BRANCH   2  11
ATOM     11  C   UNL     1      -8.350 -11.889  19.697  0.00  0.00    +0.100 C 
BRANCH  11   5
ATOM      1  N   UNL     1     -10.432 -12.103  18.313  0.00  0.00    -0.298 NA
ATOM      3  C   UNL     1     -11.415  -9.826  19.097  0.00  0.00    -0.004 C 
ATOM      4  C   UNL     1     -10.824  -9.710  17.673  0.00  0.00    +0.006 C 
ATOM      5  C   UNL     1      -9.872 -11.737  19.642  0.00  0.00    +0.071 C 
ATOM      6  C   UNL     1     -10.323 -10.320  20.063  0.00  0.00    +0.024 C 
ATOM      7  C   UNL     1     -10.129 -11.044  17.318  0.00  0.00    +0.088 C 
ATOM      8  C   UNL     1     -12.504 -10.914  19.043  0.00  0.00    +0.019 C 
ATOM      9  C   UNL     1     -11.904 -12.201  18.449  0.00  0.00    +0.085 C 
BRANCH   4  10
ATOM     10  C   UNL     1      -9.880  -8.522  17.508  0.00  0.00    +0.002 C 
ATOM     12  C   UNL     1     -10.583  -7.342  16.864  0.00  0.00    +0.004 C 
ENDBRANCH   4  10
ENDBRANCH  11   5
ENDBRANCH   2  11
BRANCH   2  13
ATOM     13  C   UNL     1      -6.252 -10.725  19.765  0.00  0.00    +0.116 C 
BRANCH  13  14
ATOM     14  C   UNL     1      -5.633 -10.687  18.393  0.00  0.00    -0.034 A 
ATOM     15  C   UNL     1      -4.429 -11.351  18.154  0.00  0.00    +0.005 A 
ATOM     16  C   UNL     1      -6.262  -9.990  17.362  0.00  0.00    +0.005 A 
ATOM     17  C   UNL     1      -3.855 -11.317  16.882  0.00  0.00    +0.009 A 
ATOM     18  C   UNL     1      -5.688  -9.955  16.092  0.00  0.00    +0.009 A 
ATOM     19  C   UNL     1      -4.485 -10.619  15.852  0.00  0.00    -0.018 A 
BRANCH  19  20
ATOM     20  C   UNL     1      -3.890 -10.583  14.533  0.00  0.00    -0.018 A 
ATOM     21  C   UNL     1      -4.705 -10.560  13.400  0.00  0.00    +0.008 A 
ATOM     22  C   UNL     1      -2.502 -10.571  14.394  0.00  0.00    +0.008 A 
ATOM     23  C   UNL     1      -4.131 -10.524  12.130  0.00  0.00    +0.001 A 
ATOM     24  C   UNL     1      -1.929 -10.534  13.123  0.00  0.00    +0.001 A 
ATOM     25  C   UNL     1      -2.743 -10.511  11.991  0.00  0.00    +0.000 A 
ENDBRANCH  19  20
ENDBRANCH  13  14
ENDBRANCH   2  13
TORSDOF 6
ENDMDL
MODEL 10
REMARK VINA RESULT:      -6.1     27.792     30.023
REMARK  Name = 44716352
REMARK  7 active torsions:
REMARK  status: ('A' for Active; 'I' for Inactive)
REMARK    1  A    between atoms: N_2  and  C_11
REMARK    2  A    between atoms: N_2  and  C_13
REMARK    3  A    between atoms: C_4  and  C_10
REMARK    4  A    between atoms: C_5  and  C_11
REMARK    5  A    between atoms: C_10  and  C_12
REMARK    6  A    between atoms: C_13  and  C_14
REMARK    7  A    between atoms: C_19  and  C_20
REMARK                            x       y       z     vdW  Elec       q    Type
REMARK                         _______ _______ _______ _____ _____    ______ ____
ROOT
ATOM      2  N   UNL     1      -7.652 -10.669  19.743  0.00  0.00    -0.311 NA
ATOM     26  H   UNL     1      -7.850 -10.337  20.687  0.00  0.00    +0.122 HD
ENDROOT
BRANCH   2  11
ATOM     11  C   UNL     1      -8.876 -11.171  19.140  0.00  0.00    +0.100 C 
BRANCH  11   5
ATOM      1  N   UNL     1     -10.550 -10.667  17.341  0.00  0.00    -0.298 NA
ATOM      3  C   UNL     1      -8.952  -9.086  16.033  0.00  0.00    -0.004 C 
ATOM      4  C   UNL     1      -9.051 -10.465  15.341  0.00  0.00    +0.006 C 
ATOM      5  C   UNL     1      -9.528 -10.101  18.262  0.00  0.00    +0.071 C 
ATOM      6  C   UNL     1      -8.476  -9.277  17.485  0.00  0.00    +0.024 C 
ATOM      7  C   UNL     1      -9.893 -11.404  16.234  0.00  0.00    +0.088 C 
ATOM      8  C   UNL     1     -10.379  -8.510  16.092  0.00  0.00    +0.019 C 
ATOM      9  C   UNL     1     -11.313  -9.538  16.756  0.00  0.00    +0.085 C 
BRANCH   4  10
ATOM     10  C   UNL     1      -7.690 -11.072  15.011  0.00  0.00    +0.002 C 
ATOM     12  C   UNL     1      -6.844 -10.119  14.186  0.00  0.00    +0.004 C 
ENDBRANCH   4  10
ENDBRANCH  11   5
ENDBRANCH   2  11
BRANCH   2  13
ATOM     13  C   UNL     1      -6.629 -11.706  19.793  0.00  0.00    +0.116 C 
BRANCH  13  14
ATOM     14  C   UNL     1      -5.799 -11.737  18.537  0.00  0.00    -0.034 A 
ATOM     15  C   UNL     1      -5.133 -10.586  18.114  0.00  0.00    +0.005 A 
ATOM     16  C   UNL     1      -5.695 -12.915  17.798  0.00  0.00    +0.005 A 
ATOM     17  C   UNL     1      -4.363 -10.615  16.951  0.00  0.00    +0.009 A 
ATOM     18  C   UNL     1      -4.927 -12.944  16.635  0.00  0.00    +0.009 A 
ATOM     19  C   UNL     1      -4.260 -11.794  16.212  0.00  0.00    -0.018 A 
BRANCH  19  20
ATOM     20  C   UNL     1      -3.462 -11.823  15.005  0.00  0.00    -0.018 A 
ATOM     21  C   UNL     1      -3.118 -10.631  14.367  0.00  0.00    +0.008 A 
ATOM     22  C   UNL     1      -3.036 -13.043  14.480  0.00  0.00    +0.008 A 
ATOM     23  C   UNL     1      -2.348 -10.659  13.204  0.00  0.00    +0.001 A 
ATOM     24  C   UNL     1      -2.265 -13.072  13.318  0.00  0.00    +0.001 A 
ATOM     25  C   UNL     1      -1.921 -11.880  12.679  0.00  0.00    +0.000 A 
ENDBRANCH  19  20
ENDBRANCH  13  14
ENDBRANCH   2  13
TORSDOF 6
ENDMDL
