MODEL 1
REMARK VINA RESULT:      -6.9      0.000      0.000
REMARK  Name = 75536830
REMARK  8 active torsions:
REMARK  status: ('A' for Active; 'I' for Inactive)
REMARK    1  A    between atoms: S_1  and  N_8
REMARK    2  A    between atoms: S_1  and  C_20
REMARK    3  A    between atoms: O_3  and  C_11
REMARK    4  A    between atoms: N_6  and  C_9
REMARK    5  A    between atoms: N_6  and  C_10
REMARK    6  A    between atoms: N_7  and  C_19
REMARK    7  A    between atoms: N_8  and  C_18
REMARK    8  A    between atoms: C_12  and  C_18
REMARK                            x       y       z     vdW  Elec       q    Type
REMARK                         _______ _______ _______ _____ _____    ______ ____
ROOT
ATOM      2  O   UNL     1      16.286   5.909  18.764  0.00  0.00    -0.371 OA
ATOM      9  C   UNL     1      18.206   6.028  20.158  0.00  0.00    +0.111 C 
ATOM     11  C   UNL     1      17.325   7.235  20.425  0.00  0.00    +0.164 C 
ATOM     12  C   UNL     1      15.984   6.741  19.897  0.00  0.00    +0.164 C 
ATOM     15  C   UNL     1      17.683   5.567  18.807  0.00  0.00    +0.181 C 
ENDROOT
BRANCH  11   3
ATOM      3  O   UNL     1      17.259   7.569  21.797  0.00  0.00    -0.388 OA
ATOM     27  H   UNL     1      17.369   6.754  22.316  0.00  0.00    +0.210 HD
ENDBRANCH  11   3
BRANCH   9   6
ATOM      6  N   UNL     1      19.626   6.337  20.139  0.00  0.00    -0.306 NA
ATOM     26  H   UNL     1      19.768   7.346  20.161  0.00  0.00    +0.123 HD
BRANCH   6  10
ATOM      7  N   UNL     1      22.799   4.964  22.611  0.00  0.00    -0.305 NA
ATOM     10  C   UNL     1      20.308   5.713  21.271  0.00  0.00    +0.056 C 
ATOM     13  C   UNL     1      21.189   6.738  21.989  0.00  0.00    +0.034 C 
ATOM     14  C   UNL     1      21.157   4.525  20.812  0.00  0.00    +0.034 C 
ATOM     16  C   UNL     1      21.988   6.080  23.117  0.00  0.00    +0.085 C 
ATOM     17  C   UNL     1      21.958   3.939  21.978  0.00  0.00    +0.085 C 
ATOM     19  C   UNL     1      23.594   4.378  23.690  0.00  0.00    +0.104 C 
ENDBRANCH   6  10
ENDBRANCH   9   6
BRANCH  12  18
ATOM     18  C   UNL     1      15.055   7.865  19.474  0.00  0.00    +0.140 C 
BRANCH  18   8
ATOM      8  N   UNL     1      14.025   7.338  18.558  0.00  0.00    -0.187 NA
ATOM     28  H   UNL     1      14.366   6.721  17.810  0.00  0.00    +0.148 HD
BRANCH   8   1
ATOM      1  S   UNL     1      12.592   8.215  18.291  0.00  0.00    +0.058 S 
ATOM      4  O   UNL     1      11.721   7.456  17.414  0.00  0.00    -0.153 OA
ATOM      5  O   UNL     1      12.932   9.588  17.970  0.00  0.00    -0.153 OA
BRANCH   1  20
ATOM     20  C   UNL     1      11.867   8.225  19.903  0.00  0.00    +0.105 A 
ATOM     21  C   UNL     1      11.555   7.022  20.535  0.00  0.00    +0.028 A 
ATOM     22  C   UNL     1      11.604   9.437  20.542  0.00  0.00    +0.028 A 
ATOM     23  C   UNL     1      10.979   7.030  21.805  0.00  0.00    +0.002 A 
ATOM     24  C   UNL     1      11.029   9.445  21.812  0.00  0.00    +0.002 A 
ATOM     25  C   UNL     1      10.716   8.241  22.444  0.00  0.00    +0.000 A 
ENDBRANCH   1  20
ENDBRANCH   8   1
ENDBRANCH  18   8
ENDBRANCH  12  18
TORSDOF 7
ENDMDL
MODEL 2
REMARK VINA RESULT:      -6.6      1.985      2.858
REMARK  Name = 75536830
REMARK  8 active torsions:
REMARK  status: ('A' for Active; 'I' for Inactive)
REMARK    1  A    between atoms: S_1  and  N_8
REMARK    2  A    between atoms: S_1  and  C_20
REMARK    3  A    between atoms: O_3  and  C_11
REMARK    4  A    between atoms: N_6  and  C_9
REMARK    5  A    between atoms: N_6  and  C_10
REMARK    6  A    between atoms: N_7  and  C_19
REMARK    7  A    between atoms: N_8  and  C_18
REMARK    8  A    between atoms: C_12  and  C_18
REMARK                            x       y       z     vdW  Elec       q    Type
REMARK                         _______ _______ _______ _____ _____    ______ ____
ROOT
ATOM      2  O   UNL     1      16.438   5.779  19.325  0.00  0.00    -0.371 OA
ATOM      9  C   UNL     1      18.649   5.897  20.186  0.00  0.00    +0.111 C 
ATOM     11  C   UNL     1      17.736   6.750  21.048  0.00  0.00    +0.164 C 
ATOM     12  C   UNL     1      16.375   6.154  20.711  0.00  0.00    +0.164 C 
ATOM     15  C   UNL     1      17.819   5.751  18.921  0.00  0.00    +0.181 C 
ENDROOT
BRANCH  11   3
ATOM      3  O   UNL     1      18.031   6.643  22.426  0.00  0.00    -0.388 OA
ATOM     27  H   UNL     1      18.793   6.048  22.531  0.00  0.00    +0.210 HD
ENDBRANCH  11   3
BRANCH   9   6
ATOM      6  N   UNL     1      19.950   6.499  19.942  0.00  0.00    -0.306 NA
ATOM     26  H   UNL     1      19.965   7.457  20.287  0.00  0.00    +0.123 HD
BRANCH   6  10
ATOM      7  N   UNL     1      21.876   3.941  22.737  0.00  0.00    -0.305 NA
ATOM     10  C   UNL     1      21.009   5.722  20.583  0.00  0.00    +0.056 C 
ATOM     13  C   UNL     1      20.630   4.239  20.620  0.00  0.00    +0.034 C 
ATOM     14  C   UNL     1      21.276   6.227  22.003  0.00  0.00    +0.034 C 
ATOM     16  C   UNL     1      21.681   3.422  21.376  0.00  0.00    +0.085 C 
ATOM     17  C   UNL     1      22.306   5.346  22.715  0.00  0.00    +0.085 C 
ATOM     19  C   UNL     1      22.845   3.121  23.464  0.00  0.00    +0.104 C 
ENDBRANCH   6  10
ENDBRANCH   9   6
BRANCH  12  18
ATOM     18  C   UNL     1      15.226   7.122  20.928  0.00  0.00    +0.140 C 
BRANCH  18   8
ATOM      8  N   UNL     1      13.954   6.376  20.993  0.00  0.00    -0.187 NA
ATOM     28  H   UNL     1      13.993   5.400  20.673  0.00  0.00    +0.148 HD
BRANCH   8   1
ATOM      1  S   UNL     1      12.473   7.205  20.884  0.00  0.00    +0.058 S 
ATOM      4  O   UNL     1      12.314   8.058  22.046  0.00  0.00    -0.153 OA
ATOM      5  O   UNL     1      11.431   6.263  20.523  0.00  0.00    -0.153 OA
BRANCH   1  20
ATOM     20  C   UNL     1      12.741   8.243  19.478  0.00  0.00    +0.105 A 
ATOM     21  C   UNL     1      12.942   9.612  19.651  0.00  0.00    +0.028 A 
ATOM     22  C   UNL     1      12.748   7.693  18.196  0.00  0.00    +0.028 A 
ATOM     23  C   UNL     1      13.148  10.432  18.542  0.00  0.00    +0.002 A 
ATOM     24  C   UNL     1      12.955   8.513  17.088  0.00  0.00    +0.002 A 
ATOM     25  C   UNL     1      13.155   9.883  17.261  0.00  0.00    +0.000 A 
ENDBRANCH   1  20
ENDBRANCH   8   1
ENDBRANCH  18   8
ENDBRANCH  12  18
TORSDOF 7
ENDMDL
MODEL 3
REMARK VINA RESULT:      -6.4     26.612     29.979
REMARK  Name = 75536830
REMARK  8 active torsions:
REMARK  status: ('A' for Active; 'I' for Inactive)
REMARK    1  A    between atoms: S_1  and  N_8
REMARK    2  A    between atoms: S_1  and  C_20
REMARK    3  A    between atoms: O_3  and  C_11
REMARK    4  A    between atoms: N_6  and  C_9
REMARK    5  A    between atoms: N_6  and  C_10
REMARK    6  A    between atoms: N_7  and  C_19
REMARK    7  A    between atoms: N_8  and  C_18
REMARK    8  A    between atoms: C_12  and  C_18
REMARK                            x       y       z     vdW  Elec       q    Type
REMARK                         _______ _______ _______ _____ _____    ______ ____
ROOT
ATOM      2  O   UNL     1      -5.994 -11.616  18.225  0.00  0.00    -0.371 OA
ATOM      9  C   UNL     1      -7.701 -10.158  17.447  0.00  0.00    +0.111 C 
ATOM     11  C   UNL     1      -6.391  -9.793  16.772  0.00  0.00    +0.164 C 
ATOM     12  C   UNL     1      -5.599 -11.082  16.951  0.00  0.00    +0.164 C 
ATOM     15  C   UNL     1      -7.210 -10.966  18.637  0.00  0.00    +0.181 C 
ENDROOT
BRANCH  11   3
ATOM      3  O   UNL     1      -6.555  -9.460  15.408  0.00  0.00    -0.388 OA
ATOM     27  H   UNL     1      -7.505  -9.344  15.233  0.00  0.00    +0.210 HD
ENDBRANCH  11   3
BRANCH   9   6
ATOM      6  N   UNL     1      -8.498  -9.007  17.835  0.00  0.00    -0.306 NA
ATOM     26  H   UNL     1      -7.966  -8.149  17.700  0.00  0.00    +0.123 HD
BRANCH   6  10
ATOM      7  N   UNL     1     -12.273  -7.618  16.459  0.00  0.00    -0.305 NA
ATOM     10  C   UNL     1      -9.738  -8.950  17.063  0.00  0.00    +0.056 C 
ATOM     13  C   UNL     1      -9.806  -7.647  16.264  0.00  0.00    +0.034 C 
ATOM     14  C   UNL     1     -10.959  -9.065  17.978  0.00  0.00    +0.034 C 
ATOM     16  C   UNL     1     -11.142  -7.523  15.526  0.00  0.00    +0.085 C 
ATOM     17  C   UNL     1     -12.258  -8.896  17.185  0.00  0.00    +0.085 C 
ATOM     19  C   UNL     1     -13.539  -7.449  15.748  0.00  0.00    +0.104 C 
ENDBRANCH   6  10
ENDBRANCH   9   6
BRANCH  12  18
ATOM     18  C   UNL     1      -4.096 -10.870  16.927  0.00  0.00    +0.140 C 
BRANCH  18   8
ATOM      8  N   UNL     1      -3.697 -10.296  15.627  0.00  0.00    -0.187 NA
ATOM     28  H   UNL     1      -4.432  -9.787  15.120  0.00  0.00    +0.148 HD
BRANCH   8   1
ATOM      1  S   UNL     1      -2.441 -11.010  14.729  0.00  0.00    +0.058 S 
ATOM      4  O   UNL     1      -2.594 -12.452  14.753  0.00  0.00    -0.153 OA
ATOM      5  O   UNL     1      -1.181 -10.404  15.118  0.00  0.00    -0.153 OA
BRANCH   1  20
ATOM     20  C   UNL     1      -2.801 -10.450  13.092  0.00  0.00    +0.105 A 
ATOM     21  C   UNL     1      -4.120 -10.421  12.640  0.00  0.00    +0.028 A 
ATOM     22  C   UNL     1      -1.766 -10.040  12.251  0.00  0.00    +0.028 A 
ATOM     23  C   UNL     1      -4.404  -9.984  11.346  0.00  0.00    +0.002 A 
ATOM     24  C   UNL     1      -2.050  -9.602  10.958  0.00  0.00    +0.002 A 
ATOM     25  C   UNL     1      -3.370  -9.574  10.505  0.00  0.00    +0.000 A 
ENDBRANCH   1  20
ENDBRANCH   8   1
ENDBRANCH  18   8
ENDBRANCH  12  18
TORSDOF 7
ENDMDL
MODEL 4
REMARK VINA RESULT:      -6.2     26.680     30.148
REMARK  Name = 75536830
REMARK  8 active torsions:
REMARK  status: ('A' for Active; 'I' for Inactive)
REMARK    1  A    between atoms: S_1  and  N_8
REMARK    2  A    between atoms: S_1  and  C_20
REMARK    3  A    between atoms: O_3  and  C_11
REMARK    4  A    between atoms: N_6  and  C_9
REMARK    5  A    between atoms: N_6  and  C_10
REMARK    6  A    between atoms: N_7  and  C_19
REMARK    7  A    between atoms: N_8  and  C_18
REMARK    8  A    between atoms: C_12  and  C_18
REMARK                            x       y       z     vdW  Elec       q    Type
REMARK                         _______ _______ _______ _____ _____    ______ ____
ROOT
ATOM      2  O   UNL     1      -5.858 -12.568  17.430  0.00  0.00    -0.371 OA
ATOM      9  C   UNL     1      -7.444 -10.808  17.611  0.00  0.00    +0.111 C 
ATOM     11  C   UNL     1      -6.098 -10.224  17.221  0.00  0.00    +0.164 C 
ATOM     12  C   UNL     1      -5.400 -11.451  16.649  0.00  0.00    +0.164 C 
ATOM     15  C   UNL     1      -7.035 -12.168  18.155  0.00  0.00    +0.181 C 
ENDROOT
BRANCH  11   3
ATOM      3  O   UNL     1      -6.210  -9.188  16.265  0.00  0.00    -0.388 OA
ATOM     27  H   UNL     1      -6.612  -8.415  16.697  0.00  0.00    +0.210 HD
ENDBRANCH  11   3
BRANCH   9   6
ATOM      6  N   UNL     1      -8.168 -10.005  18.583  0.00  0.00    -0.306 NA
ATOM     26  H   UNL     1      -8.024  -9.014  18.397  0.00  0.00    +0.123 HD
BRANCH   6  10
ATOM      7  N   UNL     1     -12.327  -9.707  19.407  0.00  0.00    -0.305 NA
ATOM     10  C   UNL     1      -9.595 -10.317  18.552  0.00  0.00    +0.056 C 
ATOM     13  C   UNL     1     -10.384  -9.134  17.985  0.00  0.00    +0.034 C 
ATOM     14  C   UNL     1     -10.110 -10.665  19.951  0.00  0.00    +0.034 C 
ATOM     16  C   UNL     1     -11.890  -9.402  18.038  0.00  0.00    +0.085 C 
ATOM     17  C   UNL     1     -11.625 -10.884  19.940  0.00  0.00    +0.085 C 
ATOM     19  C   UNL     1     -13.774  -9.911  19.450  0.00  0.00    +0.104 C 
ENDBRANCH   6  10
ENDBRANCH   9   6
BRANCH  12  18
ATOM     18  C   UNL     1      -3.886 -11.366  16.714  0.00  0.00    +0.140 C 
BRANCH  18   8
ATOM      8  N   UNL     1      -3.404 -10.365  15.743  0.00  0.00    -0.187 NA
ATOM     28  H   UNL     1      -4.099  -9.674  15.432  0.00  0.00    +0.148 HD
BRANCH   8   1
ATOM      1  S   UNL     1      -2.114 -10.741  14.700  0.00  0.00    +0.058 S 
ATOM      4  O   UNL     1      -1.837 -12.163  14.773  0.00  0.00    -0.153 OA
ATOM      5  O   UNL     1      -1.047  -9.779  14.903  0.00  0.00    -0.153 OA
BRANCH   1  20
ATOM     20  C   UNL     1      -2.819 -10.403  13.115  0.00  0.00    +0.105 A 
ATOM     21  C   UNL     1      -1.992 -10.103  12.034  0.00  0.00    +0.028 A 
ATOM     22  C   UNL     1      -4.204 -10.433  12.947  0.00  0.00    +0.028 A 
ATOM     23  C   UNL     1      -2.549  -9.832  10.784  0.00  0.00    +0.002 A 
ATOM     24  C   UNL     1      -4.760 -10.164  11.697  0.00  0.00    +0.002 A 
ATOM     25  C   UNL     1      -3.932  -9.862  10.615  0.00  0.00    +0.000 A 
ENDBRANCH   1  20
ENDBRANCH   8   1
ENDBRANCH  18   8
ENDBRANCH  12  18
TORSDOF 7
ENDMDL
MODEL 5
REMARK VINA RESULT:      -6.1      3.488      9.621
REMARK  Name = 75536830
REMARK  8 active torsions:
REMARK  status: ('A' for Active; 'I' for Inactive)
REMARK    1  A    between atoms: S_1  and  N_8
REMARK    2  A    between atoms: S_1  and  C_20
REMARK    3  A    between atoms: O_3  and  C_11
REMARK    4  A    between atoms: N_6  and  C_9
REMARK    5  A    between atoms: N_6  and  C_10
REMARK    6  A    between atoms: N_7  and  C_19
REMARK    7  A    between atoms: N_8  and  C_18
REMARK    8  A    between atoms: C_12  and  C_18
REMARK                            x       y       z     vdW  Elec       q    Type
REMARK                         _______ _______ _______ _____ _____    ______ ____
ROOT
ATOM      2  O   UNL     1      18.025   5.944  19.355  0.00  0.00    -0.371 OA
ATOM      9  C   UNL     1      16.709   7.161  20.914  0.00  0.00    +0.111 C 
ATOM     11  C   UNL     1      18.029   6.789  21.564  0.00  0.00    +0.164 C 
ATOM     12  C   UNL     1      18.896   6.527  20.339  0.00  0.00    +0.164 C 
ATOM     15  C   UNL     1      16.662   6.185  19.749  0.00  0.00    +0.181 C 
ENDROOT
BRANCH  11   3
ATOM      3  O   UNL     1      18.553   7.828  22.367  0.00  0.00    -0.388 OA
ATOM     27  H   UNL     1      18.514   7.546  23.297  0.00  0.00    +0.210 HD
ENDBRANCH  11   3
BRANCH   9   6
ATOM      6  N   UNL     1      15.566   7.035  21.803  0.00  0.00    -0.306 NA
ATOM     26  H   UNL     1      15.866   7.100  22.774  0.00  0.00    +0.123 HD
BRANCH   6  10
ATOM      7  N   UNL     1      12.376   9.772  22.434  0.00  0.00    -0.305 NA
ATOM     10  C   UNL     1      14.572   8.068  21.519  0.00  0.00    +0.056 C 
ATOM     13  C   UNL     1      14.803   9.286  22.416  0.00  0.00    +0.034 C 
ATOM     14  C   UNL     1      13.152   7.533  21.721  0.00  0.00    +0.034 C 
ATOM     16  C   UNL     1      13.712  10.339  22.205  0.00  0.00    +0.085 C 
ATOM     17  C   UNL     1      12.114   8.643  21.531  0.00  0.00    +0.085 C 
ATOM     19  C   UNL     1      11.348  10.801  22.277  0.00  0.00    +0.104 C 
ENDBRANCH   6  10
ENDBRANCH   9   6
BRANCH  12  18
ATOM     18  C   UNL     1      20.057   5.590  20.615  0.00  0.00    +0.140 C 
BRANCH  18   8
ATOM      8  N   UNL     1      21.206   6.362  21.129  0.00  0.00    -0.187 NA
ATOM     28  H   UNL     1      21.606   7.051  20.479  0.00  0.00    +0.148 HD
BRANCH   8   1
ATOM      1  S   UNL     1      22.216   5.694  22.323  0.00  0.00    +0.058 S 
ATOM      4  O   UNL     1      21.406   4.979  23.291  0.00  0.00    -0.153 OA
ATOM      5  O   UNL     1      23.156   6.707  22.766  0.00  0.00    -0.153 OA
BRANCH   1  20
ATOM     20  C   UNL     1      23.137   4.503  21.396  0.00  0.00    +0.105 A 
ATOM     21  C   UNL     1      22.959   3.142  21.640  0.00  0.00    +0.028 A 
ATOM     22  C   UNL     1      24.043   4.926  20.424  0.00  0.00    +0.028 A 
ATOM     23  C   UNL     1      23.689   2.202  20.912  0.00  0.00    +0.002 A 
ATOM     24  C   UNL     1      24.772   3.987  19.696  0.00  0.00    +0.002 A 
ATOM     25  C   UNL     1      24.595   2.624  19.940  0.00  0.00    +0.000 A 
ENDBRANCH   1  20
ENDBRANCH   8   1
ENDBRANCH  18   8
ENDBRANCH  12  18
TORSDOF 7
ENDMDL
MODEL 6
REMARK VINA RESULT:      -6.1     28.586     31.983
REMARK  Name = 75536830
REMARK  8 active torsions:
REMARK  status: ('A' for Active; 'I' for Inactive)
REMARK    1  A    between atoms: S_1  and  N_8
REMARK    2  A    between atoms: S_1  and  C_20
REMARK    3  A    between atoms: O_3  and  C_11
REMARK    4  A    between atoms: N_6  and  C_9
REMARK    5  A    between atoms: N_6  and  C_10
REMARK    6  A    between atoms: N_7  and  C_19
REMARK    7  A    between atoms: N_8  and  C_18
REMARK    8  A    between atoms: C_12  and  C_18
REMARK                            x       y       z     vdW  Elec       q    Type
REMARK                         _______ _______ _______ _____ _____    ______ ____
ROOT
ATOM      2  O   UNL     1     -16.601   5.381  22.628  0.00  0.00    -0.371 OA
ATOM      9  C   UNL     1     -14.726   6.169  21.400  0.00  0.00    +0.111 C 
ATOM     11  C   UNL     1     -14.236   5.415  22.623  0.00  0.00    +0.164 C 
ATOM     12  C   UNL     1     -15.460   4.572  22.957  0.00  0.00    +0.164 C 
ATOM     15  C   UNL     1     -16.167   6.465  21.787  0.00  0.00    +0.181 C 
ENDROOT
BRANCH  11   3
ATOM      3  O   UNL     1     -13.103   4.614  22.351  0.00  0.00    -0.388 OA
ATOM     27  H   UNL     1     -13.224   3.754  22.789  0.00  0.00    +0.210 HD
ENDBRANCH  11   3
BRANCH   9   6
ATOM      6  N   UNL     1     -13.961   7.370  21.111  0.00  0.00    -0.306 NA
ATOM     26  H   UNL     1     -13.272   7.534  21.843  0.00  0.00    +0.123 HD
BRANCH   6  10
ATOM      7  N   UNL     1     -11.444   8.359  17.831  0.00  0.00    -0.305 NA
ATOM     10  C   UNL     1     -13.294   7.260  19.815  0.00  0.00    +0.056 C 
ATOM     13  C   UNL     1     -11.775   7.218  20.002  0.00  0.00    +0.034 C 
ATOM     14  C   UNL     1     -13.675   8.429  18.902  0.00  0.00    +0.034 C 
ATOM     16  C   UNL     1     -11.055   7.203  18.651  0.00  0.00    +0.085 C 
ATOM     17  C   UNL     1     -12.893   8.375  17.586  0.00  0.00    +0.085 C 
ATOM     19  C   UNL     1     -10.711   8.358  16.565  0.00  0.00    +0.104 C 
ENDBRANCH   6  10
ENDBRANCH   9   6
BRANCH  12  18
ATOM     18  C   UNL     1     -15.526   4.163  24.418  0.00  0.00    +0.140 C 
BRANCH  18   8
ATOM      8  N   UNL     1     -15.605   2.692  24.517  0.00  0.00    -0.187 NA
ATOM     28  H   UNL     1     -15.122   2.168  23.776  0.00  0.00    +0.148 HD
BRANCH   8   1
ATOM      1  S   UNL     1     -16.931   1.961  25.293  0.00  0.00    +0.058 S 
ATOM      4  O   UNL     1     -16.969   0.551  24.951  0.00  0.00    -0.153 OA
ATOM      5  O   UNL     1     -18.105   2.790  25.102  0.00  0.00    -0.153 OA
BRANCH   1  20
ATOM     20  C   UNL     1     -16.474   2.095  26.996  0.00  0.00    +0.105 A 
ATOM     21  C   UNL     1     -16.500   0.968  27.815  0.00  0.00    +0.028 A 
ATOM     22  C   UNL     1     -16.091   3.331  27.519  0.00  0.00    +0.028 A 
ATOM     23  C   UNL     1     -16.145   1.075  29.160  0.00  0.00    +0.002 A 
ATOM     24  C   UNL     1     -15.734   3.437  28.863  0.00  0.00    +0.002 A 
ATOM     25  C   UNL     1     -15.761   2.309  29.684  0.00  0.00    +0.000 A 
ENDBRANCH   1  20
ENDBRANCH   8   1
ENDBRANCH  18   8
ENDBRANCH  12  18
TORSDOF 7
ENDMDL
MODEL 7
REMARK VINA RESULT:      -6.1      3.997      9.915
REMARK  Name = 75536830
REMARK  8 active torsions:
REMARK  status: ('A' for Active; 'I' for Inactive)
REMARK    1  A    between atoms: S_1  and  N_8
REMARK    2  A    between atoms: S_1  and  C_20
REMARK    3  A    between atoms: O_3  and  C_11
REMARK    4  A    between atoms: N_6  and  C_9
REMARK    5  A    between atoms: N_6  and  C_10
REMARK    6  A    between atoms: N_7  and  C_19
REMARK    7  A    between atoms: N_8  and  C_18
REMARK    8  A    between atoms: C_12  and  C_18
REMARK                            x       y       z     vdW  Elec       q    Type
REMARK                         _______ _______ _______ _____ _____    ______ ____
ROOT
ATOM      2  O   UNL     1      20.464   5.996  20.563  0.00  0.00    -0.371 OA
ATOM      9  C   UNL     1      18.352   6.850  21.236  0.00  0.00    +0.111 C 
ATOM     11  C   UNL     1      19.357   7.078  22.351  0.00  0.00    +0.164 C 
ATOM     12  C   UNL     1      20.671   6.984  21.586  0.00  0.00    +0.164 C 
ATOM     15  C   UNL     1      19.050   5.775  20.418  0.00  0.00    +0.181 C 
ENDROOT
BRANCH  11   3
ATOM      3  O   UNL     1      19.201   8.336  22.977  0.00  0.00    -0.388 OA
ATOM     27  H   UNL     1      18.481   8.813  22.530  0.00  0.00    +0.210 HD
ENDBRANCH  11   3
BRANCH   9   6
ATOM      6  N   UNL     1      17.040   6.440  21.708  0.00  0.00    -0.306 NA
ATOM     26  H   UNL     1      16.983   6.541  22.720  0.00  0.00    +0.123 HD
BRANCH   6  10
ATOM      7  N   UNL     1      13.280   7.397  19.973  0.00  0.00    -0.305 NA
ATOM     10  C   UNL     1      15.989   7.227  21.067  0.00  0.00    +0.056 C 
ATOM     13  C   UNL     1      14.748   7.281  21.962  0.00  0.00    +0.034 C 
ATOM     14  C   UNL     1      15.622   6.642  19.701  0.00  0.00    +0.034 C 
ATOM     16  C   UNL     1      13.600   8.017  21.266  0.00  0.00    +0.085 C 
ATOM     17  C   UNL     1      14.446   7.400  19.078  0.00  0.00    +0.085 C 
ATOM     19  C   UNL     1      12.150   8.080  19.343  0.00  0.00    +0.104 C 
ENDBRANCH   6  10
ENDBRANCH   9   6
BRANCH  12  18
ATOM     18  C   UNL     1      21.846   6.582  22.458  0.00  0.00    +0.140 C 
BRANCH  18   8
ATOM      8  N   UNL     1      21.665   5.193  22.924  0.00  0.00    -0.187 NA
ATOM     28  H   UNL     1      20.692   4.868  22.991  0.00  0.00    +0.148 HD
BRANCH   8   1
ATOM      1  S   UNL     1      22.830   4.474  23.933  0.00  0.00    +0.058 S 
ATOM      4  O   UNL     1      22.172   3.910  25.097  0.00  0.00    -0.153 OA
ATOM      5  O   UNL     1      23.943   5.390  24.096  0.00  0.00    -0.153 OA
BRANCH   1  20
ATOM     20  C   UNL     1      23.403   3.136  22.930  0.00  0.00    +0.105 A 
ATOM     21  C   UNL     1      23.246   3.187  21.545  0.00  0.00    +0.028 A 
ATOM     22  C   UNL     1      24.008   2.028  23.524  0.00  0.00    +0.028 A 
ATOM     23  C   UNL     1      23.694   2.129  20.754  0.00  0.00    +0.002 A 
ATOM     24  C   UNL     1      24.457   0.972  22.732  0.00  0.00    +0.002 A 
ATOM     25  C   UNL     1      24.299   1.022  21.347  0.00  0.00    +0.000 A 
ENDBRANCH   1  20
ENDBRANCH   8   1
ENDBRANCH  18   8
ENDBRANCH  12  18
TORSDOF 7
ENDMDL
MODEL 8
REMARK VINA RESULT:      -6.0     28.418     31.207
REMARK  Name = 75536830
REMARK  8 active torsions:
REMARK  status: ('A' for Active; 'I' for Inactive)
REMARK    1  A    between atoms: S_1  and  N_8
REMARK    2  A    between atoms: S_1  and  C_20
REMARK    3  A    between atoms: O_3  and  C_11
REMARK    4  A    between atoms: N_6  and  C_9
REMARK    5  A    between atoms: N_6  and  C_10
REMARK    6  A    between atoms: N_7  and  C_19
REMARK    7  A    between atoms: N_8  and  C_18
REMARK    8  A    between atoms: C_12  and  C_18
REMARK                            x       y       z     vdW  Elec       q    Type
REMARK                         _______ _______ _______ _____ _____    ______ ____
ROOT
ATOM      2  O   UNL     1     -10.162 -12.784  18.575  0.00  0.00    -0.371 OA
ATOM      9  C   UNL     1      -8.688 -11.296  19.695  0.00  0.00    +0.111 C 
ATOM     11  C   UNL     1     -10.078 -10.686  19.664  0.00  0.00    +0.164 C 
ATOM     12  C   UNL     1     -10.935 -11.923  19.427  0.00  0.00    +0.164 C 
ATOM     15  C   UNL     1      -8.793 -12.341  18.597  0.00  0.00    +0.181 C 
ENDROOT
BRANCH  11   3
ATOM      3  O   UNL     1     -10.415 -10.035  20.872  0.00  0.00    -0.388 OA
ATOM     27  H   UNL     1      -9.674  -9.461  21.128  0.00  0.00    +0.210 HD
ENDBRANCH  11   3
BRANCH   9   6
ATOM      6  N   UNL     1      -7.624 -10.334  19.461  0.00  0.00    -0.306 NA
ATOM     26  H   UNL     1      -7.086 -10.189  20.314  0.00  0.00    +0.123 HD
BRANCH   6  10
ATOM      7  N   UNL     1      -4.358 -10.374  16.741  0.00  0.00    -0.305 NA
ATOM     10  C   UNL     1      -6.742 -10.786  18.387  0.00  0.00    +0.056 C 
ATOM     13  C   UNL     1      -5.328 -11.020  18.925  0.00  0.00    +0.034 C 
ATOM     14  C   UNL     1      -6.705  -9.769  17.244  0.00  0.00    +0.034 C 
ATOM     16  C   UNL     1      -4.367 -11.398  17.795  0.00  0.00    +0.085 C 
ATOM     17  C   UNL     1      -5.699 -10.188  16.168  0.00  0.00    +0.085 C 
ATOM     19  C   UNL     1      -3.399 -10.725  15.694  0.00  0.00    +0.104 C 
ENDBRANCH   6  10
ENDBRANCH   9   6
BRANCH  12  18
ATOM     18  C   UNL     1     -12.267 -11.612  18.769  0.00  0.00    +0.140 C 
BRANCH  18   8
ATOM      8  N   UNL     1     -12.404 -10.154  18.590  0.00  0.00    -0.187 NA
ATOM     28  H   UNL     1     -12.297  -9.588  19.441  0.00  0.00    +0.148 HD
BRANCH   8   1
ATOM      1  S   UNL     1     -13.354  -9.536  17.321  0.00  0.00    +0.058 S 
ATOM      4  O   UNL     1     -14.550  -8.926  17.871  0.00  0.00    -0.153 OA
ATOM      5  O   UNL     1     -13.460 -10.539  16.279  0.00  0.00    -0.153 OA
BRANCH   1  20
ATOM     20  C   UNL     1     -12.323  -8.244  16.693  0.00  0.00    +0.105 A 
ATOM     21  C   UNL     1     -12.893  -7.164  16.019  0.00  0.00    +0.028 A 
ATOM     22  C   UNL     1     -10.941  -8.308  16.867  0.00  0.00    +0.028 A 
ATOM     23  C   UNL     1     -12.080  -6.147  15.519  0.00  0.00    +0.002 A 
ATOM     24  C   UNL     1     -10.128  -7.291  16.367  0.00  0.00    +0.002 A 
ATOM     25  C   UNL     1     -10.698  -6.210  15.693  0.00  0.00    +0.000 A 
ENDBRANCH   1  20
ENDBRANCH   8   1
ENDBRANCH  18   8
ENDBRANCH  12  18
TORSDOF 7
ENDMDL
MODEL 9
REMARK VINA RESULT:      -6.0     27.372     29.917
REMARK  Name = 75536830
REMARK  8 active torsions:
REMARK  status: ('A' for Active; 'I' for Inactive)
REMARK    1  A    between atoms: S_1  and  N_8
REMARK    2  A    between atoms: S_1  and  C_20
REMARK    3  A    between atoms: O_3  and  C_11
REMARK    4  A    between atoms: N_6  and  C_9
REMARK    5  A    between atoms: N_6  and  C_10
REMARK    6  A    between atoms: N_7  and  C_19
REMARK    7  A    between atoms: N_8  and  C_18
REMARK    8  A    between atoms: C_12  and  C_18
REMARK                            x       y       z     vdW  Elec       q    Type
REMARK                         _______ _______ _______ _____ _____    ______ ____
ROOT
ATOM      2  O   UNL     1      -6.968 -13.128  18.280  0.00  0.00    -0.371 OA
ATOM      9  C   UNL     1      -5.442 -11.307  18.283  0.00  0.00    +0.111 C 
ATOM     11  C   UNL     1      -6.745 -10.863  18.923  0.00  0.00    +0.164 C 
ATOM     12  C   UNL     1      -7.353 -12.204  19.311  0.00  0.00    +0.164 C 
ATOM     15  C   UNL     1      -5.886 -12.549  17.527  0.00  0.00    +0.181 C 
ENDROOT
BRANCH  11   3
ATOM      3  O   UNL     1      -6.544 -10.030  20.047  0.00  0.00    -0.388 OA
ATOM     27  H   UNL     1      -6.451 -10.595  20.834  0.00  0.00    +0.210 HD
ENDBRANCH  11   3
BRANCH   9   6
ATOM      6  N   UNL     1      -4.845 -10.302  17.419  0.00  0.00    -0.306 NA
ATOM     26  H   UNL     1      -4.141  -9.772  17.930  0.00  0.00    +0.123 HD
BRANCH   6  10
ATOM      7  N   UNL     1      -2.700 -10.667  13.768  0.00  0.00    -0.305 NA
ATOM     10  C   UNL     1      -4.244 -10.923  16.240  0.00  0.00    +0.056 C 
ATOM     13  C   UNL     1      -2.729 -10.708  16.242  0.00  0.00    +0.034 C 
ATOM     14  C   UNL     1      -4.850 -10.356  14.953  0.00  0.00    +0.034 C 
ATOM     16  C   UNL     1      -2.093 -11.264  14.965  0.00  0.00    +0.085 C 
ATOM     17  C   UNL     1      -4.146 -10.924  13.718  0.00  0.00    +0.085 C 
ATOM     19  C   UNL     1      -2.049 -11.170  12.558  0.00  0.00    +0.104 C 
ENDBRANCH   6  10
ENDBRANCH   9   6
BRANCH  12  18
ATOM     18  C   UNL     1      -8.867 -12.166  19.426  0.00  0.00    +0.140 C 
BRANCH  18   8
ATOM      8  N   UNL     1      -9.370 -10.875  18.919  0.00  0.00    -0.187 NA
ATOM     28  H   UNL     1      -8.685 -10.109  18.892  0.00  0.00    +0.148 HD
BRANCH   8   1
ATOM      1  S   UNL     1     -11.017 -10.481  19.074  0.00  0.00    +0.058 S 
ATOM      4  O   UNL     1     -11.252  -9.910  20.387  0.00  0.00    -0.153 OA
ATOM      5  O   UNL     1     -11.815 -11.601  18.613  0.00  0.00    -0.153 OA
BRANCH   1  20
ATOM     20  C   UNL     1     -11.197  -9.191  17.879  0.00  0.00    +0.105 A 
ATOM     21  C   UNL     1     -10.102  -8.397  17.542  0.00  0.00    +0.028 A 
ATOM     22  C   UNL     1     -12.435  -8.966  17.277  0.00  0.00    +0.028 A 
ATOM     23  C   UNL     1     -10.244  -7.376  16.602  0.00  0.00    +0.002 A 
ATOM     24  C   UNL     1     -12.576  -7.946  16.336  0.00  0.00    +0.002 A 
ATOM     25  C   UNL     1     -11.481  -7.150  15.999  0.00  0.00    +0.000 A 
ENDBRANCH   1  20
ENDBRANCH   8   1
ENDBRANCH  18   8
ENDBRANCH  12  18
TORSDOF 7
ENDMDL
MODEL 10
REMARK VINA RESULT:      -6.0     27.495     30.593
REMARK  Name = 75536830
REMARK  8 active torsions:
REMARK  status: ('A' for Active; 'I' for Inactive)
REMARK    1  A    between atoms: S_1  and  N_8
REMARK    2  A    between atoms: S_1  and  C_20
REMARK    3  A    between atoms: O_3  and  C_11
REMARK    4  A    between atoms: N_6  and  C_9
REMARK    5  A    between atoms: N_6  and  C_10
REMARK    6  A    between atoms: N_7  and  C_19
REMARK    7  A    between atoms: N_8  and  C_18
REMARK    8  A    between atoms: C_12  and  C_18
REMARK                            x       y       z     vdW  Elec       q    Type
REMARK                         _______ _______ _______ _____ _____    ______ ____
ROOT
ATOM      2  O   UNL     1      -4.946 -11.675  18.876  0.00  0.00    -0.371 OA
ATOM      9  C   UNL     1      -7.274 -11.207  18.950  0.00  0.00    +0.111 C 
ATOM     11  C   UNL     1      -6.638 -10.382  17.845  0.00  0.00    +0.164 C 
ATOM     12  C   UNL     1      -5.356 -11.166  17.595  0.00  0.00    +0.164 C 
ATOM     15  C   UNL     1      -6.059 -11.581  19.783  0.00  0.00    +0.181 C 
ENDROOT
BRANCH  11   3
ATOM      3  O   UNL     1      -7.444 -10.309  16.686  0.00  0.00    -0.388 OA
ATOM     27  H   UNL     1      -8.371 -10.440  16.949  0.00  0.00    +0.210 HD
ENDBRANCH  11   3
BRANCH   9   6
ATOM      6  N   UNL     1      -8.281 -10.485  19.710  0.00  0.00    -0.306 NA
ATOM     26  H   UNL     1      -8.296  -9.505  19.432  0.00  0.00    +0.123 HD
BRANCH   6  10
ATOM      7  N   UNL     1     -12.070 -12.164  20.653  0.00  0.00    -0.305 NA
ATOM     10  C   UNL     1      -9.602 -11.079  19.515  0.00  0.00    +0.056 C 
ATOM     13  C   UNL     1     -10.681 -10.183  20.130  0.00  0.00    +0.034 C 
ATOM     14  C   UNL     1      -9.671 -12.478  20.133  0.00  0.00    +0.034 C 
ATOM     16  C   UNL     1     -12.062 -10.836  20.024  0.00  0.00    +0.085 C 
ATOM     17  C   UNL     1     -11.084 -13.056  20.027  0.00  0.00    +0.085 C 
ATOM     19  C   UNL     1     -13.407 -12.753  20.589  0.00  0.00    +0.104 C 
ENDBRANCH   6  10
ENDBRANCH   9   6
BRANCH  12  18
ATOM     18  C   UNL     1      -4.244 -10.323  16.999  0.00  0.00    +0.140 C 
BRANCH  18   8
ATOM      8  N   UNL     1      -4.531 -10.059  15.576  0.00  0.00    -0.187 NA
ATOM     28  H   UNL     1      -5.048  -9.192  15.379  0.00  0.00    +0.148 HD
BRANCH   8   1
ATOM      1  S   UNL     1      -4.672 -11.352  14.480  0.00  0.00    +0.058 S 
ATOM      4  O   UNL     1      -6.076 -11.604  14.214  0.00  0.00    -0.153 OA
ATOM      5  O   UNL     1      -3.806 -12.432  14.911  0.00  0.00    -0.153 OA
BRANCH   1  20
ATOM     20  C   UNL     1      -3.955 -10.667  13.016  0.00  0.00    +0.105 A 
ATOM     21  C   UNL     1      -2.574 -10.711  12.830  0.00  0.00    +0.028 A 
ATOM     22  C   UNL     1      -4.771 -10.078  12.050  0.00  0.00    +0.028 A 
ATOM     23  C   UNL     1      -2.008 -10.166  11.678  0.00  0.00    +0.002 A 
ATOM     24  C   UNL     1      -4.205  -9.535  10.897  0.00  0.00    +0.002 A 
ATOM     25  C   UNL     1      -2.823  -9.578  10.711  0.00  0.00    +0.000 A 
ENDBRANCH   1  20
ENDBRANCH   8   1
ENDBRANCH  18   8
ENDBRANCH  12  18
TORSDOF 7
ENDMDL
