MODEL 1
REMARK VINA RESULT:      -6.5      0.000      0.000
REMARK  Name = 40779277
REMARK  8 active torsions:
REMARK  status: ('A' for Active; 'I' for Inactive)
REMARK    1  A    between atoms: O_2  and  C_26
REMARK    2  A    between atoms: O_2  and  C_27
REMARK    3  A    between atoms: N_4  and  C_18
REMARK    4  A    between atoms: N_5  and  C_15
REMARK    5  A    between atoms: C_8  and  C_14
REMARK    6  A    between atoms: C_9  and  C_15
REMARK    7  A    between atoms: C_17  and  C_20
REMARK    8  A    between atoms: C_19  and  C_21
REMARK                            x       y       z     vdW  Elec       q    Type
REMARK                         _______ _______ _______ _____ _____    ______ ____
ROOT
ATOM      3  N   UNL     1      12.732   6.697  21.142  0.00  0.00    -0.297 NA
ATOM      7  C   UNL     1      11.467   8.867  20.452  0.00  0.00    +0.002 C 
ATOM      8  C   UNL     1      11.977   8.111  19.195  0.00  0.00    +0.055 C 
ATOM      9  C   UNL     1      13.249   7.855  21.918  0.00  0.00    +0.074 C 
ATOM     10  C   UNL     1      12.661   9.178  21.379  0.00  0.00    +0.024 C 
ATOM     11  C   UNL     1      10.544   7.892  21.213  0.00  0.00    +0.019 C 
ATOM     12  C   UNL     1      12.886   6.950  19.688  0.00  0.00    +0.094 C 
ATOM     13  C   UNL     1      11.286   6.562  21.438  0.00  0.00    +0.085 C 
ENDROOT
BRANCH   8  14
ATOM      4  N   UNL     1      12.026   9.159  16.883  0.00  0.00    -0.270 N 
ATOM      6  N   UNL     1      12.767   9.896  16.039  0.00  0.00    -0.171 NA
ATOM     14  C   UNL     1      12.629   8.923  18.083  0.00  0.00    +0.044 A 
ATOM     16  C   UNL     1      13.851   9.547  18.019  0.00  0.00    +0.053 A 
ATOM     17  C   UNL     1      13.881  10.130  16.739  0.00  0.00    +0.093 A 
ATOM     18  C   UNL     1      10.720   8.706  16.464  0.00  0.00    +0.172 C 
BRANCH  17  20
ATOM     20  C   UNL     1      14.954  10.904  16.170  0.00  0.00    +0.002 A 
ATOM     22  C   UNL     1      15.328  10.705  14.840  0.00  0.00    +0.013 A 
ATOM     23  C   UNL     1      15.620  11.851  16.947  0.00  0.00    +0.013 A 
ATOM     24  C   UNL     1      16.368  11.454  14.289  0.00  0.00    +0.046 A 
ATOM     25  C   UNL     1      16.660  12.600  16.396  0.00  0.00    +0.046 A 
ATOM     26  C   UNL     1      17.034  12.401  15.068  0.00  0.00    +0.120 A 
BRANCH  26   2
ATOM      2  O   UNL     1      18.049  13.132  14.531  0.00  0.00    -0.495 OA
ATOM     27  C   UNL     1      19.281  12.454  14.289  0.00  0.00    +0.277 C 
ENDBRANCH  26   2
ENDBRANCH  17  20
ENDBRANCH   8  14
BRANCH   9  15
ATOM     15  C   UNL     1      14.777   7.890  21.965  0.00  0.00    +0.123 C 
BRANCH  15   5
ATOM      1  O   UNL     1      17.239   8.400  20.514  0.00  0.00    -0.276 OA
ATOM      5  N   UNL     1      15.274   9.153  21.514  0.00  0.00    -0.314 N 
ATOM     19  C   UNL     1      16.472   9.308  20.820  0.00  0.00    +0.210 C 
ATOM     21  C   UNL     1      16.745  10.740  20.443  0.00  0.00    +0.109 C 
ATOM     28  H   UNL     1      14.732   9.982  21.743  0.00  0.00    +0.149 HD
ENDBRANCH  15   5
ENDBRANCH   9  15
TORSDOF 5
ENDMDL
MODEL 2
REMARK VINA RESULT:      -6.4     32.054     32.925
REMARK  Name = 40779277
REMARK  8 active torsions:
REMARK  status: ('A' for Active; 'I' for Inactive)
REMARK    1  A    between atoms: O_2  and  C_26
REMARK    2  A    between atoms: O_2  and  C_27
REMARK    3  A    between atoms: N_4  and  C_18
REMARK    4  A    between atoms: N_5  and  C_15
REMARK    5  A    between atoms: C_8  and  C_14
REMARK    6  A    between atoms: C_9  and  C_15
REMARK    7  A    between atoms: C_17  and  C_20
REMARK    8  A    between atoms: C_19  and  C_21
REMARK                            x       y       z     vdW  Elec       q    Type
REMARK                         _______ _______ _______ _____ _____    ______ ____
ROOT
ATOM      3  N   UNL     1     -15.562   3.407  33.525  0.00  0.00    -0.297 NA
ATOM      7  C   UNL     1     -14.137   4.824  31.868  0.00  0.00    +0.002 C 
ATOM      8  C   UNL     1     -15.649   4.964  31.542  0.00  0.00    +0.055 C 
ATOM      9  C   UNL     1     -14.466   2.577  32.958  0.00  0.00    +0.074 C 
ATOM     10  C   UNL     1     -13.741   3.334  31.823  0.00  0.00    +0.024 C 
ATOM     11  C   UNL     1     -13.950   5.300  33.325  0.00  0.00    +0.019 C 
ATOM     12  C   UNL     1     -16.412   3.942  32.432  0.00  0.00    +0.094 C 
ATOM     13  C   UNL     1     -14.943   4.553  34.233  0.00  0.00    +0.085 C 
ENDROOT
BRANCH   8  14
ATOM      4  N   UNL     1     -16.815   5.868  29.476  0.00  0.00    -0.270 N 
ATOM      6  N   UNL     1     -17.091   5.616  28.186  0.00  0.00    -0.171 NA
ATOM     14  C   UNL     1     -16.079   4.893  30.083  0.00  0.00    +0.044 A 
ATOM     16  C   UNL     1     -15.860   3.936  29.123  0.00  0.00    +0.053 A 
ATOM     17  C   UNL     1     -16.505   4.434  27.976  0.00  0.00    +0.093 A 
ATOM     18  C   UNL     1     -17.300   7.089  30.076  0.00  0.00    +0.172 C 
BRANCH  17  20
ATOM     20  C   UNL     1     -16.574   3.802  26.684  0.00  0.00    +0.002 A 
ATOM     22  C   UNL     1     -16.561   2.410  26.586  0.00  0.00    +0.013 A 
ATOM     23  C   UNL     1     -16.652   4.582  25.530  0.00  0.00    +0.013 A 
ATOM     24  C   UNL     1     -16.628   1.799  25.334  0.00  0.00    +0.046 A 
ATOM     25  C   UNL     1     -16.718   3.970  24.278  0.00  0.00    +0.046 A 
ATOM     26  C   UNL     1     -16.705   2.579  24.180  0.00  0.00    +0.120 A 
BRANCH  26   2
ATOM      2  O   UNL     1     -16.770   1.984  22.958  0.00  0.00    -0.495 OA
ATOM     27  C   UNL     1     -18.017   1.400  22.584  0.00  0.00    +0.277 C 
ENDBRANCH  26   2
ENDBRANCH  17  20
ENDBRANCH   8  14
BRANCH   9  15
ATOM     15  C   UNL     1     -14.954   1.200  32.502  0.00  0.00    +0.123 C 
BRANCH  15   5
ATOM      1  O   UNL     1     -15.654  -0.948  30.680  0.00  0.00    -0.276 OA
ATOM      5  N   UNL     1     -14.208   0.743  31.371  0.00  0.00    -0.314 N 
ATOM     19  C   UNL     1     -14.620  -0.301  30.545  0.00  0.00    +0.210 C 
ATOM     21  C   UNL     1     -13.660  -0.561  29.414  0.00  0.00    +0.109 C 
ATOM     28  H   UNL     1     -13.314   1.189  31.183  0.00  0.00    +0.149 HD
ENDBRANCH  15   5
ENDBRANCH   9  15
TORSDOF 5
ENDMDL
MODEL 3
REMARK VINA RESULT:      -6.4      4.295      6.332
REMARK  Name = 40779277
REMARK  8 active torsions:
REMARK  status: ('A' for Active; 'I' for Inactive)
REMARK    1  A    between atoms: O_2  and  C_26
REMARK    2  A    between atoms: O_2  and  C_27
REMARK    3  A    between atoms: N_4  and  C_18
REMARK    4  A    between atoms: N_5  and  C_15
REMARK    5  A    between atoms: C_8  and  C_14
REMARK    6  A    between atoms: C_9  and  C_15
REMARK    7  A    between atoms: C_17  and  C_20
REMARK    8  A    between atoms: C_19  and  C_21
REMARK                            x       y       z     vdW  Elec       q    Type
REMARK                         _______ _______ _______ _____ _____    ______ ____
ROOT
ATOM      3  N   UNL     1      11.803   8.670  22.047  0.00  0.00    -0.297 NA
ATOM      7  C   UNL     1      12.563   8.620  19.556  0.00  0.00    +0.002 C 
ATOM      8  C   UNL     1      13.167   7.419  20.333  0.00  0.00    +0.055 C 
ATOM      9  C   UNL     1      12.333  10.002  21.650  0.00  0.00    +0.074 C 
ATOM     10  C   UNL     1      12.977   9.935  20.248  0.00  0.00    +0.024 C 
ATOM     11  C   UNL     1      11.028   8.505  19.682  0.00  0.00    +0.019 C 
ATOM     12  C   UNL     1      12.839   7.628  21.839  0.00  0.00    +0.094 C 
ATOM     13  C   UNL     1      10.651   8.360  21.167  0.00  0.00    +0.085 C 
ENDROOT
BRANCH   8  14
ATOM      4  N   UNL     1      15.179   6.940  18.862  0.00  0.00    -0.270 N 
ATOM      6  N   UNL     1      16.488   6.638  18.874  0.00  0.00    -0.171 NA
ATOM     14  C   UNL     1      14.633   7.078  20.104  0.00  0.00    +0.044 A 
ATOM     16  C   UNL     1      15.656   6.849  20.991  0.00  0.00    +0.053 A 
ATOM     17  C   UNL     1      16.774   6.583  20.179  0.00  0.00    +0.093 A 
ATOM     18  C   UNL     1      14.501   7.085  17.595  0.00  0.00    +0.172 C 
BRANCH  17  20
ATOM     20  C   UNL     1      18.108   6.276  20.623  0.00  0.00    +0.002 A 
ATOM     22  C   UNL     1      18.633   6.915  21.747  0.00  0.00    +0.013 A 
ATOM     23  C   UNL     1      18.877   5.343  19.929  0.00  0.00    +0.013 A 
ATOM     24  C   UNL     1      19.927   6.618  22.177  0.00  0.00    +0.046 A 
ATOM     25  C   UNL     1      20.171   5.046  20.358  0.00  0.00    +0.046 A 
ATOM     26  C   UNL     1      20.696   5.684  21.482  0.00  0.00    +0.120 A 
BRANCH  26   2
ATOM      2  O   UNL     1      21.958   5.393  21.900  0.00  0.00    -0.495 OA
ATOM     27  C   UNL     1      22.300   4.014  22.025  0.00  0.00    +0.277 C 
ENDBRANCH  26   2
ENDBRANCH  17  20
ENDBRANCH   8  14
BRANCH   9  15
ATOM     15  C   UNL     1      13.293  10.580  22.691  0.00  0.00    +0.123 C 
BRANCH  15   5
ATOM      1  O   UNL     1      11.762  13.005  23.144  0.00  0.00    -0.276 OA
ATOM      5  N   UNL     1      12.592  10.956  23.880  0.00  0.00    -0.314 N 
ATOM     19  C   UNL     1      11.878  12.145  24.013  0.00  0.00    +0.210 C 
ATOM     21  C   UNL     1      11.215  12.279  25.358  0.00  0.00    +0.109 C 
ATOM     28  H   UNL     1      12.647  10.329  24.678  0.00  0.00    +0.149 HD
ENDBRANCH  15   5
ENDBRANCH   9  15
TORSDOF 5
ENDMDL
MODEL 4
REMARK VINA RESULT:      -6.3     26.408     28.836
REMARK  Name = 40779277
REMARK  8 active torsions:
REMARK  status: ('A' for Active; 'I' for Inactive)
REMARK    1  A    between atoms: O_2  and  C_26
REMARK    2  A    between atoms: O_2  and  C_27
REMARK    3  A    between atoms: N_4  and  C_18
REMARK    4  A    between atoms: N_5  and  C_15
REMARK    5  A    between atoms: C_8  and  C_14
REMARK    6  A    between atoms: C_9  and  C_15
REMARK    7  A    between atoms: C_17  and  C_20
REMARK    8  A    between atoms: C_19  and  C_21
REMARK                            x       y       z     vdW  Elec       q    Type
REMARK                         _______ _______ _______ _____ _____    ______ ____
ROOT
ATOM      3  N   UNL     1      -6.219 -10.300  17.872  0.00  0.00    -0.297 NA
ATOM      7  C   UNL     1      -4.456 -12.068  17.131  0.00  0.00    +0.002 C 
ATOM      8  C   UNL     1      -4.141 -10.686  16.496  0.00  0.00    +0.055 C 
ATOM      9  C   UNL     1      -6.904 -11.521  17.373  0.00  0.00    +0.074 C 
ATOM     10  C   UNL     1      -5.886 -12.495  16.739  0.00  0.00    +0.024 C 
ATOM     11  C   UNL     1      -4.447 -11.867  18.662  0.00  0.00    +0.019 C 
ATOM     12  C   UNL     1      -5.336  -9.745  16.816  0.00  0.00    +0.094 C 
ATOM     13  C   UNL     1      -5.373 -10.692  19.024  0.00  0.00    +0.085 C 
ENDROOT
BRANCH   8  14
ATOM      4  N   UNL     1      -2.455 -10.587  14.600  0.00  0.00    -0.270 N 
ATOM      6  N   UNL     1      -2.323 -10.557  13.263  0.00  0.00    -0.171 NA
ATOM     14  C   UNL     1      -3.750 -10.644  15.024  0.00  0.00    +0.044 A 
ATOM     16  C   UNL     1      -4.519 -10.649  13.886  0.00  0.00    +0.053 A 
ATOM     17  C   UNL     1      -3.588 -10.595  12.833  0.00  0.00    +0.093 A 
ATOM     18  C   UNL     1      -1.271 -10.559  15.427  0.00  0.00    +0.172 C 
BRANCH  17  20
ATOM     20  C   UNL     1      -3.881 -10.576  11.424  0.00  0.00    +0.002 A 
ATOM     22  C   UNL     1      -4.035  -9.358  10.759  0.00  0.00    +0.013 A 
ATOM     23  C   UNL     1      -4.014 -11.774  10.723  0.00  0.00    +0.013 A 
ATOM     24  C   UNL     1      -4.321  -9.340   9.394  0.00  0.00    +0.046 A 
ATOM     25  C   UNL     1      -4.300 -11.756   9.357  0.00  0.00    +0.046 A 
ATOM     26  C   UNL     1      -4.454 -10.540   8.693  0.00  0.00    +0.120 A 
BRANCH  26   2
ATOM      2  O   UNL     1      -4.732 -10.523   7.361  0.00  0.00    -0.495 OA
ATOM     27  C   UNL     1      -5.919  -9.844   6.954  0.00  0.00    +0.277 C 
ENDBRANCH  26   2
ENDBRANCH  17  20
ENDBRANCH   8  14
BRANCH   9  15
ATOM     15  C   UNL     1      -8.053 -11.197  16.417  0.00  0.00    +0.123 C 
BRANCH  15   5
ATOM      1  O   UNL     1      -8.991  -8.490  16.885  0.00  0.00    -0.276 OA
ATOM      5  N   UNL     1      -9.220 -10.794  17.140  0.00  0.00    -0.314 N 
ATOM     19  C   UNL     1      -9.598  -9.465  17.317  0.00  0.00    +0.210 C 
ATOM     21  C   UNL     1     -10.880  -9.324  18.094  0.00  0.00    +0.109 C 
ATOM     28  H   UNL     1      -9.783 -11.523  17.570  0.00  0.00    +0.149 HD
ENDBRANCH  15   5
ENDBRANCH   9  15
TORSDOF 5
ENDMDL
MODEL 5
REMARK VINA RESULT:      -6.1     26.817     30.057
REMARK  Name = 40779277
REMARK  8 active torsions:
REMARK  status: ('A' for Active; 'I' for Inactive)
REMARK    1  A    between atoms: O_2  and  C_26
REMARK    2  A    between atoms: O_2  and  C_27
REMARK    3  A    between atoms: N_4  and  C_18
REMARK    4  A    between atoms: N_5  and  C_15
REMARK    5  A    between atoms: C_8  and  C_14
REMARK    6  A    between atoms: C_9  and  C_15
REMARK    7  A    between atoms: C_17  and  C_20
REMARK    8  A    between atoms: C_19  and  C_21
REMARK                            x       y       z     vdW  Elec       q    Type
REMARK                         _______ _______ _______ _____ _____    ______ ____
ROOT
ATOM      3  N   UNL     1      -5.425 -12.534  16.931  0.00  0.00    -0.297 NA
ATOM      7  C   UNL     1      -5.878 -10.692  18.716  0.00  0.00    +0.002 C 
ATOM      8  C   UNL     1      -7.198 -11.413  18.330  0.00  0.00    +0.055 C 
ATOM      9  C   UNL     1      -4.798 -11.253  16.510  0.00  0.00    +0.074 C 
ATOM     10  C   UNL     1      -5.229 -10.102  17.447  0.00  0.00    +0.024 C 
ATOM     11  C   UNL     1      -4.919 -11.777  19.253  0.00  0.00    +0.019 C 
ATOM     12  C   UNL     1      -6.883 -12.347  17.127  0.00  0.00    +0.094 C 
ATOM     13  C   UNL     1      -4.828 -12.924  18.231  0.00  0.00    +0.085 C 
ENDROOT
BRANCH   8  14
ATOM      4  N   UNL     1      -9.551 -10.632  18.878  0.00  0.00    -0.270 N 
ATOM      6  N   UNL     1     -10.535  -9.799  18.500  0.00  0.00    -0.171 NA
ATOM     14  C   UNL     1      -8.439 -10.562  18.092  0.00  0.00    +0.044 A 
ATOM     16  C   UNL     1      -8.715  -9.620  17.132  0.00  0.00    +0.053 A 
ATOM     17  C   UNL     1     -10.019  -9.184  17.432  0.00  0.00    +0.093 A 
ATOM     18  C   UNL     1      -9.749 -11.484  20.027  0.00  0.00    +0.172 C 
BRANCH  17  20
ATOM     20  C   UNL     1     -10.782  -8.193  16.719  0.00  0.00    +0.002 A 
ATOM     22  C   UNL     1     -12.170  -8.311  16.632  0.00  0.00    +0.013 A 
ATOM     23  C   UNL     1     -10.134  -7.116  16.115  0.00  0.00    +0.013 A 
ATOM     24  C   UNL     1     -12.909  -7.352  15.940  0.00  0.00    +0.046 A 
ATOM     25  C   UNL     1     -10.874  -6.156  15.423  0.00  0.00    +0.046 A 
ATOM     26  C   UNL     1     -12.260  -6.275  15.335  0.00  0.00    +0.120 A 
BRANCH  26   2
ATOM      2  O   UNL     1     -12.980  -5.337  14.659  0.00  0.00    -0.495 OA
ATOM     27  C   UNL     1     -12.403  -4.810  13.466  0.00  0.00    +0.277 C 
ENDBRANCH  26   2
ENDBRANCH  17  20
ENDBRANCH   8  14
BRANCH   9  15
ATOM     15  C   UNL     1      -5.074 -10.924  15.042  0.00  0.00    +0.123 C 
BRANCH  15   5
ATOM      1  O   UNL     1      -2.978 -12.366  13.642  0.00  0.00    -0.276 OA
ATOM      5  N   UNL     1      -3.912 -10.375  14.414  0.00  0.00    -0.314 N 
ATOM     19  C   UNL     1      -2.951 -11.144  13.761  0.00  0.00    +0.210 C 
ATOM     21  C   UNL     1      -1.845 -10.313  13.168  0.00  0.00    +0.109 C 
ATOM     28  H   UNL     1      -3.770  -9.371  14.478  0.00  0.00    +0.149 HD
ENDBRANCH  15   5
ENDBRANCH   9  15
TORSDOF 5
ENDMDL
MODEL 6
REMARK VINA RESULT:      -5.8     27.132     29.859
REMARK  Name = 40779277
REMARK  8 active torsions:
REMARK  status: ('A' for Active; 'I' for Inactive)
REMARK    1  A    between atoms: O_2  and  C_26
REMARK    2  A    between atoms: O_2  and  C_27
REMARK    3  A    between atoms: N_4  and  C_18
REMARK    4  A    between atoms: N_5  and  C_15
REMARK    5  A    between atoms: C_8  and  C_14
REMARK    6  A    between atoms: C_9  and  C_15
REMARK    7  A    between atoms: C_17  and  C_20
REMARK    8  A    between atoms: C_19  and  C_21
REMARK                            x       y       z     vdW  Elec       q    Type
REMARK                         _______ _______ _______ _____ _____    ______ ____
ROOT
ATOM      3  N   UNL     1      -5.679 -10.807   9.300  0.00  0.00    -0.297 NA
ATOM      7  C   UNL     1      -4.625  -8.862  10.674  0.00  0.00    +0.002 C 
ATOM      8  C   UNL     1      -4.257 -10.234  11.303  0.00  0.00    +0.055 C 
ATOM      9  C   UNL     1      -6.714  -9.785   9.611  0.00  0.00    +0.074 C 
ATOM     10  C   UNL     1      -6.160  -8.732  10.596  0.00  0.00    +0.024 C 
ATOM     11  C   UNL     1      -4.097  -8.881   9.224  0.00  0.00    +0.019 C 
ATOM     12  C   UNL     1      -5.080 -11.322  10.556  0.00  0.00    +0.094 C 
ATOM     13  C   UNL     1      -4.610 -10.147   8.514  0.00  0.00    +0.085 C 
ENDROOT
BRANCH   8  14
ATOM      4  N   UNL     1      -3.251 -10.523  13.615  0.00  0.00    -0.270 N 
ATOM      6  N   UNL     1      -3.543 -10.636  14.922  0.00  0.00    -0.171 NA
ATOM     14  C   UNL     1      -4.346 -10.379  12.816  0.00  0.00    +0.044 A 
ATOM     16  C   UNL     1      -5.432 -10.400  13.658  0.00  0.00    +0.053 A 
ATOM     17  C   UNL     1      -4.878 -10.560  14.942  0.00  0.00    +0.093 A 
ATOM     18  C   UNL     1      -1.869 -10.564  13.196  0.00  0.00    +0.172 C 
BRANCH  17  20
ATOM     20  C   UNL     1      -5.597 -10.644  16.186  0.00  0.00    +0.002 A 
ATOM     22  C   UNL     1      -4.908 -10.558  17.397  0.00  0.00    +0.013 A 
ATOM     23  C   UNL     1      -6.981 -10.813  16.182  0.00  0.00    +0.013 A 
ATOM     24  C   UNL     1      -5.605 -10.640  18.602  0.00  0.00    +0.046 A 
ATOM     25  C   UNL     1      -7.678 -10.896  17.387  0.00  0.00    +0.046 A 
ATOM     26  C   UNL     1      -6.990 -10.810  18.597  0.00  0.00    +0.120 A 
BRANCH  26   2
ATOM      2  O   UNL     1      -7.671 -10.890  19.773  0.00  0.00    -0.495 OA
ATOM     27  C   UNL     1      -9.074 -11.137  19.696  0.00  0.00    +0.277 C 
ENDBRANCH  26   2
ENDBRANCH  17  20
ENDBRANCH   8  14
BRANCH   9  15
ATOM     15  C   UNL     1      -8.016 -10.408  10.116  0.00  0.00    +0.123 C 
BRANCH  15   5
ATOM      1  O   UNL     1      -8.864 -11.696  12.576  0.00  0.00    -0.276 OA
ATOM      5  N   UNL     1      -8.451  -9.776  11.323  0.00  0.00    -0.314 N 
ATOM     19  C   UNL     1      -8.842 -10.474  12.463  0.00  0.00    +0.210 C 
ATOM     21  C   UNL     1      -9.229  -9.564  13.599  0.00  0.00    +0.109 C 
ATOM     28  H   UNL     1      -8.503  -8.761  11.331  0.00  0.00    +0.149 HD
ENDBRANCH  15   5
ENDBRANCH   9  15
TORSDOF 5
ENDMDL
MODEL 7
REMARK VINA RESULT:      -5.6     13.845     16.695
REMARK  Name = 40779277
REMARK  8 active torsions:
REMARK  status: ('A' for Active; 'I' for Inactive)
REMARK    1  A    between atoms: O_2  and  C_26
REMARK    2  A    between atoms: O_2  and  C_27
REMARK    3  A    between atoms: N_4  and  C_18
REMARK    4  A    between atoms: N_5  and  C_15
REMARK    5  A    between atoms: C_8  and  C_14
REMARK    6  A    between atoms: C_9  and  C_15
REMARK    7  A    between atoms: C_17  and  C_20
REMARK    8  A    between atoms: C_19  and  C_21
REMARK                            x       y       z     vdW  Elec       q    Type
REMARK                         _______ _______ _______ _____ _____    ______ ____
ROOT
ATOM      3  N   UNL     1       9.121   8.649   6.681  0.00  0.00    -0.297 NA
ATOM      7  C   UNL     1       9.292   6.075   6.321  0.00  0.00    +0.002 C 
ATOM      8  C   UNL     1      10.620   6.771   5.915  0.00  0.00    +0.055 C 
ATOM      9  C   UNL     1       7.945   8.164   5.912  0.00  0.00    +0.074 C 
ATOM     10  C   UNL     1       8.129   6.684   5.510  0.00  0.00    +0.024 C 
ATOM     11  C   UNL     1       9.043   6.424   7.804  0.00  0.00    +0.019 C 
ATOM     12  C   UNL     1      10.374   8.306   5.964  0.00  0.00    +0.094 C 
ATOM     13  C   UNL     1       9.129   7.949   7.988  0.00  0.00    +0.085 C 
ENDROOT
BRANCH   8  14
ATOM      4  N   UNL     1      12.514   6.797   4.225  0.00  0.00    -0.270 N 
ATOM      6  N   UNL     1      12.933   6.291   3.053  0.00  0.00    -0.171 NA
ATOM     14  C   UNL     1      11.294   6.335   4.621  0.00  0.00    +0.044 A 
ATOM     16  C   UNL     1      10.885   5.466   3.639  0.00  0.00    +0.053 A 
ATOM     17  C   UNL     1      11.933   5.478   2.700  0.00  0.00    +0.093 A 
ATOM     18  C   UNL     1      13.354   7.741   4.926  0.00  0.00    +0.172 C 
BRANCH  17  20
ATOM     20  C   UNL     1      11.997   4.730   1.471  0.00  0.00    +0.002 A 
ATOM     22  C   UNL     1      10.950   4.807   0.552  0.00  0.00    +0.013 A 
ATOM     23  C   UNL     1      13.105   3.927   1.200  0.00  0.00    +0.013 A 
ATOM     24  C   UNL     1      11.012   4.082  -0.638  0.00  0.00    +0.046 A 
ATOM     25  C   UNL     1      13.167   3.202   0.010  0.00  0.00    +0.046 A 
ATOM     26  C   UNL     1      12.120   3.279  -0.908  0.00  0.00    +0.120 A 
BRANCH  26   2
ATOM      2  O   UNL     1      12.182   2.571  -2.069  0.00  0.00    -0.495 OA
ATOM     27  C   UNL     1      12.791   3.211  -3.189  0.00  0.00    +0.277 C 
ENDBRANCH  26   2
ENDBRANCH  17  20
ENDBRANCH   8  14
BRANCH   9  15
ATOM     15  C   UNL     1       7.635   9.048   4.702  0.00  0.00    +0.123 C 
BRANCH  15   5
ATOM      1  O   UNL     1       9.695   9.863   2.827  0.00  0.00    -0.276 OA
ATOM      5  N   UNL     1       8.008   8.397   3.485  0.00  0.00    -0.314 N 
ATOM     19  C   UNL     1       9.014   8.859   2.639  0.00  0.00    +0.210 C 
ATOM     21  C   UNL     1       9.219   7.971   1.440  0.00  0.00    +0.109 C 
ATOM     28  H   UNL     1       7.486   7.568   3.213  0.00  0.00    +0.149 HD
ENDBRANCH  15   5
ENDBRANCH   9  15
TORSDOF 5
ENDMDL
MODEL 8
REMARK VINA RESULT:      -5.6     26.500     29.552
REMARK  Name = 40779277
REMARK  8 active torsions:
REMARK  status: ('A' for Active; 'I' for Inactive)
REMARK    1  A    between atoms: O_2  and  C_26
REMARK    2  A    between atoms: O_2  and  C_27
REMARK    3  A    between atoms: N_4  and  C_18
REMARK    4  A    between atoms: N_5  and  C_15
REMARK    5  A    between atoms: C_8  and  C_14
REMARK    6  A    between atoms: C_9  and  C_15
REMARK    7  A    between atoms: C_17  and  C_20
REMARK    8  A    between atoms: C_19  and  C_21
REMARK                            x       y       z     vdW  Elec       q    Type
REMARK                         _______ _______ _______ _____ _____    ______ ____
ROOT
ATOM      3  N   UNL     1     -10.727  -8.576  17.272  0.00  0.00    -0.297 NA
ATOM      7  C   UNL     1      -9.809 -10.994  17.578  0.00  0.00    +0.002 C 
ATOM      8  C   UNL     1      -8.712  -9.949  17.916  0.00  0.00    +0.055 C 
ATOM      9  C   UNL     1     -11.026  -9.390  16.064  0.00  0.00    +0.074 C 
ATOM     10  C   UNL     1     -10.313 -10.758  16.139  0.00  0.00    +0.024 C 
ATOM     11  C   UNL     1     -10.996 -10.716  18.525  0.00  0.00    +0.019 C 
ATOM     12  C   UNL     1      -9.265  -8.551  17.519  0.00  0.00    +0.094 C 
ATOM     13  C   UNL     1     -11.381  -9.229  18.432  0.00  0.00    +0.085 C 
ENDROOT
BRANCH   8  14
ATOM      4  N   UNL     1      -6.251 -10.511  18.188  0.00  0.00    -0.270 N 
ATOM      6  N   UNL     1      -5.095 -10.678  17.525  0.00  0.00    -0.171 NA
ATOM     14  C   UNL     1      -7.305 -10.186  17.385  0.00  0.00    +0.044 A 
ATOM     16  C   UNL     1      -6.802 -10.135  16.107  0.00  0.00    +0.053 A 
ATOM     17  C   UNL     1      -5.437 -10.447  16.254  0.00  0.00    +0.093 A 
ATOM     18  C   UNL     1      -6.274 -10.683  19.622  0.00  0.00    +0.172 C 
BRANCH  17  20
ATOM     20  C   UNL     1      -4.455 -10.526  15.205  0.00  0.00    +0.002 A 
ATOM     22  C   UNL     1      -4.857 -10.513  13.869  0.00  0.00    +0.013 A 
ATOM     23  C   UNL     1      -3.100 -10.618  15.524  0.00  0.00    +0.013 A 
ATOM     24  C   UNL     1      -3.905 -10.591  12.853  0.00  0.00    +0.046 A 
ATOM     25  C   UNL     1      -2.147 -10.696  14.508  0.00  0.00    +0.046 A 
ATOM     26  C   UNL     1      -2.550 -10.683  13.173  0.00  0.00    +0.120 A 
BRANCH  26   2
ATOM      2  O   UNL     1      -1.619 -10.759  12.182  0.00  0.00    -0.495 OA
ATOM     27  C   UNL     1      -1.456  -9.609  11.354  0.00  0.00    +0.277 C 
ENDBRANCH  26   2
ENDBRANCH  17  20
ENDBRANCH   8  14
BRANCH   9  15
ATOM     15  C   UNL     1     -10.701  -8.648  14.767  0.00  0.00    +0.123 C 
BRANCH  15   5
ATOM      1  O   UNL     1     -10.693  -5.815  15.399  0.00  0.00    -0.276 OA
ATOM      5  N   UNL     1     -11.715  -7.686  14.460  0.00  0.00    -0.314 N 
ATOM     19  C   UNL     1     -11.629  -6.339  14.802  0.00  0.00    +0.210 C 
ATOM     21  C   UNL     1     -12.821  -5.544  14.338  0.00  0.00    +0.109 C 
ATOM     28  H   UNL     1     -12.554  -8.018  13.993  0.00  0.00    +0.149 HD
ENDBRANCH  15   5
ENDBRANCH   9  15
TORSDOF 5
ENDMDL
MODEL 9
REMARK VINA RESULT:      -5.5     13.799     16.713
REMARK  Name = 40779277
REMARK  8 active torsions:
REMARK  status: ('A' for Active; 'I' for Inactive)
REMARK    1  A    between atoms: O_2  and  C_26
REMARK    2  A    between atoms: O_2  and  C_27
REMARK    3  A    between atoms: N_4  and  C_18
REMARK    4  A    between atoms: N_5  and  C_15
REMARK    5  A    between atoms: C_8  and  C_14
REMARK    6  A    between atoms: C_9  and  C_15
REMARK    7  A    between atoms: C_17  and  C_20
REMARK    8  A    between atoms: C_19  and  C_21
REMARK                            x       y       z     vdW  Elec       q    Type
REMARK                         _______ _______ _______ _____ _____    ______ ____
ROOT
ATOM      3  N   UNL     1       9.003   8.753   6.454  0.00  0.00    -0.297 NA
ATOM      7  C   UNL     1       9.487   6.199   6.287  0.00  0.00    +0.002 C 
ATOM      8  C   UNL     1      10.737   7.019   5.863  0.00  0.00    +0.055 C 
ATOM      9  C   UNL     1       7.917   8.078   5.695  0.00  0.00    +0.074 C 
ATOM     10  C   UNL     1       8.288   6.606   5.407  0.00  0.00    +0.024 C 
ATOM     11  C   UNL     1       9.151   6.618   7.735  0.00  0.00    +0.019 C 
ATOM     12  C   UNL     1      10.310   8.513   5.794  0.00  0.00    +0.094 C 
ATOM     13  C   UNL     1       9.051   8.152   7.809  0.00  0.00    +0.085 C 
ENDROOT
BRANCH   8  14
ATOM      4  N   UNL     1      12.774   6.977   4.349  0.00  0.00    -0.270 N 
ATOM      6  N   UNL     1      13.267   6.477   3.204  0.00  0.00    -0.171 NA
ATOM     14  C   UNL     1      11.498   6.578   4.621  0.00  0.00    +0.044 A 
ATOM     16  C   UNL     1      11.130   5.761   3.579  0.00  0.00    +0.053 A 
ATOM     17  C   UNL     1      12.258   5.735   2.738  0.00  0.00    +0.093 A 
ATOM     18  C   UNL     1      13.599   7.850   5.151  0.00  0.00    +0.172 C 
BRANCH  17  20
ATOM     20  C   UNL     1      12.390   5.017   1.497  0.00  0.00    +0.002 A 
ATOM     22  C   UNL     1      13.540   4.269   1.243  0.00  0.00    +0.013 A 
ATOM     23  C   UNL     1      11.370   5.071   0.548  0.00  0.00    +0.013 A 
ATOM     24  C   UNL     1      13.669   3.574   0.040  0.00  0.00    +0.046 A 
ATOM     25  C   UNL     1      11.498   4.377  -0.655  0.00  0.00    +0.046 A 
ATOM     26  C   UNL     1      12.648   3.629  -0.909  0.00  0.00    +0.120 A 
BRANCH  26   2
ATOM      2  O   UNL     1      12.772   2.952  -2.084  0.00  0.00    -0.495 OA
ATOM     27  C   UNL     1      11.704   2.078  -2.446  0.00  0.00    +0.277 C 
ENDBRANCH  26   2
ENDBRANCH  17  20
ENDBRANCH   8  14
BRANCH   9  15
ATOM     15  C   UNL     1       7.544   8.832   4.417  0.00  0.00    +0.123 C 
BRANCH  15   5
ATOM      1  O   UNL     1       5.297   9.851   2.887  0.00  0.00    -0.276 OA
ATOM      5  N   UNL     1       6.737   9.974   4.715  0.00  0.00    -0.314 N 
ATOM     19  C   UNL     1       5.672  10.395   3.922  0.00  0.00    +0.210 C 
ATOM     21  C   UNL     1       4.976  11.609   4.478  0.00  0.00    +0.109 C 
ATOM     28  H   UNL     1       6.979  10.521   5.536  0.00  0.00    +0.149 HD
ENDBRANCH  15   5
ENDBRANCH   9  15
TORSDOF 5
ENDMDL
MODEL 10
REMARK VINA RESULT:      -5.4     28.153     31.549
REMARK  Name = 40779277
REMARK  8 active torsions:
REMARK  status: ('A' for Active; 'I' for Inactive)
REMARK    1  A    between atoms: O_2  and  C_26
REMARK    2  A    between atoms: O_2  and  C_27
REMARK    3  A    between atoms: N_4  and  C_18
REMARK    4  A    between atoms: N_5  and  C_15
REMARK    5  A    between atoms: C_8  and  C_14
REMARK    6  A    between atoms: C_9  and  C_15
REMARK    7  A    between atoms: C_17  and  C_20
REMARK    8  A    between atoms: C_19  and  C_21
REMARK                            x       y       z     vdW  Elec       q    Type
REMARK                         _______ _______ _______ _____ _____    ______ ____
ROOT
ATOM      3  N   UNL     1     -13.710 -11.694  18.800  0.00  0.00    -0.297 NA
ATOM      7  C   UNL     1     -12.524  -9.662  19.917  0.00  0.00    +0.002 C 
ATOM      8  C   UNL     1     -12.178  -9.730  18.404  0.00  0.00    +0.055 C 
ATOM      9  C   UNL     1     -13.001 -12.133  20.032  0.00  0.00    +0.074 C 
ATOM     10  C   UNL     1     -12.125 -10.990  20.591  0.00  0.00    +0.024 C 
ATOM     11  C   UNL     1     -14.060  -9.545  20.017  0.00  0.00    +0.019 C 
ATOM     12  C   UNL     1     -12.750 -11.068  17.857  0.00  0.00    +0.094 C 
ATOM     13  C   UNL     1     -14.709 -10.671  19.192  0.00  0.00    +0.085 C 
ENDROOT
BRANCH   8  14
ATOM      4  N   UNL     1     -10.310  -8.391  17.326  0.00  0.00    -0.270 N 
ATOM      6  N   UNL     1      -8.996  -8.387  17.048  0.00  0.00    -0.171 NA
ATOM     14  C   UNL     1     -10.730  -9.507  17.987  0.00  0.00    +0.044 A 
ATOM     16  C   UNL     1      -9.613 -10.289  18.153  0.00  0.00    +0.053 A 
ATOM     17  C   UNL     1      -8.575  -9.549  17.556  0.00  0.00    +0.093 A 
ATOM     18  C   UNL     1     -11.121  -7.267  16.918  0.00  0.00    +0.172 C 
BRANCH  17  20
ATOM     20  C   UNL     1      -7.191  -9.931  17.459  0.00  0.00    +0.002 A 
ATOM     22  C   UNL     1      -6.474  -9.668  16.291  0.00  0.00    +0.013 A 
ATOM     23  C   UNL     1      -6.566 -10.566  18.532  0.00  0.00    +0.013 A 
ATOM     24  C   UNL     1      -5.133 -10.039  16.197  0.00  0.00    +0.046 A 
ATOM     25  C   UNL     1      -5.224 -10.938  18.438  0.00  0.00    +0.046 A 
ATOM     26  C   UNL     1      -4.508 -10.675  17.271  0.00  0.00    +0.120 A 
BRANCH  26   2
ATOM      2  O   UNL     1      -3.199 -11.038  17.180  0.00  0.00    -0.495 OA
ATOM     27  C   UNL     1      -2.506 -10.676  15.987  0.00  0.00    +0.277 C 
ENDBRANCH  26   2
ENDBRANCH  17  20
ENDBRANCH   8  14
BRANCH   9  15
ATOM     15  C   UNL     1     -12.195 -13.414  19.815  0.00  0.00    +0.123 C 
BRANCH  15   5
ATOM      1  O   UNL     1     -10.062 -15.037  20.931  0.00  0.00    -0.276 OA
ATOM      5  N   UNL     1     -10.792 -13.138  19.795  0.00  0.00    -0.314 N 
ATOM     19  C   UNL     1      -9.832 -13.977  20.357  0.00  0.00    +0.210 C 
ATOM     21  C   UNL     1      -8.429 -13.460  20.173  0.00  0.00    +0.109 C 
ATOM     28  H   UNL     1     -10.489 -12.266  19.371  0.00  0.00    +0.149 HD
ENDBRANCH  15   5
ENDBRANCH   9  15
TORSDOF 5
ENDMDL
