MODEL 1
REMARK VINA RESULT:      -6.2      0.000      0.000
REMARK  Name = 7164973
REMARK  10 active torsions:
REMARK  status: ('A' for Active; 'I' for Inactive)
REMARK    1  A    between atoms: S_1  and  N_7
REMARK    2  A    between atoms: S_1  and  C_27
REMARK    3  A    between atoms: N_8  and  C_19
REMARK    4  A    between atoms: N_11  and  C_28
REMARK    5  A    between atoms: C_12  and  C_15
REMARK    6  A    between atoms: C_15  and  C_19
REMARK    7  A    between atoms: C_19  and  C_25
REMARK    8  A    between atoms: C_20  and  C_23
REMARK    9  A    between atoms: C_28  and  C_33
REMARK   10  A    between atoms: C_28  and  C_34
REMARK                            x       y       z     vdW  Elec       q    Type
REMARK                         _______ _______ _______ _____ _____    ______ ____
ROOT
ATOM      6  O   UNL     1      -9.214  -8.450  17.487  0.00  0.00    -0.253 OA
ATOM      7  N   UNL     1      -5.320 -11.122  15.607  0.00  0.00    -0.162 NA
ATOM      9  N   UNL     1      -7.716  -9.484  16.046  0.00  0.00    -0.282 N 
ATOM     11  N   UNL     1      -9.714  -8.524  15.242  0.00  0.00    -0.297 N 
ATOM     20  C   UNL     1      -5.808 -10.142  14.593  0.00  0.00    +0.183 C 
ATOM     21  C   UNL     1      -7.316  -9.921  14.705  0.00  0.00    +0.139 C 
ATOM     22  C   UNL     1      -6.113 -11.157  16.873  0.00  0.00    +0.129 C 
ATOM     24  C   UNL     1      -6.796  -9.822  17.132  0.00  0.00    +0.126 C 
ATOM     26  C   UNL     1      -8.903  -8.791  16.341  0.00  0.00    +0.303 C 
ATOM     39  H   UNL     1      -9.515  -8.954  14.347  0.00  0.00    +0.150 HD
ENDROOT
BRANCH  20  23
ATOM      2  O   UNL     1      -5.957 -11.800  12.891  0.00  0.00    -0.274 OA
ATOM      8  N   UNL     1      -4.625  -9.924  12.530  0.00  0.00    -0.303 N 
ATOM     23  C   UNL     1      -5.492 -10.723  13.255  0.00  0.00    +0.234 C 
ATOM     36  H   UNL     1      -4.250  -9.084  12.959  0.00  0.00    +0.149 HD
BRANCH   8  19
ATOM     19  C   UNL     1      -4.147 -10.274  11.212  0.00  0.00    +0.159 C 
BRANCH  19  25
ATOM      5  O   UNL     1      -1.861 -10.888  11.763  0.00  0.00    -0.274 OA
ATOM     10  N   UNL     1      -3.266 -12.514  10.955  0.00  0.00    -0.328 N 
ATOM     25  C   UNL     1      -2.969 -11.229  11.357  0.00  0.00    +0.231 C 
ATOM     37  H   UNL     1      -4.180 -12.778  10.603  0.00  0.00    +0.145 HD
ATOM     38  H   UNL     1      -2.565 -13.245  10.994  0.00  0.00    +0.145 HD
ENDBRANCH  19  25
BRANCH  19  15
ATOM     15  C   UNL     1      -3.807  -9.038  10.372  0.00  0.00    +0.035 C 
BRANCH  15  12
ATOM     12  C   UNL     1      -4.722  -8.829   9.168  0.00  0.00    -0.009 C 
ATOM     13  C   UNL     1      -6.133  -8.429   9.620  0.00  0.00    +0.003 C 
ATOM     14  C   UNL     1      -4.766 -10.091   8.295  0.00  0.00    +0.003 C 
ATOM     16  C   UNL     1      -7.080  -8.265   8.434  0.00  0.00    +0.000 C 
ATOM     17  C   UNL     1      -5.716  -9.924   7.111  0.00  0.00    +0.000 C 
ATOM     18  C   UNL     1      -7.115  -9.519   7.565  0.00  0.00    +0.000 C 
ENDBRANCH  15  12
ENDBRANCH  19  15
ENDBRANCH   8  19
ENDBRANCH  20  23
BRANCH   7   1
ATOM      1  S   UNL     1      -3.620 -11.270  15.784  0.00  0.00    +0.062 S 
ATOM      3  O   UNL     1      -3.308 -11.350  17.191  0.00  0.00    -0.153 OA
ATOM      4  O   UNL     1      -2.983 -10.302  14.922  0.00  0.00    -0.153 OA
BRANCH   1  27
ATOM     27  C   UNL     1      -3.388 -12.871  15.080  0.00  0.00    +0.106 A 
ATOM     29  C   UNL     1      -2.221 -13.158  14.372  0.00  0.00    +0.028 A 
ATOM     30  C   UNL     1      -4.369 -13.850  15.234  0.00  0.00    +0.028 A 
ATOM     31  C   UNL     1      -2.036 -14.424  13.815  0.00  0.00    +0.002 A 
ATOM     32  C   UNL     1      -4.186 -15.115  14.678  0.00  0.00    +0.002 A 
ATOM     35  C   UNL     1      -3.019 -15.403  13.969  0.00  0.00    +0.000 A 
ENDBRANCH   1  27
ENDBRANCH   7   1
BRANCH  11  28
ATOM     28  C   UNL     1     -10.974  -7.829  15.365  0.00  0.00    +0.068 C 
ATOM     33  C   UNL     1     -11.856  -8.114  14.155  0.00  0.00    +0.027 C 
ATOM     34  C   UNL     1     -10.745  -6.334  15.542  0.00  0.00    +0.027 C 
ENDBRANCH  11  28
TORSDOF 8
ENDMDL
MODEL 2
REMARK VINA RESULT:      -6.2      3.202      4.897
REMARK  Name = 7164973
REMARK  10 active torsions:
REMARK  status: ('A' for Active; 'I' for Inactive)
REMARK    1  A    between atoms: S_1  and  N_7
REMARK    2  A    between atoms: S_1  and  C_27
REMARK    3  A    between atoms: N_8  and  C_19
REMARK    4  A    between atoms: N_11  and  C_28
REMARK    5  A    between atoms: C_12  and  C_15
REMARK    6  A    between atoms: C_15  and  C_19
REMARK    7  A    between atoms: C_19  and  C_25
REMARK    8  A    between atoms: C_20  and  C_23
REMARK    9  A    between atoms: C_28  and  C_33
REMARK   10  A    between atoms: C_28  and  C_34
REMARK                            x       y       z     vdW  Elec       q    Type
REMARK                         _______ _______ _______ _____ _____    ______ ____
ROOT
ATOM      6  O   UNL     1     -12.896  -8.141  16.763  0.00  0.00    -0.253 OA
ATOM      7  N   UNL     1      -8.574 -10.628  17.750  0.00  0.00    -0.162 NA
ATOM      9  N   UNL     1     -10.691  -8.867  16.733  0.00  0.00    -0.282 N 
ATOM     11  N   UNL     1     -11.510  -7.392  15.087  0.00  0.00    -0.297 N 
ATOM     20  C   UNL     1      -8.276  -9.305  17.128  0.00  0.00    +0.183 C 
ATOM     21  C   UNL     1      -9.355  -8.897  16.128  0.00  0.00    +0.139 C 
ATOM     22  C   UNL     1     -10.029 -10.952  17.859  0.00  0.00    +0.129 C 
ATOM     24  C   UNL     1     -10.870  -9.686  17.932  0.00  0.00    +0.126 C 
ATOM     26  C   UNL     1     -11.780  -8.131  16.234  0.00  0.00    +0.303 C 
ATOM     39  H   UNL     1     -10.641  -7.529  14.586  0.00  0.00    +0.150 HD
ENDROOT
BRANCH  20  23
ATOM      2  O   UNL     1      -5.909  -9.130  16.934  0.00  0.00    -0.274 OA
ATOM      8  N   UNL     1      -7.132  -9.967  15.138  0.00  0.00    -0.303 N 
ATOM     23  C   UNL     1      -6.973  -9.455  16.415  0.00  0.00    +0.234 C 
ATOM     36  H   UNL     1      -8.069 -10.138  14.787  0.00  0.00    +0.149 HD
BRANCH   8  19
ATOM     19  C   UNL     1      -6.027 -10.186  14.234  0.00  0.00    +0.159 C 
BRANCH  19  25
ATOM      5  O   UNL     1      -6.787 -11.012  12.079  0.00  0.00    -0.274 OA
ATOM     10  N   UNL     1      -6.647  -8.742  12.393  0.00  0.00    -0.328 N 
ATOM     25  C   UNL     1      -6.533 -10.054  12.803  0.00  0.00    +0.231 C 
ATOM     37  H   UNL     1      -6.415  -7.959  12.995  0.00  0.00    +0.145 HD
ATOM     38  H   UNL     1      -6.967  -8.517  11.458  0.00  0.00    +0.145 HD
ENDBRANCH  19  25
BRANCH  19  15
ATOM     15  C   UNL     1      -5.324 -11.523  14.492  0.00  0.00    +0.035 C 
BRANCH  15  12
ATOM     12  C   UNL     1      -3.802 -11.424  14.581  0.00  0.00    -0.009 C 
ATOM     13  C   UNL     1      -3.374 -10.852  15.939  0.00  0.00    +0.003 C 
ATOM     14  C   UNL     1      -3.247 -10.573  13.431  0.00  0.00    +0.003 C 
ATOM     16  C   UNL     1      -1.859 -10.694  16.033  0.00  0.00    +0.000 C 
ATOM     17  C   UNL     1      -1.731 -10.415  13.528  0.00  0.00    +0.000 C 
ATOM     18  C   UNL     1      -1.310  -9.854  14.883  0.00  0.00    +0.000 C 
ENDBRANCH  15  12
ENDBRANCH  19  15
ENDBRANCH   8  19
ENDBRANCH  20  23
BRANCH   7   1
ATOM      1  S   UNL     1      -7.601 -11.094  19.083  0.00  0.00    +0.062 S 
ATOM      3  O   UNL     1      -8.443 -11.724  20.072  0.00  0.00    -0.153 OA
ATOM      4  O   UNL     1      -6.730  -9.993  19.423  0.00  0.00    -0.153 OA
BRANCH   1  27
ATOM     27  C   UNL     1      -6.627 -12.349  18.315  0.00  0.00    +0.106 A 
ATOM     29  C   UNL     1      -5.280 -12.489  18.649  0.00  0.00    +0.028 A 
ATOM     30  C   UNL     1      -7.205 -13.202  17.375  0.00  0.00    +0.028 A 
ATOM     31  C   UNL     1      -4.510 -13.481  18.041  0.00  0.00    +0.002 A 
ATOM     32  C   UNL     1      -6.436 -14.194  16.767  0.00  0.00    +0.002 A 
ATOM     35  C   UNL     1      -5.088 -14.334  17.101  0.00  0.00    +0.000 A 
ENDBRANCH   1  27
ENDBRANCH   7   1
BRANCH  11  28
ATOM     28  C   UNL     1     -12.516  -6.585  14.435  0.00  0.00    +0.068 C 
ATOM     33  C   UNL     1     -13.005  -7.272  13.166  0.00  0.00    +0.027 C 
ATOM     34  C   UNL     1     -11.974  -5.194  14.136  0.00  0.00    +0.027 C 
ENDBRANCH  11  28
TORSDOF 8
ENDMDL
MODEL 3
REMARK VINA RESULT:      -6.2     25.505     28.765
REMARK  Name = 7164973
REMARK  10 active torsions:
REMARK  status: ('A' for Active; 'I' for Inactive)
REMARK    1  A    between atoms: S_1  and  N_7
REMARK    2  A    between atoms: S_1  and  C_27
REMARK    3  A    between atoms: N_8  and  C_19
REMARK    4  A    between atoms: N_11  and  C_28
REMARK    5  A    between atoms: C_12  and  C_15
REMARK    6  A    between atoms: C_15  and  C_19
REMARK    7  A    between atoms: C_19  and  C_25
REMARK    8  A    between atoms: C_20  and  C_23
REMARK    9  A    between atoms: C_28  and  C_33
REMARK   10  A    between atoms: C_28  and  C_34
REMARK                            x       y       z     vdW  Elec       q    Type
REMARK                         _______ _______ _______ _____ _____    ______ ____
ROOT
ATOM      6  O   UNL     1      18.113   9.067   5.685  0.00  0.00    -0.253 OA
ATOM      7  N   UNL     1      13.233   8.291   4.492  0.00  0.00    -0.162 NA
ATOM      9  N   UNL     1      16.164   8.352   4.647  0.00  0.00    -0.282 N 
ATOM     11  N   UNL     1      18.272   8.002   3.652  0.00  0.00    -0.297 N 
ATOM     20  C   UNL     1      14.080   7.202   3.926  0.00  0.00    +0.183 C 
ATOM     21  C   UNL     1      15.463   7.713   3.528  0.00  0.00    +0.139 C 
ATOM     22  C   UNL     1      13.993   9.376   5.185  0.00  0.00    +0.129 C 
ATOM     24  C   UNL     1      15.318   8.860   5.726  0.00  0.00    +0.126 C 
ATOM     26  C   UNL     1      17.558   8.511   4.732  0.00  0.00    +0.303 C 
ATOM     39  H   UNL     1      17.786   7.700   2.817  0.00  0.00    +0.150 HD
ENDROOT
BRANCH  20  23
ATOM      2  O   UNL     1      13.061   7.446   1.789  0.00  0.00    -0.274 OA
ATOM      8  N   UNL     1      13.105   5.343   2.786  0.00  0.00    -0.303 N 
ATOM     23  C   UNL     1      13.371   6.699   2.713  0.00  0.00    +0.234 C 
ATOM     36  H   UNL     1      13.349   4.836   3.632  0.00  0.00    +0.149 HD
BRANCH   8  19
ATOM     19  C   UNL     1      12.408   4.618   1.748  0.00  0.00    +0.159 C 
BRANCH  19  25
ATOM      5  O   UNL     1      10.015   4.338   1.432  0.00  0.00    -0.274 OA
ATOM     10  N   UNL     1      10.856   4.242   3.567  0.00  0.00    -0.328 N 
ATOM     25  C   UNL     1      10.973   4.378   2.200  0.00  0.00    +0.231 C 
ATOM     37  H   UNL     1      11.653   4.297   4.192  0.00  0.00    +0.145 HD
ATOM     38  H   UNL     1       9.951   4.086   3.997  0.00  0.00    +0.145 HD
ENDBRANCH  19  25
BRANCH  19  15
ATOM     15  C   UNL     1      13.131   3.324   1.360  0.00  0.00    +0.035 C 
BRANCH  15  12
ATOM     12  C   UNL     1      13.592   3.278  -0.096  0.00  0.00    -0.009 C 
ATOM     13  C   UNL     1      14.525   4.456  -0.408  0.00  0.00    +0.003 C 
ATOM     14  C   UNL     1      12.387   3.269  -1.046  0.00  0.00    +0.003 C 
ATOM     16  C   UNL     1      14.957   4.461  -1.872  0.00  0.00    +0.000 C 
ATOM     17  C   UNL     1      12.823   3.275  -2.509  0.00  0.00    +0.000 C 
ATOM     18  C   UNL     1      13.756   4.443  -2.813  0.00  0.00    +0.000 C 
ENDBRANCH  15  12
ENDBRANCH  19  15
ENDBRANCH   8  19
ENDBRANCH  20  23
BRANCH   7   1
ATOM      1  S   UNL     1      11.758   7.820   5.231  0.00  0.00    +0.062 S 
ATOM      3  O   UNL     1      11.548   8.636   6.403  0.00  0.00    -0.153 OA
ATOM      4  O   UNL     1      11.717   6.379   5.297  0.00  0.00    -0.153 OA
BRANCH   1  27
ATOM     27  C   UNL     1      10.623   8.347   3.987  0.00  0.00    +0.106 A 
ATOM     29  C   UNL     1       9.580   7.508   3.595  0.00  0.00    +0.028 A 
ATOM     30  C   UNL     1      10.767   9.602   3.397  0.00  0.00    +0.028 A 
ATOM     31  C   UNL     1       8.682   7.924   2.612  0.00  0.00    +0.002 A 
ATOM     32  C   UNL     1       9.871  10.019   2.414  0.00  0.00    +0.002 A 
ATOM     35  C   UNL     1       8.827   9.180   2.021  0.00  0.00    +0.000 A 
ENDBRANCH   1  27
ENDBRANCH   7   1
BRANCH  11  28
ATOM     28  C   UNL     1      19.712   8.088   3.571  0.00  0.00    +0.068 C 
ATOM     33  C   UNL     1      20.163   8.082   2.115  0.00  0.00    +0.027 C 
ATOM     34  C   UNL     1      20.360   6.954   4.355  0.00  0.00    +0.027 C 
ENDBRANCH  11  28
TORSDOF 8
ENDMDL
MODEL 4
REMARK VINA RESULT:      -6.2      2.359      7.023
REMARK  Name = 7164973
REMARK  10 active torsions:
REMARK  status: ('A' for Active; 'I' for Inactive)
REMARK    1  A    between atoms: S_1  and  N_7
REMARK    2  A    between atoms: S_1  and  C_27
REMARK    3  A    between atoms: N_8  and  C_19
REMARK    4  A    between atoms: N_11  and  C_28
REMARK    5  A    between atoms: C_12  and  C_15
REMARK    6  A    between atoms: C_15  and  C_19
REMARK    7  A    between atoms: C_19  and  C_25
REMARK    8  A    between atoms: C_20  and  C_23
REMARK    9  A    between atoms: C_28  and  C_33
REMARK   10  A    between atoms: C_28  and  C_34
REMARK                            x       y       z     vdW  Elec       q    Type
REMARK                         _______ _______ _______ _____ _____    ______ ____
ROOT
ATOM      6  O   UNL     1      -5.511  -8.582   8.665  0.00  0.00    -0.253 OA
ATOM      7  N   UNL     1      -6.012 -10.752  13.235  0.00  0.00    -0.162 NA
ATOM      9  N   UNL     1      -6.380  -9.389  10.661  0.00  0.00    -0.282 N 
ATOM     11  N   UNL     1      -7.670  -8.025   9.234  0.00  0.00    -0.297 N 
ATOM     20  C   UNL     1      -7.326 -10.731  12.528  0.00  0.00    +0.183 C 
ATOM     21  C   UNL     1      -7.468  -9.497  11.639  0.00  0.00    +0.139 C 
ATOM     22  C   UNL     1      -4.899 -10.074  12.502  0.00  0.00    +0.129 C 
ATOM     24  C   UNL     1      -5.141 -10.088  10.999  0.00  0.00    +0.126 C 
ATOM     26  C   UNL     1      -6.453  -8.661   9.459  0.00  0.00    +0.303 C 
ATOM     39  H   UNL     1      -8.362  -7.974   9.971  0.00  0.00    +0.150 HD
ENDROOT
BRANCH  20  23
ATOM      2  O   UNL     1      -9.303 -11.505  13.604  0.00  0.00    -0.274 OA
ATOM      8  N   UNL     1      -8.180  -9.668  14.489  0.00  0.00    -0.303 N 
ATOM     23  C   UNL     1      -8.377 -10.699  13.588  0.00  0.00    +0.234 C 
ATOM     36  H   UNL     1      -7.414  -9.017  14.339  0.00  0.00    +0.149 HD
BRANCH   8  19
ATOM     19  C   UNL     1      -9.071  -9.407  15.597  0.00  0.00    +0.159 C 
BRANCH  19  25
ATOM      5  O   UNL     1     -10.987  -8.489  14.417  0.00  0.00    -0.274 OA
ATOM     10  N   UNL     1      -9.753  -7.090  15.756  0.00  0.00    -0.328 N 
ATOM     25  C   UNL     1     -10.049  -8.312  15.190  0.00  0.00    +0.231 C 
ATOM     37  H   UNL     1      -8.963  -6.953  16.378  0.00  0.00    +0.145 HD
ATOM     38  H   UNL     1     -10.324  -6.275  15.559  0.00  0.00    +0.145 HD
ENDBRANCH  19  25
BRANCH  19  15
ATOM     15  C   UNL     1      -8.312  -9.074  16.885  0.00  0.00    +0.035 C 
BRANCH  15  12
ATOM     12  C   UNL     1      -7.665 -10.281  17.560  0.00  0.00    -0.009 C 
ATOM     13  C   UNL     1      -8.485 -10.727  18.778  0.00  0.00    +0.003 C 
ATOM     14  C   UNL     1      -6.217  -9.966  17.963  0.00  0.00    +0.003 C 
ATOM     16  C   UNL     1      -7.830 -11.901  19.501  0.00  0.00    +0.000 C 
ATOM     17  C   UNL     1      -5.565 -11.142  18.688  0.00  0.00    +0.000 C 
ATOM     18  C   UNL     1      -6.389 -11.586  19.893  0.00  0.00    +0.000 C 
ENDBRANCH  15  12
ENDBRANCH  19  15
ENDBRANCH   8  19
ENDBRANCH  20  23
BRANCH   7   1
ATOM      1  S   UNL     1      -5.597 -12.200  14.054  0.00  0.00    +0.062 S 
ATOM      3  O   UNL     1      -5.503 -13.267  13.087  0.00  0.00    -0.153 OA
ATOM      4  O   UNL     1      -6.428 -12.316  15.230  0.00  0.00    -0.153 OA
BRANCH   1  27
ATOM     27  C   UNL     1      -3.962 -11.787  14.574  0.00  0.00    +0.106 A 
ATOM     29  C   UNL     1      -3.767 -10.812  15.552  0.00  0.00    +0.028 A 
ATOM     30  C   UNL     1      -2.866 -12.438  14.009  0.00  0.00    +0.028 A 
ATOM     31  C   UNL     1      -2.475 -10.486  15.964  0.00  0.00    +0.002 A 
ATOM     32  C   UNL     1      -1.573 -12.113  14.420  0.00  0.00    +0.002 A 
ATOM     35  C   UNL     1      -1.378 -11.136  15.397  0.00  0.00    +0.000 A 
ENDBRANCH   1  27
ENDBRANCH   7   1
BRANCH  11  28
ATOM     28  C   UNL     1      -7.916  -7.228   8.054  0.00  0.00    +0.068 C 
ATOM     33  C   UNL     1      -8.886  -6.097   8.372  0.00  0.00    +0.027 C 
ATOM     34  C   UNL     1      -8.436  -8.099   6.919  0.00  0.00    +0.027 C 
ENDBRANCH  11  28
TORSDOF 8
ENDMDL
MODEL 5
REMARK VINA RESULT:      -6.1     24.865     27.967
REMARK  Name = 7164973
REMARK  10 active torsions:
REMARK  status: ('A' for Active; 'I' for Inactive)
REMARK    1  A    between atoms: S_1  and  N_7
REMARK    2  A    between atoms: S_1  and  C_27
REMARK    3  A    between atoms: N_8  and  C_19
REMARK    4  A    between atoms: N_11  and  C_28
REMARK    5  A    between atoms: C_12  and  C_15
REMARK    6  A    between atoms: C_15  and  C_19
REMARK    7  A    between atoms: C_19  and  C_25
REMARK    8  A    between atoms: C_20  and  C_23
REMARK    9  A    between atoms: C_28  and  C_33
REMARK   10  A    between atoms: C_28  and  C_34
REMARK                            x       y       z     vdW  Elec       q    Type
REMARK                         _______ _______ _______ _____ _____    ______ ____
ROOT
ATOM      6  O   UNL     1      15.935   8.182   6.507  0.00  0.00    -0.253 OA
ATOM      7  N   UNL     1      11.783   7.020   3.815  0.00  0.00    -0.162 NA
ATOM      9  N   UNL     1      14.492   7.610   4.782  0.00  0.00    -0.282 N 
ATOM     11  N   UNL     1      16.740   8.173   4.351  0.00  0.00    -0.297 N 
ATOM     20  C   UNL     1      13.001   6.489   3.137  0.00  0.00    +0.183 C 
ATOM     21  C   UNL     1      14.210   7.396   3.358  0.00  0.00    +0.139 C 
ATOM     22  C   UNL     1      12.055   7.823   5.047  0.00  0.00    +0.129 C 
ATOM     24  C   UNL     1      13.367   7.408   5.696  0.00  0.00    +0.126 C 
ATOM     26  C   UNL     1      15.739   7.999   5.302  0.00  0.00    +0.303 C 
ATOM     39  H   UNL     1      16.511   8.175   3.365  0.00  0.00    +0.150 HD
ENDROOT
BRANCH  20  23
ATOM      2  O   UNL     1      12.657   7.447   0.985  0.00  0.00    -0.274 OA
ATOM      8  N   UNL     1      12.420   5.146   1.249  0.00  0.00    -0.303 N 
ATOM     23  C   UNL     1      12.685   6.434   1.679  0.00  0.00    +0.234 C 
ATOM     36  H   UNL     1      12.407   4.390   1.928  0.00  0.00    +0.149 HD
BRANCH   8  19
ATOM     19  C   UNL     1      12.065   4.827  -0.115  0.00  0.00    +0.159 C 
BRANCH  19  25
ATOM      5  O   UNL     1       9.872   4.795  -1.160  0.00  0.00    -0.274 OA
ATOM     10  N   UNL     1      10.069   4.025   0.995  0.00  0.00    -0.328 N 
ATOM     25  C   UNL     1      10.569   4.551  -0.179  0.00  0.00    +0.231 C 
ATOM     37  H   UNL     1      10.652   3.846   1.805  0.00  0.00    +0.145 HD
ATOM     38  H   UNL     1       9.084   3.803   1.085  0.00  0.00    +0.145 HD
ENDBRANCH  19  25
BRANCH  19  15
ATOM     15  C   UNL     1      12.905   3.675  -0.677  0.00  0.00    +0.035 C 
BRANCH  15  12
ATOM     12  C   UNL     1      14.157   4.121  -1.429  0.00  0.00    -0.009 C 
ATOM     13  C   UNL     1      15.383   4.092  -0.507  0.00  0.00    +0.003 C 
ATOM     14  C   UNL     1      13.958   5.519  -2.030  0.00  0.00    +0.003 C 
ATOM     16  C   UNL     1      16.639   4.585  -1.222  0.00  0.00    +0.000 C 
ATOM     17  C   UNL     1      15.217   6.010  -2.743  0.00  0.00    +0.000 C 
ATOM     18  C   UNL     1      16.434   5.972  -1.825  0.00  0.00    +0.000 C 
ENDBRANCH  15  12
ENDBRANCH  19  15
ENDBRANCH   8  19
ENDBRANCH  20  23
BRANCH   7   1
ATOM      1  S   UNL     1      10.421   5.981   3.884  0.00  0.00    +0.062 S 
ATOM      3  O   UNL     1      10.884   4.615   3.942  0.00  0.00    -0.153 OA
ATOM      4  O   UNL     1       9.463   6.413   2.894  0.00  0.00    -0.153 OA
BRANCH   1  27
ATOM     27  C   UNL     1       9.798   6.414   5.477  0.00  0.00    +0.106 A 
ATOM     29  C   UNL     1      10.150   5.655   6.593  0.00  0.00    +0.028 A 
ATOM     30  C   UNL     1       8.956   7.517   5.621  0.00  0.00    +0.028 A 
ATOM     31  C   UNL     1       9.657   5.997   7.853  0.00  0.00    +0.002 A 
ATOM     32  C   UNL     1       8.464   7.860   6.880  0.00  0.00    +0.002 A 
ATOM     35  C   UNL     1       8.815   7.100   7.996  0.00  0.00    +0.000 A 
ENDBRANCH   1  27
ENDBRANCH   7   1
BRANCH  11  28
ATOM     28  C   UNL     1      18.079   8.581   4.709  0.00  0.00    +0.068 C 
ATOM     33  C   UNL     1      18.243  10.085   4.521  0.00  0.00    +0.027 C 
ATOM     34  C   UNL     1      19.108   7.807   3.895  0.00  0.00    +0.027 C 
ENDBRANCH  11  28
TORSDOF 8
ENDMDL
MODEL 6
REMARK VINA RESULT:      -6.0      2.635      7.621
REMARK  Name = 7164973
REMARK  10 active torsions:
REMARK  status: ('A' for Active; 'I' for Inactive)
REMARK    1  A    between atoms: S_1  and  N_7
REMARK    2  A    between atoms: S_1  and  C_27
REMARK    3  A    between atoms: N_8  and  C_19
REMARK    4  A    between atoms: N_11  and  C_28
REMARK    5  A    between atoms: C_12  and  C_15
REMARK    6  A    between atoms: C_15  and  C_19
REMARK    7  A    between atoms: C_19  and  C_25
REMARK    8  A    between atoms: C_20  and  C_23
REMARK    9  A    between atoms: C_28  and  C_33
REMARK   10  A    between atoms: C_28  and  C_34
REMARK                            x       y       z     vdW  Elec       q    Type
REMARK                         _______ _______ _______ _____ _____    ______ ____
ROOT
ATOM      6  O   UNL     1      -1.955 -11.656  12.694  0.00  0.00    -0.253 OA
ATOM      7  N   UNL     1      -4.490 -10.652  16.984  0.00  0.00    -0.162 NA
ATOM      9  N   UNL     1      -3.580 -10.997  14.214  0.00  0.00    -0.282 N 
ATOM     11  N   UNL     1      -3.799 -10.522  11.915  0.00  0.00    -0.297 N 
ATOM     20  C   UNL     1      -5.444 -10.826  15.851  0.00  0.00    +0.183 C 
ATOM     21  C   UNL     1      -4.850 -10.334  14.533  0.00  0.00    +0.139 C 
ATOM     22  C   UNL     1      -3.047 -10.723  16.600  0.00  0.00    +0.129 C 
ATOM     24  C   UNL     1      -2.851 -11.565  15.348  0.00  0.00    +0.126 C 
ATOM     26  C   UNL     1      -3.034 -11.101  12.923  0.00  0.00    +0.303 C 
ATOM     39  H   UNL     1      -4.592  -9.938  12.150  0.00  0.00    +0.150 HD
ENDROOT
BRANCH  20  23
ATOM      2  O   UNL     1      -6.557  -8.883  16.660  0.00  0.00    -0.274 OA
ATOM      8  N   UNL     1      -7.828 -10.685  15.912  0.00  0.00    -0.303 N 
ATOM     23  C   UNL     1      -6.650 -10.011  16.183  0.00  0.00    +0.234 C 
ATOM     36  H   UNL     1      -7.785 -11.644  15.580  0.00  0.00    +0.149 HD
BRANCH   8  19
ATOM     19  C   UNL     1      -9.135 -10.123  16.166  0.00  0.00    +0.159 C 
BRANCH  19  25
ATOM      5  O   UNL     1      -9.555  -9.151  13.978  0.00  0.00    -0.274 OA
ATOM     10  N   UNL     1      -9.343  -7.742  15.779  0.00  0.00    -0.328 N 
ATOM     25  C   UNL     1      -9.376  -8.985  15.181  0.00  0.00    +0.231 C 
ATOM     37  H   UNL     1      -9.175  -7.617  16.771  0.00  0.00    +0.145 HD
ATOM     38  H   UNL     1      -9.482  -6.900  15.231  0.00  0.00    +0.145 HD
ENDBRANCH  19  25
BRANCH  19  15
ATOM     15  C   UNL     1      -9.306  -9.689  17.625  0.00  0.00    +0.035 C 
BRANCH  15  12
ATOM     12  C   UNL     1     -10.587 -10.196  18.283  0.00  0.00    -0.009 C 
ATOM     13  C   UNL     1     -11.719  -9.171  18.128  0.00  0.00    +0.003 C 
ATOM     14  C   UNL     1     -10.345 -10.522  19.763  0.00  0.00    +0.003 C 
ATOM     16  C   UNL     1     -12.997  -9.632  18.823  0.00  0.00    +0.000 C 
ATOM     17  C   UNL     1     -11.627 -10.981  20.456  0.00  0.00    +0.000 C 
ATOM     18  C   UNL     1     -12.751  -9.963  20.292  0.00  0.00    +0.000 C 
ENDBRANCH  15  12
ENDBRANCH  19  15
ENDBRANCH   8  19
ENDBRANCH  20  23
BRANCH   7   1
ATOM      1  S   UNL     1      -4.907 -11.401  18.470  0.00  0.00    +0.062 S 
ATOM      3  O   UNL     1      -5.829 -10.543  19.176  0.00  0.00    -0.153 OA
ATOM      4  O   UNL     1      -3.700 -11.888  19.093  0.00  0.00    -0.153 OA
BRANCH   1  27
ATOM     27  C   UNL     1      -5.810 -12.788  17.859  0.00  0.00    +0.106 A 
ATOM     29  C   UNL     1      -5.173 -13.738  17.060  0.00  0.00    +0.028 A 
ATOM     30  C   UNL     1      -7.160 -12.937  18.176  0.00  0.00    +0.028 A 
ATOM     31  C   UNL     1      -5.886 -14.835  16.577  0.00  0.00    +0.002 A 
ATOM     32  C   UNL     1      -7.874 -14.033  17.694  0.00  0.00    +0.002 A 
ATOM     35  C   UNL     1      -7.237 -14.982  16.894  0.00  0.00    +0.000 A 
ENDBRANCH   1  27
ENDBRANCH   7   1
BRANCH  11  28
ATOM     28  C   UNL     1      -3.383 -10.529  10.532  0.00  0.00    +0.068 C 
ATOM     33  C   UNL     1      -3.648  -9.172   9.892  0.00  0.00    +0.027 C 
ATOM     34  C   UNL     1      -4.085 -11.646   9.769  0.00  0.00    +0.027 C 
ENDBRANCH  11  28
TORSDOF 8
ENDMDL
MODEL 7
REMARK VINA RESULT:      -6.0     24.401     27.636
REMARK  Name = 7164973
REMARK  10 active torsions:
REMARK  status: ('A' for Active; 'I' for Inactive)
REMARK    1  A    between atoms: S_1  and  N_7
REMARK    2  A    between atoms: S_1  and  C_27
REMARK    3  A    between atoms: N_8  and  C_19
REMARK    4  A    between atoms: N_11  and  C_28
REMARK    5  A    between atoms: C_12  and  C_15
REMARK    6  A    between atoms: C_15  and  C_19
REMARK    7  A    between atoms: C_19  and  C_25
REMARK    8  A    between atoms: C_20  and  C_23
REMARK    9  A    between atoms: C_28  and  C_33
REMARK   10  A    between atoms: C_28  and  C_34
REMARK                            x       y       z     vdW  Elec       q    Type
REMARK                         _______ _______ _______ _____ _____    ______ ____
ROOT
ATOM      6  O   UNL     1      14.632   6.930   0.804  0.00  0.00    -0.253 OA
ATOM      7  N   UNL     1      12.948   9.359   4.939  0.00  0.00    -0.162 NA
ATOM      9  N   UNL     1      13.767   7.408   2.904  0.00  0.00    -0.282 N 
ATOM     11  N   UNL     1      13.742   5.212   2.048  0.00  0.00    -0.297 N 
ATOM     20  C   UNL     1      13.370   7.973   5.293  0.00  0.00    +0.183 C 
ATOM     21  C   UNL     1      13.110   6.995   4.149  0.00  0.00    +0.139 C 
ATOM     22  C   UNL     1      13.029   9.683   3.482  0.00  0.00    +0.129 C 
ATOM     24  C   UNL     1      14.082   8.832   2.787  0.00  0.00    +0.126 C 
ATOM     26  C   UNL     1      14.090   6.543   1.844  0.00  0.00    +0.303 C 
ATOM     39  H   UNL     1      13.157   4.953   2.833  0.00  0.00    +0.150 HD
ENDROOT
BRANCH  20  23
ATOM      2  O   UNL     1      13.078   7.304   7.559  0.00  0.00    -0.274 OA
ATOM      8  N   UNL     1      11.204   7.523   6.194  0.00  0.00    -0.303 N 
ATOM     23  C   UNL     1      12.558   7.571   6.479  0.00  0.00    +0.234 C 
ATOM     36  H   UNL     1      10.892   7.699   5.244  0.00  0.00    +0.149 HD
BRANCH   8  19
ATOM     19  C   UNL     1      10.207   7.139   7.167  0.00  0.00    +0.159 C 
BRANCH  19  25
ATOM      5  O   UNL     1      10.701   5.235   8.593  0.00  0.00    -0.274 OA
ATOM     10  N   UNL     1      10.166   4.846   6.394  0.00  0.00    -0.328 N 
ATOM     25  C   UNL     1      10.379   5.660   7.487  0.00  0.00    +0.231 C 
ATOM     37  H   UNL     1       9.919   5.211   5.481  0.00  0.00    +0.145 HD
ATOM     38  H   UNL     1      10.257   3.839   6.472  0.00  0.00    +0.145 HD
ENDBRANCH  19  25
BRANCH  19  15
ATOM     15  C   UNL     1       8.786   7.484   6.707  0.00  0.00    +0.035 C 
BRANCH  15  12
ATOM     12  C   UNL     1       8.726   8.265   5.396  0.00  0.00    -0.009 C 
ATOM     13  C   UNL     1       7.645   9.352   5.461  0.00  0.00    +0.003 C 
ATOM     14  C   UNL     1       8.478   7.319   4.213  0.00  0.00    +0.003 C 
ATOM     16  C   UNL     1       7.528  10.112   4.142  0.00  0.00    +0.000 C 
ATOM     17  C   UNL     1       8.360   8.083   2.895  0.00  0.00    +0.000 C 
ATOM     18  C   UNL     1       7.290   9.167   2.968  0.00  0.00    +0.000 C 
ENDBRANCH  15  12
ENDBRANCH  19  15
ENDBRANCH   8  19
ENDBRANCH  20  23
BRANCH   7   1
ATOM      1  S   UNL     1      13.421  10.610   6.012  0.00  0.00    +0.062 S 
ATOM      3  O   UNL     1      13.725  11.791   5.239  0.00  0.00    -0.153 OA
ATOM      4  O   UNL     1      14.361  10.067   6.964  0.00  0.00    -0.153 OA
BRANCH   1  27
ATOM     27  C   UNL     1      11.889  10.882   6.844  0.00  0.00    +0.106 A 
ATOM     29  C   UNL     1      10.831  11.495   6.174  0.00  0.00    +0.028 A 
ATOM     30  C   UNL     1      11.735  10.481   8.172  0.00  0.00    +0.028 A 
ATOM     31  C   UNL     1       9.619  11.710   6.832  0.00  0.00    +0.002 A 
ATOM     32  C   UNL     1      10.525  10.695   8.830  0.00  0.00    +0.002 A 
ATOM     35  C   UNL     1       9.466  11.310   8.159  0.00  0.00    +0.000 A 
ENDBRANCH   1  27
ENDBRANCH   7   1
BRANCH  11  28
ATOM     28  C   UNL     1      13.991   4.189   1.058  0.00  0.00    +0.068 C 
ATOM     33  C   UNL     1      12.903   3.124   1.111  0.00  0.00    +0.027 C 
ATOM     34  C   UNL     1      15.372   3.578   1.257  0.00  0.00    +0.027 C 
ENDBRANCH  11  28
TORSDOF 8
ENDMDL
MODEL 8
REMARK VINA RESULT:      -6.0      1.843      2.654
REMARK  Name = 7164973
REMARK  10 active torsions:
REMARK  status: ('A' for Active; 'I' for Inactive)
REMARK    1  A    between atoms: S_1  and  N_7
REMARK    2  A    between atoms: S_1  and  C_27
REMARK    3  A    between atoms: N_8  and  C_19
REMARK    4  A    between atoms: N_11  and  C_28
REMARK    5  A    between atoms: C_12  and  C_15
REMARK    6  A    between atoms: C_15  and  C_19
REMARK    7  A    between atoms: C_19  and  C_25
REMARK    8  A    between atoms: C_20  and  C_23
REMARK    9  A    between atoms: C_28  and  C_33
REMARK   10  A    between atoms: C_28  and  C_34
REMARK                            x       y       z     vdW  Elec       q    Type
REMARK                         _______ _______ _______ _____ _____    ______ ____
ROOT
ATOM      6  O   UNL     1      -7.262  -9.256  17.855  0.00  0.00    -0.253 OA
ATOM      7  N   UNL     1      -4.498 -11.011  13.967  0.00  0.00    -0.162 NA
ATOM      9  N   UNL     1      -6.523  -9.822  15.729  0.00  0.00    -0.282 N 
ATOM     11  N   UNL     1      -8.719  -9.041  16.087  0.00  0.00    -0.297 N 
ATOM     20  C   UNL     1      -5.447  -9.962  13.492  0.00  0.00    +0.183 C 
ATOM     21  C   UNL     1      -6.750  -9.979  14.288  0.00  0.00    +0.139 C 
ATOM     22  C   UNL     1      -4.630 -11.361  15.414  0.00  0.00    +0.129 C 
ATOM     24  C   UNL     1      -5.195 -10.195  16.213  0.00  0.00    +0.126 C 
ATOM     26  C   UNL     1      -7.485  -9.362  16.645  0.00  0.00    +0.303 C 
ATOM     39  H   UNL     1      -8.923  -9.290  15.127  0.00  0.00    +0.150 HD
ENDROOT
BRANCH  20  23
ATOM      2  O   UNL     1      -6.062 -11.397  11.695  0.00  0.00    -0.274 OA
ATOM      8  N   UNL     1      -5.578  -9.165  11.244  0.00  0.00    -0.303 N 
ATOM     23  C   UNL     1      -5.739 -10.271  12.061  0.00  0.00    +0.234 C 
ATOM     36  H   UNL     1      -5.241  -8.296  11.647  0.00  0.00    +0.149 HD
BRANCH   8  19
ATOM     19  C   UNL     1      -5.778  -9.206   9.813  0.00  0.00    +0.159 C 
BRANCH  19  25
ATOM      5  O   UNL     1      -4.470 -10.664   8.376  0.00  0.00    -0.274 OA
ATOM     10  N   UNL     1      -3.379  -9.021   9.551  0.00  0.00    -0.328 N 
ATOM     25  C   UNL     1      -4.503  -9.716   9.155  0.00  0.00    +0.231 C 
ATOM     37  H   UNL     1      -3.417  -8.252  10.211  0.00  0.00    +0.145 HD
ATOM     38  H   UNL     1      -2.464  -9.266   9.192  0.00  0.00    +0.145 HD
ENDBRANCH  19  25
BRANCH  19  15
ATOM     15  C   UNL     1      -6.234  -7.854   9.254  0.00  0.00    +0.035 C 
BRANCH  15  12
ATOM     12  C   UNL     1      -7.555  -7.905   8.491  0.00  0.00    -0.009 C 
ATOM     13  C   UNL     1      -7.416  -8.754   7.220  0.00  0.00    +0.003 C 
ATOM     14  C   UNL     1      -8.040  -6.489   8.150  0.00  0.00    +0.003 C 
ATOM     16  C   UNL     1      -8.711  -8.778   6.412  0.00  0.00    +0.000 C 
ATOM     17  C   UNL     1      -9.335  -6.516   7.340  0.00  0.00    +0.000 C 
ATOM     18  C   UNL     1      -9.193  -7.368   6.083  0.00  0.00    +0.000 C 
ENDBRANCH  15  12
ENDBRANCH  19  15
ENDBRANCH   8  19
ENDBRANCH  20  23
BRANCH   7   1
ATOM      1  S   UNL     1      -2.898 -10.941  13.355  0.00  0.00    +0.062 S 
ATOM      3  O   UNL     1      -2.010 -10.558  14.427  0.00  0.00    -0.153 OA
ATOM      4  O   UNL     1      -2.917 -10.229  12.099  0.00  0.00    -0.153 OA
BRANCH   1  27
ATOM     27  C   UNL     1      -2.636 -12.652  13.014  0.00  0.00    +0.106 A 
ATOM     29  C   UNL     1      -1.957 -13.451  13.934  0.00  0.00    +0.028 A 
ATOM     30  C   UNL     1      -3.111 -13.207  11.826  0.00  0.00    +0.028 A 
ATOM     31  C   UNL     1      -1.750 -14.804  13.665  0.00  0.00    +0.002 A 
ATOM     32  C   UNL     1      -2.905 -14.560  11.556  0.00  0.00    +0.002 A 
ATOM     35  C   UNL     1      -2.224 -15.358  12.476  0.00  0.00    +0.000 A 
ENDBRANCH   1  27
ENDBRANCH   7   1
BRANCH  11  28
ATOM     28  C   UNL     1      -9.824  -8.562  16.885  0.00  0.00    +0.068 C 
ATOM     33  C   UNL     1     -10.812  -9.691  17.155  0.00  0.00    +0.027 C 
ATOM     34  C   UNL     1     -10.506  -7.384  16.200  0.00  0.00    +0.027 C 
ENDBRANCH  11  28
TORSDOF 8
ENDMDL
MODEL 9
REMARK VINA RESULT:      -6.0     23.728     26.080
REMARK  Name = 7164973
REMARK  10 active torsions:
REMARK  status: ('A' for Active; 'I' for Inactive)
REMARK    1  A    between atoms: S_1  and  N_7
REMARK    2  A    between atoms: S_1  and  C_27
REMARK    3  A    between atoms: N_8  and  C_19
REMARK    4  A    between atoms: N_11  and  C_28
REMARK    5  A    between atoms: C_12  and  C_15
REMARK    6  A    between atoms: C_15  and  C_19
REMARK    7  A    between atoms: C_19  and  C_25
REMARK    8  A    between atoms: C_20  and  C_23
REMARK    9  A    between atoms: C_28  and  C_33
REMARK   10  A    between atoms: C_28  and  C_34
REMARK                            x       y       z     vdW  Elec       q    Type
REMARK                         _______ _______ _______ _____ _____    ______ ____
ROOT
ATOM      6  O   UNL     1       5.447  10.117   3.644  0.00  0.00    -0.253 OA
ATOM      7  N   UNL     1       9.741   7.399   3.759  0.00  0.00    -0.162 NA
ATOM      9  N   UNL     1       7.414   9.040   3.045  0.00  0.00    -0.282 N 
ATOM     11  N   UNL     1       5.984   9.962   1.412  0.00  0.00    -0.297 N 
ATOM     20  C   UNL     1       9.759   8.340   2.602  0.00  0.00    +0.183 C 
ATOM     21  C   UNL     1       8.359   8.558   2.031  0.00  0.00    +0.139 C 
ATOM     22  C   UNL     1       8.470   7.404   4.547  0.00  0.00    +0.129 C 
ATOM     24  C   UNL     1       7.758   8.744   4.435  0.00  0.00    +0.126 C 
ATOM     26  C   UNL     1       6.226   9.738   2.764  0.00  0.00    +0.303 C 
ATOM     39  H   UNL     1       6.552   9.502   0.710  0.00  0.00    +0.150 HD
ENDROOT
BRANCH  20  23
ATOM      2  O   UNL     1      11.591   8.303   1.083  0.00  0.00    -0.274 OA
ATOM      8  N   UNL     1      10.189   6.449   1.207  0.00  0.00    -0.303 N 
ATOM     23  C   UNL     1      10.625   7.715   1.559  0.00  0.00    +0.234 C 
ATOM     36  H   UNL     1       9.334   6.088   1.620  0.00  0.00    +0.149 HD
BRANCH   8  19
ATOM     19  C   UNL     1      10.842   5.641   0.203  0.00  0.00    +0.159 C 
BRANCH  19  25
ATOM      5  O   UNL     1       9.416   4.745  -1.548  0.00  0.00    -0.274 OA
ATOM     10  N   UNL     1      10.068   6.943  -1.685  0.00  0.00    -0.328 N 
ATOM     25  C   UNL     1      10.026   5.703  -1.081  0.00  0.00    +0.231 C 
ATOM     37  H   UNL     1      10.591   7.721  -1.299  0.00  0.00    +0.145 HD
ATOM     38  H   UNL     1       9.571   7.114  -2.552  0.00  0.00    +0.145 HD
ENDBRANCH  19  25
BRANCH  19  15
ATOM     15  C   UNL     1      11.084   4.206   0.683  0.00  0.00    +0.035 C 
BRANCH  15  12
ATOM     12  C   UNL     1      12.518   3.716   0.493  0.00  0.00    -0.009 C 
ATOM     13  C   UNL     1      13.343   3.945   1.767  0.00  0.00    +0.003 C 
ATOM     14  C   UNL     1      13.172   4.406  -0.712  0.00  0.00    +0.003 C 
ATOM     16  C   UNL     1      14.795   3.512   1.585  0.00  0.00    +0.000 C 
ATOM     17  C   UNL     1      14.625   3.971  -0.890  0.00  0.00    +0.000 C 
ATOM     18  C   UNL     1      15.439   4.193   0.380  0.00  0.00    +0.000 C 
ENDBRANCH  15  12
ENDBRANCH  19  15
ENDBRANCH   8  19
ENDBRANCH  20  23
BRANCH   7   1
ATOM      1  S   UNL     1      11.187   7.265   4.671  0.00  0.00    +0.062 S 
ATOM      3  O   UNL     1      11.488   8.552   5.250  0.00  0.00    -0.153 OA
ATOM      4  O   UNL     1      12.160   6.545   3.884  0.00  0.00    -0.153 OA
BRANCH   1  27
ATOM     27  C   UNL     1      10.626   6.202   5.961  0.00  0.00    +0.106 A 
ATOM     29  C   UNL     1      10.186   4.913   5.661  0.00  0.00    +0.028 A 
ATOM     30  C   UNL     1      10.625   6.649   7.283  0.00  0.00    +0.028 A 
ATOM     31  C   UNL     1       9.742   4.071   6.682  0.00  0.00    +0.002 A 
ATOM     32  C   UNL     1      10.182   5.808   8.304  0.00  0.00    +0.002 A 
ATOM     35  C   UNL     1       9.741   4.519   8.003  0.00  0.00    +0.000 A 
ENDBRANCH   1  27
ENDBRANCH   7   1
BRANCH  11  28
ATOM     28  C   UNL     1       4.806  10.655   0.944  0.00  0.00    +0.068 C 
ATOM     33  C   UNL     1       3.832   9.672   0.306  0.00  0.00    +0.027 C 
ATOM     34  C   UNL     1       5.189  11.764  -0.028  0.00  0.00    +0.027 C 
ENDBRANCH  11  28
TORSDOF 8
ENDMDL
MODEL 10
REMARK VINA RESULT:      -5.9      2.150      6.920
REMARK  Name = 7164973
REMARK  10 active torsions:
REMARK  status: ('A' for Active; 'I' for Inactive)
REMARK    1  A    between atoms: S_1  and  N_7
REMARK    2  A    between atoms: S_1  and  C_27
REMARK    3  A    between atoms: N_8  and  C_19
REMARK    4  A    between atoms: N_11  and  C_28
REMARK    5  A    between atoms: C_12  and  C_15
REMARK    6  A    between atoms: C_15  and  C_19
REMARK    7  A    between atoms: C_19  and  C_25
REMARK    8  A    between atoms: C_20  and  C_23
REMARK    9  A    between atoms: C_28  and  C_33
REMARK   10  A    between atoms: C_28  and  C_34
REMARK                            x       y       z     vdW  Elec       q    Type
REMARK                         _______ _______ _______ _____ _____    ______ ____
ROOT
ATOM      6  O   UNL     1      -2.312 -11.680  12.515  0.00  0.00    -0.253 OA
ATOM      7  N   UNL     1      -4.596 -10.881  16.984  0.00  0.00    -0.162 NA
ATOM      9  N   UNL     1      -3.813 -11.025  14.159  0.00  0.00    -0.282 N 
ATOM     11  N   UNL     1      -4.053 -10.295  11.930  0.00  0.00    -0.297 N 
ATOM     20  C   UNL     1      -5.598 -10.840  15.880  0.00  0.00    +0.183 C 
ATOM     21  C   UNL     1      -4.997 -10.276  14.595  0.00  0.00    +0.139 C 
ATOM     22  C   UNL     1      -3.181 -11.054  16.536  0.00  0.00    +0.129 C 
ATOM     24  C   UNL     1      -3.112 -11.777  15.199  0.00  0.00    +0.126 C 
ATOM     26  C   UNL     1      -3.321 -11.048  12.842  0.00  0.00    +0.303 C 
ATOM     39  H   UNL     1      -4.773  -9.662  12.255  0.00  0.00    +0.150 HD
ENDROOT
BRANCH  20  23
ATOM      2  O   UNL     1      -6.492  -8.797  16.713  0.00  0.00    -0.274 OA
ATOM      8  N   UNL     1      -7.933 -10.582  16.315  0.00  0.00    -0.303 N 
ATOM     23  C   UNL     1      -6.702  -9.948  16.341  0.00  0.00    +0.234 C 
ATOM     36  H   UNL     1      -7.979 -11.562  16.052  0.00  0.00    +0.149 HD
BRANCH   8  19
ATOM     19  C   UNL     1      -9.159  -9.942  16.734  0.00  0.00    +0.159 C 
BRANCH  19  25
ATOM      5  O   UNL     1     -10.605 -11.519  17.886  0.00  0.00    -0.274 OA
ATOM     10  N   UNL     1      -9.110 -10.296  19.128  0.00  0.00    -0.328 N 
ATOM     25  C   UNL     1      -9.707 -10.684  17.947  0.00  0.00    +0.231 C 
ATOM     37  H   UNL     1      -8.382  -9.590  19.167  0.00  0.00    +0.145 HD
ATOM     38  H   UNL     1      -9.390 -10.709  20.010  0.00  0.00    +0.145 HD
ENDBRANCH  19  25
BRANCH  19  15
ATOM     15  C   UNL     1     -10.177  -9.838  15.593  0.00  0.00    +0.035 C 
BRANCH  15  12
ATOM     12  C   UNL     1     -11.084  -8.612  15.674  0.00  0.00    -0.009 C 
ATOM     13  C   UNL     1     -11.630  -8.248  14.287  0.00  0.00    +0.003 C 
ATOM     14  C   UNL     1     -10.337  -7.424  16.296  0.00  0.00    +0.003 C 
ATOM     16  C   UNL     1     -12.498  -6.993  14.334  0.00  0.00    +0.000 C 
ATOM     17  C   UNL     1     -11.208  -6.171  16.340  0.00  0.00    +0.000 C 
ATOM     18  C   UNL     1     -11.754  -5.817  14.960  0.00  0.00    +0.000 C 
ENDBRANCH  15  12
ENDBRANCH  19  15
ENDBRANCH   8  19
ENDBRANCH  20  23
BRANCH   7   1
ATOM      1  S   UNL     1      -5.042 -11.734  18.404  0.00  0.00    +0.062 S 
ATOM      3  O   UNL     1      -6.120 -11.024  19.050  0.00  0.00    -0.153 OA
ATOM      4  O   UNL     1      -3.841 -12.097  19.118  0.00  0.00    -0.153 OA
BRANCH   1  27
ATOM     27  C   UNL     1      -5.711 -13.194  17.673  0.00  0.00    +0.106 A 
ATOM     29  C   UNL     1      -7.089 -13.408  17.677  0.00  0.00    +0.028 A 
ATOM     30  C   UNL     1      -4.861 -14.134  17.090  0.00  0.00    +0.028 A 
ATOM     31  C   UNL     1      -7.618 -14.563  17.100  0.00  0.00    +0.002 A 
ATOM     32  C   UNL     1      -5.389 -15.289  16.512  0.00  0.00    +0.002 A 
ATOM     35  C   UNL     1      -6.767 -15.503  16.517  0.00  0.00    +0.000 A 
ENDBRANCH   1  27
ENDBRANCH   7   1
BRANCH  11  28
ATOM     28  C   UNL     1      -3.683 -10.199  10.537  0.00  0.00    +0.068 C 
ATOM     33  C   UNL     1      -4.002  -8.810   9.997  0.00  0.00    +0.027 C 
ATOM     34  C   UNL     1      -4.381 -11.281   9.723  0.00  0.00    +0.027 C 
ENDBRANCH  11  28
TORSDOF 8
ENDMDL
