MODEL 1
REMARK VINA RESULT:      -8.1      0.000      0.000
REMARK  Name = 26763244
REMARK  4 active torsions:
REMARK  status: ('A' for Active; 'I' for Inactive)
REMARK    1  A    between atoms: C_10  and  C_18
REMARK    2  A    between atoms: C_15  and  C_22
REMARK    3  A    between atoms: C_17  and  C_23
REMARK    4  A    between atoms: C_25  and  C_26
REMARK                            x       y       z     vdW  Elec       q    Type
REMARK                         _______ _______ _______ _____ _____    ______ ____
ROOT
ATOM      1  S   UNL     1      17.668   5.804  19.034  0.00  0.00    -0.057 S 
ATOM      4  O   UNL     1      14.791  11.186  22.267  0.00  0.00    -0.461 OA
ATOM      5  O   UNL     1      13.876  13.142  23.060  0.00  0.00    -0.251 OA
ATOM      6  O   UNL     1      21.181   6.365  22.074  0.00  0.00    -0.270 OA
ATOM      7  N   UNL     1      18.431   7.134  21.116  0.00  0.00    -0.229 NA
ATOM      8  N   UNL     1      19.976   5.506  20.240  0.00  0.00    -0.261 N 
ATOM      9  C   UNL     1      15.179   9.141  20.846  0.00  0.00    +0.045 C 
ATOM     10  C   UNL     1      14.353   7.945  20.200  0.00  0.00    -0.021 C 
ATOM     11  C   UNL     1      14.238   9.988  21.721  0.00  0.00    +0.184 C 
ATOM     12  C   UNL     1      13.091  10.528  20.887  0.00  0.00    +0.044 C 
ATOM     13  C   UNL     1      13.073   8.481  19.486  0.00  0.00    +0.008 C 
ATOM     14  C   UNL     1      12.215   9.411  20.357  0.00  0.00    +0.008 C 
ATOM     15  C   UNL     1      16.473   8.651  21.589  0.00  0.00    +0.043 C 
ATOM     16  C   UNL     1      15.241   7.231  19.133  0.00  0.00    +0.051 C 
ATOM     17  C   UNL     1      12.488  11.527  21.857  0.00  0.00    +0.101 C 
ATOM     18  C   UNL     1      13.909   6.900  21.257  0.00  0.00    +0.012 C 
ATOM     19  C   UNL     1      17.170   7.588  20.774  0.00  0.00    +0.057 A 
ATOM     20  C   UNL     1      16.598   6.958  19.686  0.00  0.00    +0.015 A 
ATOM     21  C   UNL     1      13.761  12.079  22.470  0.00  0.00    +0.311 C 
ATOM     22  C   UNL     1      17.441   9.800  21.903  0.00  0.00    +0.014 C 
ATOM     23  C   UNL     1      11.654  12.595  21.176  0.00  0.00    +0.019 C 
ATOM     24  C   UNL     1      18.798   6.203  20.264  0.00  0.00    +0.165 A 
ATOM     25  C   UNL     1      21.087   5.608  21.114  0.00  0.00    +0.255 C 
ATOM     32  H   UNL     1      20.025   4.818  19.491  0.00  0.00    +0.157 HD
ENDROOT
BRANCH  25  26
ATOM      2  F   UNL     1      20.937   2.828  21.574  0.00  0.00    -0.205 F 
ATOM      3  F   UNL     1      23.564   6.501  20.100  0.00  0.00    -0.205 F 
ATOM     26  C   UNL     1      22.221   4.688  20.844  0.00  0.00    +0.107 A 
ATOM     27  C   UNL     1      22.087   3.321  21.092  0.00  0.00    +0.138 A 
ATOM     28  C   UNL     1      23.423   5.190  20.342  0.00  0.00    +0.138 A 
ATOM     29  C   UNL     1      23.152   2.458  20.839  0.00  0.00    +0.039 A 
ATOM     30  C   UNL     1      24.488   4.326  20.088  0.00  0.00    +0.039 A 
ATOM     31  C   UNL     1      24.353   2.960  20.337  0.00  0.00    +0.006 A 
ENDBRANCH  25  26
TORSDOF 1
ENDMDL
MODEL 2
REMARK VINA RESULT:      -7.6     29.482     32.508
REMARK  Name = 26763244
REMARK  4 active torsions:
REMARK  status: ('A' for Active; 'I' for Inactive)
REMARK    1  A    between atoms: C_10  and  C_18
REMARK    2  A    between atoms: C_15  and  C_22
REMARK    3  A    between atoms: C_17  and  C_23
REMARK    4  A    between atoms: C_25  and  C_26
REMARK                            x       y       z     vdW  Elec       q    Type
REMARK                         _______ _______ _______ _____ _____    ______ ____
ROOT
ATOM      1  S   UNL     1      -6.707 -10.802  18.998  0.00  0.00    -0.057 S 
ATOM      4  O   UNL     1      -4.785 -10.231  12.389  0.00  0.00    -0.461 OA
ATOM      5  O   UNL     1      -4.064  -9.730  10.264  0.00  0.00    -0.251 OA
ATOM      6  O   UNL     1     -11.041 -11.234  17.285  0.00  0.00    -0.270 OA
ATOM      7  N   UNL     1      -8.075 -11.007  16.813  0.00  0.00    -0.229 NA
ATOM      8  N   UNL     1      -9.317 -11.020  18.878  0.00  0.00    -0.261 N 
ATOM      9  C   UNL     1      -4.793 -10.559  14.888  0.00  0.00    +0.045 C 
ATOM     10  C   UNL     1      -3.897 -11.223  16.022  0.00  0.00    -0.021 C 
ATOM     11  C   UNL     1      -4.179 -10.871  13.512  0.00  0.00    +0.184 C 
ATOM     12  C   UNL     1      -2.758 -10.344  13.440  0.00  0.00    +0.044 C 
ATOM     13  C   UNL     1      -2.400 -10.822  15.847  0.00  0.00    +0.008 C 
ATOM     14  C   UNL     1      -1.853 -11.049  14.430  0.00  0.00    +0.008 C 
ATOM     15  C   UNL     1      -6.311 -10.943  15.013  0.00  0.00    +0.043 C 
ATOM     16  C   UNL     1      -4.378 -10.713  17.416  0.00  0.00    +0.051 C 
ATOM     17  C   UNL     1      -2.477 -10.503  11.957  0.00  0.00    +0.101 C 
ATOM     18  C   UNL     1      -3.982 -12.773  16.003  0.00  0.00    +0.012 C 
ATOM     19  C   UNL     1      -6.742 -10.898  16.459  0.00  0.00    +0.057 A 
ATOM     20  C   UNL     1      -5.862 -10.805  17.518  0.00  0.00    +0.015 A 
ATOM     21  C   UNL     1      -3.831 -10.103  11.403  0.00  0.00    +0.311 C 
ATOM     22  C   UNL     1      -7.216 -10.046  14.158  0.00  0.00    +0.014 C 
ATOM     23  C   UNL     1      -1.355  -9.613  11.461  0.00  0.00    +0.019 C 
ATOM     24  C   UNL     1      -8.176 -10.958  18.123  0.00  0.00    +0.165 A 
ATOM     25  C   UNL     1     -10.660 -11.151  18.449  0.00  0.00    +0.255 C 
ATOM     32  H   UNL     1      -9.141 -10.981  19.879  0.00  0.00    +0.157 HD
ENDROOT
BRANCH  25  26
ATOM      2  F   UNL     1     -11.020 -13.428  20.075  0.00  0.00    -0.205 F 
ATOM      3  F   UNL     1     -12.409  -9.011  19.018  0.00  0.00    -0.205 F 
ATOM     26  C   UNL     1     -11.688 -11.219  19.520  0.00  0.00    +0.107 A 
ATOM     27  C   UNL     1     -11.818 -12.373  20.291  0.00  0.00    +0.138 A 
ATOM     28  C   UNL     1     -12.525 -10.126  19.754  0.00  0.00    +0.138 A 
ATOM     29  C   UNL     1     -12.783 -12.436  21.296  0.00  0.00    +0.039 A 
ATOM     30  C   UNL     1     -13.489 -10.189  20.759  0.00  0.00    +0.039 A 
ATOM     31  C   UNL     1     -13.619 -11.344  21.530  0.00  0.00    +0.006 A 
ENDBRANCH  25  26
TORSDOF 1
ENDMDL
MODEL 3
REMARK VINA RESULT:      -7.5     30.300     32.602
REMARK  Name = 26763244
REMARK  4 active torsions:
REMARK  status: ('A' for Active; 'I' for Inactive)
REMARK    1  A    between atoms: C_10  and  C_18
REMARK    2  A    between atoms: C_15  and  C_22
REMARK    3  A    between atoms: C_17  and  C_23
REMARK    4  A    between atoms: C_25  and  C_26
REMARK                            x       y       z     vdW  Elec       q    Type
REMARK                         _______ _______ _______ _____ _____    ______ ____
ROOT
ATOM      1  S   UNL     1      -8.231  -9.135  16.938  0.00  0.00    -0.057 S 
ATOM      4  O   UNL     1     -11.237 -13.347  21.511  0.00  0.00    -0.461 OA
ATOM      5  O   UNL     1     -12.159 -14.522  23.261  0.00  0.00    -0.251 OA
ATOM      6  O   UNL     1      -5.038 -12.531  16.510  0.00  0.00    -0.270 OA
ATOM      7  N   UNL     1      -7.643 -11.548  17.659  0.00  0.00    -0.229 NA
ATOM      8  N   UNL     1      -6.073 -10.435  16.208  0.00  0.00    -0.261 N 
ATOM      9  C   UNL     1     -10.775 -11.496  19.864  0.00  0.00    +0.045 C 
ATOM     10  C   UNL     1     -11.570 -10.494  18.919  0.00  0.00    -0.021 C 
ATOM     11  C   UNL     1     -11.771 -12.466  20.523  0.00  0.00    +0.184 C 
ATOM     12  C   UNL     1     -12.805 -11.694  21.322  0.00  0.00    +0.044 C 
ATOM     13  C   UNL     1     -12.748  -9.825  19.693  0.00  0.00    +0.008 C 
ATOM     14  C   UNL     1     -13.659 -10.819  20.427  0.00  0.00    +0.008 C 
ATOM     15  C   UNL     1      -9.584 -12.207  19.127  0.00  0.00    +0.043 C 
ATOM     16  C   UNL     1     -10.602  -9.368  18.441  0.00  0.00    +0.051 C 
ATOM     17  C   UNL     1     -13.471 -12.826  22.083  0.00  0.00    +0.101 C 
ATOM     18  C   UNL     1     -12.160 -11.206  17.673  0.00  0.00    +0.012 C 
ATOM     19  C   UNL     1      -8.844 -11.217  18.259  0.00  0.00    +0.057 A 
ATOM     20  C   UNL     1      -9.321  -9.957  17.956  0.00  0.00    +0.015 A 
ATOM     21  C   UNL     1     -12.250 -13.673  22.387  0.00  0.00    +0.311 C 
ATOM     22  C   UNL     1      -8.615 -12.891  20.100  0.00  0.00    +0.014 C 
ATOM     23  C   UNL     1     -14.189 -12.364  23.336  0.00  0.00    +0.019 C 
ATOM     24  C   UNL     1      -7.222 -10.525  16.948  0.00  0.00    +0.165 A 
ATOM     25  C   UNL     1      -5.058 -11.405  16.022  0.00  0.00    +0.255 C 
ATOM     32  H   UNL     1      -5.971  -9.544  15.727  0.00  0.00    +0.157 HD
ENDROOT
BRANCH  25  26
ATOM      2  F   UNL     1      -2.469 -10.840  16.990  0.00  0.00    -0.205 F 
ATOM      3  F   UNL     1      -5.344 -11.173  13.224  0.00  0.00    -0.205 F 
ATOM     26  C   UNL     1      -3.935 -11.017  15.130  0.00  0.00    +0.107 A 
ATOM     27  C   UNL     1      -2.676 -10.749  15.669  0.00  0.00    +0.138 A 
ATOM     28  C   UNL     1      -4.139 -10.919  13.753  0.00  0.00    +0.138 A 
ATOM     29  C   UNL     1      -1.622 -10.385  14.832  0.00  0.00    +0.039 A 
ATOM     30  C   UNL     1      -3.084 -10.555  12.916  0.00  0.00    +0.039 A 
ATOM     31  C   UNL     1      -1.826 -10.287  13.455  0.00  0.00    +0.006 A 
ENDBRANCH  25  26
TORSDOF 1
ENDMDL
MODEL 4
REMARK VINA RESULT:      -7.2     21.061     23.251
REMARK  Name = 26763244
REMARK  4 active torsions:
REMARK  status: ('A' for Active; 'I' for Inactive)
REMARK    1  A    between atoms: C_10  and  C_18
REMARK    2  A    between atoms: C_15  and  C_22
REMARK    3  A    between atoms: C_17  and  C_23
REMARK    4  A    between atoms: C_25  and  C_26
REMARK                            x       y       z     vdW  Elec       q    Type
REMARK                         _______ _______ _______ _____ _____    ______ ____
ROOT
ATOM      1  S   UNL     1      12.755   3.629   1.332  0.00  0.00    -0.057 S 
ATOM      4  O   UNL     1      10.218   6.066  -4.610  0.00  0.00    -0.461 OA
ATOM      5  O   UNL     1       9.669   7.017  -6.632  0.00  0.00    -0.251 OA
ATOM      6  O   UNL     1       9.625   6.453   3.365  0.00  0.00    -0.270 OA
ATOM      7  N   UNL     1      10.784   5.236   0.865  0.00  0.00    -0.229 NA
ATOM      8  N   UNL     1      11.419   4.936   3.171  0.00  0.00    -0.261 N 
ATOM      9  C   UNL     1      11.406   4.680  -2.874  0.00  0.00    +0.045 C 
ATOM     10  C   UNL     1      11.967   3.203  -2.683  0.00  0.00    -0.021 C 
ATOM     11  C   UNL     1      10.666   4.768  -4.220  0.00  0.00    +0.184 C 
ATOM     12  C   UNL     1      11.603   4.408  -5.358  0.00  0.00    +0.044 C 
ATOM     13  C   UNL     1      12.790   2.761  -3.933  0.00  0.00    +0.008 C 
ATOM     14  C   UNL     1      12.058   2.965  -5.268  0.00  0.00    +0.008 C 
ATOM     15  C   UNL     1      10.558   5.168  -1.645  0.00  0.00    +0.043 C 
ATOM     16  C   UNL     1      12.914   3.174  -1.443  0.00  0.00    +0.051 C 
ATOM     17  C   UNL     1      10.768   4.833  -6.551  0.00  0.00    +0.101 C 
ATOM     18  C   UNL     1      10.832   2.167  -2.467  0.00  0.00    +0.012 C 
ATOM     19  C   UNL     1      11.228   4.760  -0.355  0.00  0.00    +0.057 A 
ATOM     20  C   UNL     1      12.273   3.860  -0.285  0.00  0.00    +0.015 A 
ATOM     21  C   UNL     1      10.155   6.101  -5.987  0.00  0.00    +0.311 C 
ATOM     22  C   UNL     1      10.316   6.683  -1.664  0.00  0.00    +0.014 C 
ATOM     23  C   UNL     1      11.591   5.086  -7.799  0.00  0.00    +0.019 C 
ATOM     24  C   UNL     1      11.520   4.716   1.823  0.00  0.00    +0.165 A 
ATOM     25  C   UNL     1      10.508   5.766   3.869  0.00  0.00    +0.255 C 
ATOM     32  H   UNL     1      12.091   4.405   3.719  0.00  0.00    +0.157 HD
ENDROOT
BRANCH  25  26
ATOM      2  F   UNL     1      12.561   7.152   5.220  0.00  0.00    -0.205 F 
ATOM      3  F   UNL     1       8.706   4.397   5.555  0.00  0.00    -0.205 F 
ATOM     26  C   UNL     1      10.631   5.775   5.350  0.00  0.00    +0.107 A 
ATOM     27  C   UNL     1      11.668   6.479   5.961  0.00  0.00    +0.138 A 
ATOM     28  C   UNL     1       9.708   5.077   6.131  0.00  0.00    +0.138 A 
ATOM     29  C   UNL     1      11.783   6.487   7.351  0.00  0.00    +0.039 A 
ATOM     30  C   UNL     1       9.823   5.086   7.521  0.00  0.00    +0.039 A 
ATOM     31  C   UNL     1      10.860   5.790   8.131  0.00  0.00    +0.006 A 
ENDBRANCH  25  26
TORSDOF 1
ENDMDL
MODEL 5
REMARK VINA RESULT:      -7.1     30.037     33.346
REMARK  Name = 26763244
REMARK  4 active torsions:
REMARK  status: ('A' for Active; 'I' for Inactive)
REMARK    1  A    between atoms: C_10  and  C_18
REMARK    2  A    between atoms: C_15  and  C_22
REMARK    3  A    between atoms: C_17  and  C_23
REMARK    4  A    between atoms: C_25  and  C_26
REMARK                            x       y       z     vdW  Elec       q    Type
REMARK                         _______ _______ _______ _____ _____    ______ ____
ROOT
ATOM      1  S   UNL     1     -10.041  -8.661  16.961  0.00  0.00    -0.057 S 
ATOM      4  O   UNL     1      -4.191 -10.483  13.776  0.00  0.00    -0.461 OA
ATOM      5  O   UNL     1      -2.127 -10.795  12.810  0.00  0.00    -0.251 OA
ATOM      6  O   UNL     1     -11.908  -8.656  12.669  0.00  0.00    -0.270 OA
ATOM      7  N   UNL     1      -9.564  -9.208  14.479  0.00  0.00    -0.229 NA
ATOM      8  N   UNL     1     -11.755  -8.350  15.001  0.00  0.00    -0.261 N 
ATOM      9  C   UNL     1      -5.971 -10.050  15.507  0.00  0.00    +0.045 C 
ATOM     10  C   UNL     1      -6.373 -10.523  16.971  0.00  0.00    -0.021 C 
ATOM     11  C   UNL     1      -4.767 -10.876  15.022  0.00  0.00    +0.184 C 
ATOM     12  C   UNL     1      -3.596 -10.705  15.973  0.00  0.00    +0.044 C 
ATOM     13  C   UNL     1      -5.129 -10.515  17.914  0.00  0.00    +0.008 C 
ATOM     14  C   UNL     1      -3.911 -11.260  17.348  0.00  0.00    +0.008 C 
ATOM     15  C   UNL     1      -7.188 -10.052  14.515  0.00  0.00    +0.043 C 
ATOM     16  C   UNL     1      -7.430  -9.535  17.554  0.00  0.00    +0.051 C 
ATOM     17  C   UNL     1      -2.485 -11.350  15.165  0.00  0.00    +0.101 C 
ATOM     18  C   UNL     1      -6.971 -11.955  16.981  0.00  0.00    +0.012 C 
ATOM     19  C   UNL     1      -8.415  -9.492  15.194  0.00  0.00    +0.057 A 
ATOM     20  C   UNL     1      -8.506  -9.278  16.555  0.00  0.00    +0.015 A 
ATOM     21  C   UNL     1      -2.864 -10.856  13.782  0.00  0.00    +0.311 C 
ATOM     22  C   UNL     1      -6.895  -9.277  13.223  0.00  0.00    +0.014 C 
ATOM     23  C   UNL     1      -1.100 -10.903  15.588  0.00  0.00    +0.019 C 
ATOM     24  C   UNL     1     -10.482  -8.756  15.304  0.00  0.00    +0.165 A 
ATOM     25  C   UNL     1     -12.400  -8.316  13.740  0.00  0.00    +0.255 C 
ATOM     32  H   UNL     1     -12.290  -8.055  15.814  0.00  0.00    +0.157 HD
ENDROOT
BRANCH  25  26
ATOM      2  F   UNL     1     -14.595 -10.086  13.646  0.00  0.00    -0.205 F 
ATOM      3  F   UNL     1     -13.095  -5.583  13.825  0.00  0.00    -0.205 F 
ATOM     26  C   UNL     1     -13.809  -7.847  13.736  0.00  0.00    +0.107 A 
ATOM     27  C   UNL     1     -14.853  -8.771  13.688  0.00  0.00    +0.138 A 
ATOM     28  C   UNL     1     -14.090  -6.480  13.779  0.00  0.00    +0.138 A 
ATOM     29  C   UNL     1     -16.176  -8.330  13.684  0.00  0.00    +0.039 A 
ATOM     30  C   UNL     1     -15.413  -6.040  13.776  0.00  0.00    +0.039 A 
ATOM     31  C   UNL     1     -16.456  -6.965  13.728  0.00  0.00    +0.006 A 
ENDBRANCH  25  26
TORSDOF 1
ENDMDL
MODEL 6
REMARK VINA RESULT:      -7.0     29.476     31.893
REMARK  Name = 26763244
REMARK  4 active torsions:
REMARK  status: ('A' for Active; 'I' for Inactive)
REMARK    1  A    between atoms: C_10  and  C_18
REMARK    2  A    between atoms: C_15  and  C_22
REMARK    3  A    between atoms: C_17  and  C_23
REMARK    4  A    between atoms: C_25  and  C_26
REMARK                            x       y       z     vdW  Elec       q    Type
REMARK                         _______ _______ _______ _____ _____    ______ ____
ROOT
ATOM      1  S   UNL     1      -7.455  -9.159  11.634  0.00  0.00    -0.057 S 
ATOM      4  O   UNL     1      -7.297  -9.468   4.737  0.00  0.00    -0.461 OA
ATOM      5  O   UNL     1      -7.457  -9.823   2.470  0.00  0.00    -0.251 OA
ATOM      6  O   UNL     1      -2.979 -10.507  11.399  0.00  0.00    -0.270 OA
ATOM      7  N   UNL     1      -5.506  -9.645  10.005  0.00  0.00    -0.229 NA
ATOM      8  N   UNL     1      -5.058  -9.941  12.354  0.00  0.00    -0.261 N 
ATOM      9  C   UNL     1      -7.942  -8.980   7.124  0.00  0.00    +0.045 C 
ATOM     10  C   UNL     1      -8.824  -7.945   7.949  0.00  0.00    -0.021 C 
ATOM     11  C   UNL     1      -7.933  -8.565   5.642  0.00  0.00    +0.184 C 
ATOM     12  C   UNL     1      -9.350  -8.527   5.099  0.00  0.00    +0.044 C 
ATOM     13  C   UNL     1     -10.228  -7.770   7.292  0.00  0.00    +0.008 C 
ATOM     14  C   UNL     1     -10.180  -7.463   5.788  0.00  0.00    +0.008 C 
ATOM     15  C   UNL     1      -6.511  -9.181   7.740  0.00  0.00    +0.043 C 
ATOM     16  C   UNL     1      -9.030  -8.491   9.396  0.00  0.00    +0.051 C 
ATOM     17  C   UNL     1      -9.075  -8.387   3.613  0.00  0.00    +0.101 C 
ATOM     18  C   UNL     1      -8.159  -6.545   8.036  0.00  0.00    +0.012 C 
ATOM     19  C   UNL     1      -6.600  -9.275   9.244  0.00  0.00    +0.057 A 
ATOM     20  C   UNL     1      -7.732  -8.953   9.966  0.00  0.00    +0.015 A 
ATOM     21  C   UNL     1      -7.873  -9.305   3.495  0.00  0.00    +0.311 C 
ATOM     22  C   UNL     1      -5.795 -10.414   7.171  0.00  0.00    +0.014 C 
ATOM     23  C   UNL     1     -10.236  -8.829   2.745  0.00  0.00    +0.019 C 
ATOM     24  C   UNL     1      -5.843  -9.629  11.276  0.00  0.00    +0.165 A 
ATOM     25  C   UNL     1      -3.703 -10.354  12.378  0.00  0.00    +0.255 C 
ATOM     32  H   UNL     1      -5.536  -9.836  13.246  0.00  0.00    +0.157 HD
ENDROOT
BRANCH  25  26
ATOM      2  F   UNL     1      -1.087  -9.547  13.059  0.00  0.00    -0.205 F 
ATOM      3  F   UNL     1      -5.110 -11.655  14.449  0.00  0.00    -0.205 F 
ATOM     26  C   UNL     1      -3.113 -10.594  13.720  0.00  0.00    +0.107 A 
ATOM     27  C   UNL     1      -1.813 -10.172  13.997  0.00  0.00    +0.138 A 
ATOM     28  C   UNL     1      -3.859 -11.244  14.704  0.00  0.00    +0.138 A 
ATOM     29  C   UNL     1      -1.259 -10.398  15.256  0.00  0.00    +0.039 A 
ATOM     30  C   UNL     1      -3.305 -11.469  15.964  0.00  0.00    +0.039 A 
ATOM     31  C   UNL     1      -2.005 -11.047  16.240  0.00  0.00    +0.006 A 
ENDBRANCH  25  26
TORSDOF 1
ENDMDL
MODEL 7
REMARK VINA RESULT:      -6.9     30.591     33.060
REMARK  Name = 26763244
REMARK  4 active torsions:
REMARK  status: ('A' for Active; 'I' for Inactive)
REMARK    1  A    between atoms: C_10  and  C_18
REMARK    2  A    between atoms: C_15  and  C_22
REMARK    3  A    between atoms: C_17  and  C_23
REMARK    4  A    between atoms: C_25  and  C_26
REMARK                            x       y       z     vdW  Elec       q    Type
REMARK                         _______ _______ _______ _____ _____    ______ ____
ROOT
ATOM      1  S   UNL     1      -9.586 -10.283  13.696  0.00  0.00    -0.057 S 
ATOM      4  O   UNL     1     -13.733  -4.766  13.440  0.00  0.00    -0.461 OA
ATOM      5  O   UNL     1     -14.921  -2.825  13.106  0.00  0.00    -0.251 OA
ATOM      6  O   UNL     1      -8.297  -8.623  17.878  0.00  0.00    -0.270 OA
ATOM      7  N   UNL     1     -10.075  -8.449  15.453  0.00  0.00    -0.229 NA
ATOM      8  N   UNL     1      -8.311 -10.007  15.970  0.00  0.00    -0.261 N 
ATOM      9  C   UNL     1     -12.643  -6.997  13.008  0.00  0.00    +0.045 C 
ATOM     10  C   UNL     1     -12.989  -8.403  12.349  0.00  0.00    -0.021 C 
ATOM     11  C   UNL     1     -13.904  -6.116  13.006  0.00  0.00    +0.184 C 
ATOM     12  C   UNL     1     -14.408  -5.924  11.588  0.00  0.00    +0.044 C 
ATOM     13  C   UNL     1     -13.669  -8.207  10.958  0.00  0.00    +0.008 C 
ATOM     14  C   UNL     1     -14.859  -7.235  10.976  0.00  0.00    +0.008 C 
ATOM     15  C   UNL     1     -11.966  -7.141  14.418  0.00  0.00    +0.043 C 
ATOM     16  C   UNL     1     -11.667  -9.203  12.133  0.00  0.00    +0.051 C 
ATOM     17  C   UNL     1     -15.438  -4.830  11.803  0.00  0.00    +0.101 C 
ATOM     18  C   UNL     1     -13.944  -9.247  13.233  0.00  0.00    +0.012 C 
ATOM     19  C   UNL     1     -10.943  -8.251  14.394  0.00  0.00    +0.057 A 
ATOM     20  C   UNL     1     -10.833  -9.169  13.369  0.00  0.00    +0.015 A 
ATOM     21  C   UNL     1     -14.702  -3.996  12.834  0.00  0.00    +0.311 C 
ATOM     22  C   UNL     1     -11.321  -5.833  14.896  0.00  0.00    +0.014 C 
ATOM     23  C   UNL     1     -15.759  -4.053  10.541  0.00  0.00    +0.019 C 
ATOM     24  C   UNL     1      -9.308  -9.484  15.191  0.00  0.00    +0.165 A 
ATOM     25  C   UNL     1      -7.857  -9.574  17.240  0.00  0.00    +0.255 C 
ATOM     32  H   UNL     1      -7.866 -10.826  15.562  0.00  0.00    +0.157 HD
ENDROOT
BRANCH  25  26
ATOM      2  F   UNL     1      -8.243 -11.189  19.521  0.00  0.00    -0.205 F 
ATOM      3  F   UNL     1      -5.227  -9.593  16.217  0.00  0.00    -0.205 F 
ATOM     26  C   UNL     1      -6.764 -10.371  17.853  0.00  0.00    +0.107 A 
ATOM     27  C   UNL     1      -7.017 -11.151  18.982  0.00  0.00    +0.138 A 
ATOM     28  C   UNL     1      -5.482 -10.340  17.301  0.00  0.00    +0.138 A 
ATOM     29  C   UNL     1      -5.990 -11.899  19.558  0.00  0.00    +0.039 A 
ATOM     30  C   UNL     1      -4.456 -11.089  17.877  0.00  0.00    +0.039 A 
ATOM     31  C   UNL     1      -4.710 -11.868  19.005  0.00  0.00    +0.006 A 
ENDBRANCH  25  26
TORSDOF 1
ENDMDL
MODEL 8
REMARK VINA RESULT:      -6.9     30.059     32.218
REMARK  Name = 26763244
REMARK  4 active torsions:
REMARK  status: ('A' for Active; 'I' for Inactive)
REMARK    1  A    between atoms: C_10  and  C_18
REMARK    2  A    between atoms: C_15  and  C_22
REMARK    3  A    between atoms: C_17  and  C_23
REMARK    4  A    between atoms: C_25  and  C_26
REMARK                            x       y       z     vdW  Elec       q    Type
REMARK                         _______ _______ _______ _____ _____    ______ ____
ROOT
ATOM      1  S   UNL     1      -7.277  -9.979  12.642  0.00  0.00    -0.057 S 
ATOM      4  O   UNL     1      -4.020 -13.003   7.357  0.00  0.00    -0.461 OA
ATOM      5  O   UNL     1      -3.227 -14.148   5.526  0.00  0.00    -0.251 OA
ATOM      6  O   UNL     1      -4.553 -12.665  15.339  0.00  0.00    -0.270 OA
ATOM      7  N   UNL     1      -5.313 -11.661  12.603  0.00  0.00    -0.229 NA
ATOM      8  N   UNL     1      -6.251 -11.136  14.759  0.00  0.00    -0.261 N 
ATOM      9  C   UNL     1      -5.392 -11.439   8.779  0.00  0.00    +0.045 C 
ATOM     10  C   UNL     1      -5.925  -9.941   8.757  0.00  0.00    -0.021 C 
ATOM     11  C   UNL     1      -4.475 -11.666   7.564  0.00  0.00    +0.184 C 
ATOM     12  C   UNL     1      -5.233 -11.394   6.277  0.00  0.00    +0.044 C 
ATOM     13  C   UNL     1      -6.552  -9.599   7.369  0.00  0.00    +0.008 C 
ATOM     14  C   UNL     1      -5.649  -9.940   6.174  0.00  0.00    +0.008 C 
ATOM     15  C   UNL     1      -4.739 -11.828  10.153  0.00  0.00    +0.043 C 
ATOM     16  C   UNL     1      -7.033  -9.778   9.843  0.00  0.00    +0.051 C 
ATOM     17  C   UNL     1      -4.254 -11.944   5.256  0.00  0.00    +0.101 C 
ATOM     18  C   UNL     1      -4.798  -8.912   9.038  0.00  0.00    +0.012 C 
ATOM     19  C   UNL     1      -5.568 -11.290  11.295  0.00  0.00    +0.057 A 
ATOM     20  C   UNL     1      -6.582 -10.367  11.136  0.00  0.00    +0.015 A 
ATOM     21  C   UNL     1      -3.767 -13.166   6.012  0.00  0.00    +0.311 C 
ATOM     22  C   UNL     1      -4.546 -13.344  10.303  0.00  0.00    +0.014 C 
ATOM     23  C   UNL     1      -4.904 -12.295   3.932  0.00  0.00    +0.019 C 
ATOM     24  C   UNL     1      -6.158 -11.040  13.396  0.00  0.00    +0.165 A 
ATOM     25  C   UNL     1      -5.474 -11.917  15.651  0.00  0.00    +0.255 C 
ATOM     32  H   UNL     1      -6.976 -10.543  15.158  0.00  0.00    +0.157 HD
ENDROOT
BRANCH  25  26
ATOM      2  F   UNL     1      -4.393  -9.883  17.280  0.00  0.00    -0.205 F 
ATOM      3  F   UNL     1      -7.227 -13.683  16.981  0.00  0.00    -0.205 F 
ATOM     26  C   UNL     1      -5.802 -11.786  17.094  0.00  0.00    +0.107 A 
ATOM     27  C   UNL     1      -5.235 -10.759  17.848  0.00  0.00    +0.138 A 
ATOM     28  C   UNL     1      -6.676 -12.692  17.696  0.00  0.00    +0.138 A 
ATOM     29  C   UNL     1      -5.542 -10.636  19.203  0.00  0.00    +0.039 A 
ATOM     30  C   UNL     1      -6.984 -12.569  19.051  0.00  0.00    +0.039 A 
ATOM     31  C   UNL     1      -6.416 -11.541  19.804  0.00  0.00    +0.006 A 
ENDBRANCH  25  26
TORSDOF 1
ENDMDL
MODEL 9
REMARK VINA RESULT:      -6.9     15.248     18.350
REMARK  Name = 26763244
REMARK  4 active torsions:
REMARK  status: ('A' for Active; 'I' for Inactive)
REMARK    1  A    between atoms: C_10  and  C_18
REMARK    2  A    between atoms: C_15  and  C_22
REMARK    3  A    between atoms: C_17  and  C_23
REMARK    4  A    between atoms: C_25  and  C_26
REMARK                            x       y       z     vdW  Elec       q    Type
REMARK                         _______ _______ _______ _____ _____    ______ ____
ROOT
ATOM      1  S   UNL     1       9.043   7.677   7.736  0.00  0.00    -0.057 S 
ATOM      4  O   UNL     1      13.737   6.670   2.771  0.00  0.00    -0.461 OA
ATOM      5  O   UNL     1      15.418   6.094   1.312  0.00  0.00    -0.251 OA
ATOM      6  O   UNL     1      11.169  11.800   8.357  0.00  0.00    -0.270 OA
ATOM      7  N   UNL     1      10.876   9.241   6.796  0.00  0.00    -0.229 NA
ATOM      8  N   UNL     1       9.681  10.013   8.742  0.00  0.00    -0.261 N 
ATOM      9  C   UNL     1      11.703   6.501   4.249  0.00  0.00    +0.045 C 
ATOM     10  C   UNL     1      10.218   5.930   4.201  0.00  0.00    -0.021 C 
ATOM     11  C   UNL     1      12.352   6.333   2.865  0.00  0.00    +0.184 C 
ATOM     12  C   UNL     1      12.362   4.869   2.464  0.00  0.00    +0.044 C 
ATOM     13  C   UNL     1      10.204   4.481   3.623  0.00  0.00    +0.008 C 
ATOM     14  C   UNL     1      10.956   4.331   2.292  0.00  0.00    +0.008 C 
ATOM     15  C   UNL     1      11.770   7.965   4.813  0.00  0.00    +0.043 C 
ATOM     16  C   UNL     1       9.644   5.880   5.651  0.00  0.00    +0.051 C 
ATOM     17  C   UNL     1      13.274   4.918   1.252  0.00  0.00    +0.101 C 
ATOM     18  C   UNL     1       9.282   6.804   3.325  0.00  0.00    +0.012 C 
ATOM     19  C   UNL     1      10.852   8.107   6.004  0.00  0.00    +0.057 A 
ATOM     20  C   UNL     1       9.902   7.169   6.356  0.00  0.00    +0.015 A 
ATOM     21  C   UNL     1      14.288   5.933   1.745  0.00  0.00    +0.311 C 
ATOM     22  C   UNL     1      13.197   8.385   5.188  0.00  0.00    +0.014 C 
ATOM     23  C   UNL     1      13.901   3.578   0.919  0.00  0.00    +0.019 C 
ATOM     24  C   UNL     1       9.973   9.120   7.744  0.00  0.00    +0.165 A 
ATOM     25  C   UNL     1      10.268  11.275   9.003  0.00  0.00    +0.255 C 
ATOM     32  H   UNL     1       8.927   9.706   9.351  0.00  0.00    +0.157 HD
ENDROOT
BRANCH  25  26
ATOM      2  F   UNL     1      11.589  11.453  11.489  0.00  0.00    -0.205 F 
ATOM      3  F   UNL     1       7.805  12.647   8.879  0.00  0.00    -0.205 F 
ATOM     26  C   UNL     1       9.712  12.031  10.155  0.00  0.00    +0.107 A 
ATOM     27  C   UNL     1      10.413  12.083  11.360  0.00  0.00    +0.138 A 
ATOM     28  C   UNL     1       8.487  12.690  10.033  0.00  0.00    +0.138 A 
ATOM     29  C   UNL     1       9.891  12.792  12.442  0.00  0.00    +0.039 A 
ATOM     30  C   UNL     1       7.966  13.400  11.114  0.00  0.00    +0.039 A 
ATOM     31  C   UNL     1       8.667  13.451  12.318  0.00  0.00    +0.006 A 
ENDBRANCH  25  26
TORSDOF 1
ENDMDL
MODEL 10
REMARK VINA RESULT:      -6.8     13.052     15.487
REMARK  Name = 26763244
REMARK  4 active torsions:
REMARK  status: ('A' for Active; 'I' for Inactive)
REMARK    1  A    between atoms: C_10  and  C_18
REMARK    2  A    between atoms: C_15  and  C_22
REMARK    3  A    between atoms: C_17  and  C_23
REMARK    4  A    between atoms: C_25  and  C_26
REMARK                            x       y       z     vdW  Elec       q    Type
REMARK                         _______ _______ _______ _____ _____    ______ ____
ROOT
ATOM      1  S   UNL     1      19.917  -6.254  20.308  0.00  0.00    -0.057 S 
ATOM      4  O   UNL     1      20.036  -5.122  27.119  0.00  0.00    -0.461 OA
ATOM      5  O   UNL     1      20.284  -4.498  29.319  0.00  0.00    -0.251 OA
ATOM      6  O   UNL     1      22.058 -10.285  21.344  0.00  0.00    -0.270 OA
ATOM      7  N   UNL     1      20.703  -7.756  22.261  0.00  0.00    -0.229 NA
ATOM      8  N   UNL     1      21.149  -8.552  20.030  0.00  0.00    -0.261 N 
ATOM      9  C   UNL     1      19.512  -5.014  24.657  0.00  0.00    +0.045 C 
ATOM     10  C   UNL     1      18.359  -4.502  23.688  0.00  0.00    -0.021 C 
ATOM     11  C   UNL     1      19.060  -4.837  26.117  0.00  0.00    +0.184 C 
ATOM     12  C   UNL     1      18.746  -3.379  26.395  0.00  0.00    +0.044 C 
ATOM     13  C   UNL     1      17.909  -3.061  24.082  0.00  0.00    +0.008 C 
ATOM     14  C   UNL     1      17.569  -2.896  25.571  0.00  0.00    +0.008 C 
ATOM     15  C   UNL     1      19.992  -6.469  24.309  0.00  0.00    +0.043 C 
ATOM     16  C   UNL     1      18.903  -4.458  22.227  0.00  0.00    +0.051 C 
ATOM     17  C   UNL     1      18.612  -3.406  27.906  0.00  0.00    +0.101 C 
ATOM     18  C   UNL     1      17.108  -5.420  23.727  0.00  0.00    +0.012 C 
ATOM     19  C   UNL     1      20.115  -6.633  22.813  0.00  0.00    +0.057 A 
ATOM     20  C   UNL     1      19.612  -5.728  21.899  0.00  0.00    +0.015 A 
ATOM     21  C   UNL     1      19.731  -4.376  28.238  0.00  0.00    +0.311 C 
ATOM     22  C   UNL     1      21.316  -6.830  24.994  0.00  0.00    +0.014 C 
ATOM     23  C   UNL     1      18.806  -2.047  28.550  0.00  0.00    +0.019 C 
ATOM     24  C   UNL     1      20.665  -7.660  20.950  0.00  0.00    +0.165 A 
ATOM     25  C   UNL     1      21.804  -9.788  20.251  0.00  0.00    +0.255 C 
ATOM     32  H   UNL     1      20.986  -8.268  19.067  0.00  0.00    +0.157 HD
ENDROOT
BRANCH  25  26
ATOM      2  F   UNL     1      20.296 -11.964  19.275  0.00  0.00    -0.205 F 
ATOM      3  F   UNL     1      24.106  -9.179  18.737  0.00  0.00    -0.205 F 
ATOM     26  C   UNL     1      22.191 -10.552  19.037  0.00  0.00    +0.107 A 
ATOM     27  C   UNL     1      21.404 -11.619  18.603  0.00  0.00    +0.138 A 
ATOM     28  C   UNL     1      23.342 -10.203  18.329  0.00  0.00    +0.138 A 
ATOM     29  C   UNL     1      21.767 -12.337  17.464  0.00  0.00    +0.039 A 
ATOM     30  C   UNL     1      23.705 -10.920  17.189  0.00  0.00    +0.039 A 
ATOM     31  C   UNL     1      22.918 -11.987  16.757  0.00  0.00    +0.006 A 
ENDBRANCH  25  26
TORSDOF 1
ENDMDL
