REMARK  Name = 38027816
REMARK  13 active torsions:
REMARK  status: ('A' for Active; 'I' for Inactive)
REMARK    1  A    between atoms: O_3  and  C_31
REMARK    2  A    between atoms: O_3  and  C_33
REMARK    3  A    between atoms: N_4  and  C_15
REMARK    4  A    between atoms: N_5  and  C_22
REMARK    5  A    between atoms: C_8  and  C_12
REMARK    6  A    between atoms: C_9  and  C_15
REMARK    7  A    between atoms: C_11  and  C_16
REMARK    8  A    between atoms: C_12  and  C_17
REMARK    9  A    between atoms: C_12  and  C_18
REMARK   10  A    between atoms: C_13  and  C_19
REMARK   11  A    between atoms: C_16  and  C_20
REMARK   12  A    between atoms: C_21  and  C_23
REMARK   13  A    between atoms: C_22  and  C_24
REMARK                            x       y       z     vdW  Elec       q    Type
REMARK                         _______ _______ _______ _____ _____    ______ ____
ROOT
ATOM      8  C   UNL     1       0.764   1.732  -1.247  0.00  0.00    +0.000 C 
ATOM      9  C   UNL     1       2.220   2.049  -1.670  0.00  0.00    +0.032 C 
ATOM     10  C   UNL     1       0.249   2.793  -0.263  0.00  0.00    +0.012 C 
ATOM     11  C   UNL     1       1.117   2.882   1.006  0.00  0.00    +0.023 C 
ATOM     13  C   UNL     1       2.595   2.927   0.675  0.00  0.00    -0.073 C 
ATOM     14  C   UNL     1       3.068   2.563  -0.531  0.00  0.00    -0.022 C 
ATOM     19  C   UNL     1       3.514   3.443   1.747  0.00  0.00    +0.039 C 
ENDROOT
BRANCH   8  12
ATOM     12  C   UNL     1      -0.173   1.647  -2.455  0.00  0.00    -0.013 C 
ATOM     17  C   UNL     1      -0.605   3.042  -2.893  0.00  0.00    +0.007 C 
ATOM     18  C   UNL     1      -1.387   0.783  -2.127  0.00  0.00    +0.007 C 
ENDBRANCH   8  12
BRANCH   9  15
ATOM     15  C   UNL     1       2.894   0.821  -2.294  0.00  0.00    +0.112 C 
BRANCH  15   4
ATOM      2  O   UNL     1       1.788  -1.825  -2.424  0.00  0.00    -0.270 OA
ATOM      4  N   UNL     1       3.052  -0.218  -1.326  0.00  0.00    -0.311 N 
ATOM     21  C   UNL     1       2.477  -1.481  -1.468  0.00  0.00    +0.247 C 
ATOM     34  H   UNL     1       3.614  -0.010  -0.507  0.00  0.00    +0.149 HD
BRANCH  21  23
ATOM      6  N   UNL     1       2.013  -4.353   0.925  0.00  0.00    -0.243 NA
ATOM      7  N   UNL     1       4.075  -3.228   1.462  0.00  0.00    -0.243 NA
ATOM     23  C   UNL     1       2.713  -2.442  -0.360  0.00  0.00    +0.073 A 
ATOM     25  C   UNL     1       1.831  -3.463  -0.073  0.00  0.00    +0.127 A 
ATOM     26  C   UNL     1       3.830  -2.373   0.448  0.00  0.00    +0.127 A 
ATOM     32  C   UNL     1       3.140  -4.180   1.642  0.00  0.00    +0.221 A 
ENDBRANCH  21  23
ENDBRANCH  15   4
ENDBRANCH   9  15
BRANCH  11  16
ATOM     16  C   UNL     1       0.806   1.732   1.970  0.00  0.00    +0.103 C 
BRANCH  16  20
ATOM      1  O   UNL     1      -1.411   2.627   2.340  0.00  0.00    -0.276 OA
ATOM      5  N   UNL     1      -1.049   0.342   2.555  0.00  0.00    -0.311 N 
ATOM     20  C   UNL     1      -0.667   1.651   2.302  0.00  0.00    +0.214 C 
ATOM     35  H   UNL     1      -0.359  -0.402   2.496  0.00  0.00    +0.149 HD
BRANCH   5  22
ATOM     22  C   UNL     1      -2.401  -0.033   2.900  0.00  0.00    +0.139 C 
BRANCH  22  24
ATOM     24  C   UNL     1      -3.224  -0.353   1.686  0.00  0.00    -0.030 A 
ATOM     27  C   UNL     1      -4.381   0.377   1.414  0.00  0.00    +0.009 A 
ATOM     28  C   UNL     1      -2.830  -1.380   0.828  0.00  0.00    +0.009 A 
ATOM     29  C   UNL     1      -5.144   0.080   0.286  0.00  0.00    +0.046 A 
ATOM     30  C   UNL     1      -3.594  -1.677  -0.301  0.00  0.00    +0.046 A 
ATOM     31  C   UNL     1      -4.751  -0.947  -0.572  0.00  0.00    +0.120 A 
BRANCH  31   3
ATOM      3  O   UNL     1      -5.495  -1.237  -1.674  0.00  0.00    -0.495 OA
ATOM     33  C   UNL     1      -5.035  -2.299  -2.507  0.00  0.00    +0.277 C 
ENDBRANCH  31   3
ENDBRANCH  22  24
ENDBRANCH   5  22
ENDBRANCH  16  20
ENDBRANCH  11  16
TORSDOF 9
