MODEL 1
REMARK VINA RESULT:      -6.0      0.000      0.000
REMARK  Name = 51137552
REMARK  8 active torsions:
REMARK  status: ('A' for Active; 'I' for Inactive)
REMARK    1  A    between atoms: O_2  and  C_20
REMARK    2  A    between atoms: O_2  and  C_22
REMARK    3  A    between atoms: N_3  and  C_10
REMARK    4  A    between atoms: C_6  and  C_11
REMARK    5  A    between atoms: C_10  and  C_12
REMARK    6  A    between atoms: C_13  and  C_16
REMARK    7  A    between atoms: C_16  and  C_17
REMARK    8  A    between atoms: C_17  and  C_21
REMARK                            x       y       z     vdW  Elec       q    Type
REMARK                         _______ _______ _______ _____ _____    ______ ____
ROOT
ATOM      3  N   UNL     1      -2.296 -11.041  13.872  0.00  0.00    -0.297 NA
ATOM      6  C   UNL     1      -3.417 -10.609  15.885  0.00  0.00    +0.092 C 
ATOM      7  C   UNL     1      -1.909 -10.737  16.154  0.00  0.00    +0.029 C 
ATOM      8  C   UNL     1      -3.615 -11.206  14.486  0.00  0.00    +0.097 C 
ATOM      9  C   UNL     1      -1.343 -11.420  14.915  0.00  0.00    +0.085 C 
ENDROOT
BRANCH   6  11
ATOM      1  O   UNL     1      -4.951 -10.405  17.782  0.00  0.00    -0.424 OA
ATOM      4  N   UNL     1      -4.560 -12.515  17.149  0.00  0.00    -0.112 NA
ATOM      5  N   UNL     1      -5.435 -12.545  18.220  0.00  0.00    -0.112 NA
ATOM     11  C   UNL     1      -4.305 -11.246  16.929  0.00  0.00    +0.222 A 
ATOM     13  C   UNL     1      -5.635 -11.292  18.556  0.00  0.00    +0.217 A 
BRANCH  13  16
ATOM     16  C   UNL     1      -6.475 -10.733  19.622  0.00  0.00    +0.097 C 
BRANCH  16  17
ATOM     17  C   UNL     1      -7.983 -10.972  19.391  0.00  0.00    +0.006 C 
ATOM     21  C   UNL     1      -8.483 -10.360  18.091  0.00  0.00    +0.004 C 
ENDBRANCH  16  17
ENDBRANCH  13  16
ENDBRANCH   6  11
BRANCH   3  10
ATOM     10  C   UNL     1      -2.141 -11.839  12.665  0.00  0.00    +0.119 C 
BRANCH  10  12
ATOM     12  C   UNL     1      -2.816 -11.199  11.480  0.00  0.00    -0.033 A 
ATOM     14  C   UNL     1      -2.627  -9.843  11.216  0.00  0.00    +0.008 A 
ATOM     15  C   UNL     1      -3.632 -11.965  10.646  0.00  0.00    +0.008 A 
ATOM     18  C   UNL     1      -3.252  -9.251  10.119  0.00  0.00    +0.046 A 
ATOM     19  C   UNL     1      -4.258 -11.374   9.549  0.00  0.00    +0.046 A 
ATOM     20  C   UNL     1      -4.068 -10.017   9.286  0.00  0.00    +0.120 A 
BRANCH  20   2
ATOM      2  O   UNL     1      -4.677  -9.441   8.214  0.00  0.00    -0.495 OA
ATOM     22  C   UNL     1      -5.340 -10.311   7.298  0.00  0.00    +0.277 C 
ENDBRANCH  20   2
ENDBRANCH  10  12
ENDBRANCH   3  10
TORSDOF 6
ENDMDL
MODEL 2
REMARK VINA RESULT:      -6.0     26.292     28.251
REMARK  Name = 51137552
REMARK  8 active torsions:
REMARK  status: ('A' for Active; 'I' for Inactive)
REMARK    1  A    between atoms: O_2  and  C_20
REMARK    2  A    between atoms: O_2  and  C_22
REMARK    3  A    between atoms: N_3  and  C_10
REMARK    4  A    between atoms: C_6  and  C_11
REMARK    5  A    between atoms: C_10  and  C_12
REMARK    6  A    between atoms: C_13  and  C_16
REMARK    7  A    between atoms: C_16  and  C_17
REMARK    8  A    between atoms: C_17  and  C_21
REMARK                            x       y       z     vdW  Elec       q    Type
REMARK                         _______ _______ _______ _____ _____    ______ ____
ROOT
ATOM      3  N   UNL     1      14.768   7.193  20.234  0.00  0.00    -0.297 NA
ATOM      6  C   UNL     1      12.812   7.306  21.522  0.00  0.00    +0.092 C 
ATOM      7  C   UNL     1      12.472   6.787  20.115  0.00  0.00    +0.029 C 
ATOM      8  C   UNL     1      14.215   7.910  21.385  0.00  0.00    +0.097 C 
ATOM      9  C   UNL     1      13.679   7.147  19.259  0.00  0.00    +0.085 C 
ENDROOT
BRANCH   6  11
ATOM      1  O   UNL     1      12.262   9.522  22.407  0.00  0.00    -0.424 OA
ATOM      4  N   UNL     1      10.533   8.103  22.364  0.00  0.00    -0.112 NA
ATOM      5  N   UNL     1      10.086   9.305  22.880  0.00  0.00    -0.112 NA
ATOM     11  C   UNL     1      11.807   8.275  22.102  0.00  0.00    +0.222 A 
ATOM     13  C   UNL     1      11.129  10.103  22.887  0.00  0.00    +0.217 A 
BRANCH  13  16
ATOM     16  C   UNL     1      11.234  11.499  23.328  0.00  0.00    +0.097 C 
BRANCH  16  17
ATOM     17  C   UNL     1      11.387  11.640  24.858  0.00  0.00    +0.006 C 
ATOM     21  C   UNL     1      10.655  12.852  25.414  0.00  0.00    +0.004 C 
ENDBRANCH  16  17
ENDBRANCH  13  16
ENDBRANCH   6  11
BRANCH   3  10
ATOM     10  C   UNL     1      15.962   7.832  19.702  0.00  0.00    +0.119 C 
BRANCH  10  12
ATOM     12  C   UNL     1      17.212   7.073  20.063  0.00  0.00    -0.033 A 
ATOM     14  C   UNL     1      17.969   7.459  21.169  0.00  0.00    +0.008 A 
ATOM     15  C   UNL     1      17.613   5.983  19.290  0.00  0.00    +0.008 A 
ATOM     18  C   UNL     1      19.126   6.756  21.503  0.00  0.00    +0.046 A 
ATOM     19  C   UNL     1      18.771   5.280  19.623  0.00  0.00    +0.046 A 
ATOM     20  C   UNL     1      19.527   5.667  20.730  0.00  0.00    +0.120 A 
BRANCH  20   2
ATOM      2  O   UNL     1      20.655   4.979  21.056  0.00  0.00    -0.495 OA
ATOM     22  C   UNL     1      21.385   5.431  22.196  0.00  0.00    +0.277 C 
ENDBRANCH  20   2
ENDBRANCH  10  12
ENDBRANCH   3  10
TORSDOF 6
ENDMDL
MODEL 3
REMARK VINA RESULT:      -5.8     27.039     29.143
REMARK  Name = 51137552
REMARK  8 active torsions:
REMARK  status: ('A' for Active; 'I' for Inactive)
REMARK    1  A    between atoms: O_2  and  C_20
REMARK    2  A    between atoms: O_2  and  C_22
REMARK    3  A    between atoms: N_3  and  C_10
REMARK    4  A    between atoms: C_6  and  C_11
REMARK    5  A    between atoms: C_10  and  C_12
REMARK    6  A    between atoms: C_13  and  C_16
REMARK    7  A    between atoms: C_16  and  C_17
REMARK    8  A    between atoms: C_17  and  C_21
REMARK                            x       y       z     vdW  Elec       q    Type
REMARK                         _______ _______ _______ _____ _____    ______ ____
ROOT
ATOM      3  N   UNL     1      17.059   7.645  20.589  0.00  0.00    -0.297 NA
ATOM      6  C   UNL     1      19.262   6.877  20.831  0.00  0.00    +0.092 C 
ATOM      7  C   UNL     1      18.514   5.986  19.825  0.00  0.00    +0.029 C 
ATOM      8  C   UNL     1      18.156   7.654  21.559  0.00  0.00    +0.097 C 
ATOM      9  C   UNL     1      17.038   6.283  20.056  0.00  0.00    +0.085 C 
ENDROOT
BRANCH   6  11
ATOM      1  O   UNL     1      20.952   5.154  21.236  0.00  0.00    -0.424 OA
ATOM      4  N   UNL     1      20.360   6.297  23.065  0.00  0.00    -0.112 NA
ATOM      5  N   UNL     1      21.313   5.364  23.433  0.00  0.00    -0.112 NA
ATOM     11  C   UNL     1      20.181   6.137  21.775  0.00  0.00    +0.222 A 
ATOM     13  C   UNL     1      21.629   4.720  22.334  0.00  0.00    +0.217 A 
BRANCH  13  16
ATOM     16  C   UNL     1      22.589   3.628  22.134  0.00  0.00    +0.097 C 
BRANCH  16  17
ATOM     17  C   UNL     1      23.381   3.278  23.413  0.00  0.00    +0.006 C 
ATOM     21  C   UNL     1      22.757   2.133  24.196  0.00  0.00    +0.004 C 
ENDBRANCH  16  17
ENDBRANCH  13  16
ENDBRANCH   6  11
BRANCH   3  10
ATOM     10  C   UNL     1      15.788   8.026  21.185  0.00  0.00    +0.119 C 
BRANCH  10  12
ATOM     12  C   UNL     1      14.657   7.948  20.192  0.00  0.00    -0.033 A 
ATOM     14  C   UNL     1      14.555   8.896  19.174  0.00  0.00    +0.008 A 
ATOM     15  C   UNL     1      13.712   6.927  20.291  0.00  0.00    +0.008 A 
ATOM     18  C   UNL     1      13.509   8.823  18.254  0.00  0.00    +0.046 A 
ATOM     19  C   UNL     1      12.665   6.854  19.373  0.00  0.00    +0.046 A 
ATOM     20  C   UNL     1      12.563   7.803  18.355  0.00  0.00    +0.120 A 
BRANCH  20   2
ATOM      2  O   UNL     1      11.543   7.730  17.457  0.00  0.00    -0.495 OA
ATOM     22  C   UNL     1      11.429   8.795  16.515  0.00  0.00    +0.277 C 
ENDBRANCH  20   2
ENDBRANCH  10  12
ENDBRANCH   3  10
TORSDOF 6
ENDMDL
MODEL 4
REMARK VINA RESULT:      -5.7     27.102     29.320
REMARK  Name = 51137552
REMARK  8 active torsions:
REMARK  status: ('A' for Active; 'I' for Inactive)
REMARK    1  A    between atoms: O_2  and  C_20
REMARK    2  A    between atoms: O_2  and  C_22
REMARK    3  A    between atoms: N_3  and  C_10
REMARK    4  A    between atoms: C_6  and  C_11
REMARK    5  A    between atoms: C_10  and  C_12
REMARK    6  A    between atoms: C_13  and  C_16
REMARK    7  A    between atoms: C_16  and  C_17
REMARK    8  A    between atoms: C_17  and  C_21
REMARK                            x       y       z     vdW  Elec       q    Type
REMARK                         _______ _______ _______ _____ _____    ______ ____
ROOT
ATOM      3  N   UNL     1      18.167   6.196  20.628  0.00  0.00    -0.297 NA
ATOM      6  C   UNL     1      15.931   6.602  21.205  0.00  0.00    +0.092 C 
ATOM      7  C   UNL     1      16.014   6.189  19.726  0.00  0.00    +0.029 C 
ATOM      8  C   UNL     1      17.372   6.963  21.589  0.00  0.00    +0.097 C 
ATOM      9  C   UNL     1      17.479   6.365  19.348  0.00  0.00    +0.085 C 
ENDROOT
BRANCH   6  11
ATOM      1  O   UNL     1      13.646   7.345  21.673  0.00  0.00    -0.424 OA
ATOM      4  N   UNL     1      15.151   9.000  21.624  0.00  0.00    -0.112 NA
ATOM      5  N   UNL     1      13.913   9.555  21.896  0.00  0.00    -0.112 NA
ATOM     11  C   UNL     1      14.946   7.709  21.501  0.00  0.00    +0.222 A 
ATOM     13  C   UNL     1      13.066   8.553  21.915  0.00  0.00    +0.217 A 
BRANCH  13  16
ATOM     16  C   UNL     1      11.618   8.557  22.158  0.00  0.00    +0.097 C 
BRANCH  16  17
ATOM     17  C   UNL     1      10.806   7.993  20.972  0.00  0.00    +0.006 C 
ATOM     21  C   UNL     1      11.182   8.631  19.644  0.00  0.00    +0.004 C 
ENDBRANCH  16  17
ENDBRANCH  13  16
ENDBRANCH   6  11
BRANCH   3  10
ATOM     10  C   UNL     1      19.552   6.639  20.575  0.00  0.00    +0.119 C 
BRANCH  10  12
ATOM     12  C   UNL     1      20.488   5.627  21.183  0.00  0.00    -0.033 A 
ATOM     14  C   UNL     1      21.142   5.912  22.381  0.00  0.00    +0.008 A 
ATOM     15  C   UNL     1      20.701   4.404  20.546  0.00  0.00    +0.008 A 
ATOM     18  C   UNL     1      22.008   4.975  22.944  0.00  0.00    +0.046 A 
ATOM     19  C   UNL     1      21.568   3.467  21.108  0.00  0.00    +0.046 A 
ATOM     20  C   UNL     1      22.222   3.753  22.307  0.00  0.00    +0.120 A 
BRANCH  20   2
ATOM      2  O   UNL     1      23.065   2.837  22.856  0.00  0.00    -0.495 OA
ATOM     22  C   UNL     1      24.414   3.247  23.078  0.00  0.00    +0.277 C 
ENDBRANCH  20   2
ENDBRANCH  10  12
ENDBRANCH   3  10
TORSDOF 6
ENDMDL
MODEL 5
REMARK VINA RESULT:      -5.6      2.038      7.740
REMARK  Name = 51137552
REMARK  8 active torsions:
REMARK  status: ('A' for Active; 'I' for Inactive)
REMARK    1  A    between atoms: O_2  and  C_20
REMARK    2  A    between atoms: O_2  and  C_22
REMARK    3  A    between atoms: N_3  and  C_10
REMARK    4  A    between atoms: C_6  and  C_11
REMARK    5  A    between atoms: C_10  and  C_12
REMARK    6  A    between atoms: C_13  and  C_16
REMARK    7  A    between atoms: C_16  and  C_17
REMARK    8  A    between atoms: C_17  and  C_21
REMARK                            x       y       z     vdW  Elec       q    Type
REMARK                         _______ _______ _______ _____ _____    ______ ____
ROOT
ATOM      3  N   UNL     1      -3.025 -11.652  15.302  0.00  0.00    -0.297 NA
ATOM      6  C   UNL     1      -3.390 -12.396  13.108  0.00  0.00    +0.092 C 
ATOM      7  C   UNL     1      -1.934 -12.681  13.512  0.00  0.00    +0.029 C 
ATOM      8  C   UNL     1      -3.894 -11.390  14.152  0.00  0.00    +0.097 C 
ATOM      9  C   UNL     1      -1.686 -11.807  14.736  0.00  0.00    +0.085 C 
ENDROOT
BRANCH   6  11
ATOM      1  O   UNL     1      -3.567 -10.564  11.493  0.00  0.00    -0.424 OA
ATOM      4  N   UNL     1      -3.737 -12.601  10.584  0.00  0.00    -0.112 NA
ATOM      5  N   UNL     1      -3.852 -11.669   9.569  0.00  0.00    -0.112 NA
ATOM     11  C   UNL     1      -3.572 -11.912  11.688  0.00  0.00    +0.222 A 
ATOM     13  C   UNL     1      -3.748 -10.494  10.146  0.00  0.00    +0.217 A 
BRANCH  13  16
ATOM     16  C   UNL     1      -3.795  -9.153   9.551  0.00  0.00    +0.097 C 
BRANCH  16  17
ATOM     17  C   UNL     1      -4.880  -8.252  10.179  0.00  0.00    +0.006 C 
ATOM     21  C   UNL     1      -6.286  -8.630   9.739  0.00  0.00    +0.004 C 
ENDBRANCH  16  17
ENDBRANCH  13  16
ENDBRANCH   6  11
BRANCH   3  10
ATOM     10  C   UNL     1      -3.087 -10.592  16.297  0.00  0.00    +0.119 C 
BRANCH  10  12
ATOM     12  C   UNL     1      -4.207 -10.810  17.280  0.00  0.00    -0.033 A 
ATOM     14  C   UNL     1      -5.427 -10.158  17.104  0.00  0.00    +0.008 A 
ATOM     15  C   UNL     1      -4.024 -11.665  18.367  0.00  0.00    +0.008 A 
ATOM     18  C   UNL     1      -6.465 -10.360  18.014  0.00  0.00    +0.046 A 
ATOM     19  C   UNL     1      -5.060 -11.867  19.278  0.00  0.00    +0.046 A 
ATOM     20  C   UNL     1      -6.281 -11.214  19.102  0.00  0.00    +0.120 A 
BRANCH  20   2
ATOM      2  O   UNL     1      -7.292 -11.414  19.989  0.00  0.00    -0.495 OA
ATOM     22  C   UNL     1      -8.620 -11.435  19.468  0.00  0.00    +0.277 C 
ENDBRANCH  20   2
ENDBRANCH  10  12
ENDBRANCH   3  10
TORSDOF 6
ENDMDL
MODEL 6
REMARK VINA RESULT:      -5.6      2.070      8.008
REMARK  Name = 51137552
REMARK  8 active torsions:
REMARK  status: ('A' for Active; 'I' for Inactive)
REMARK    1  A    between atoms: O_2  and  C_20
REMARK    2  A    between atoms: O_2  and  C_22
REMARK    3  A    between atoms: N_3  and  C_10
REMARK    4  A    between atoms: C_6  and  C_11
REMARK    5  A    between atoms: C_10  and  C_12
REMARK    6  A    between atoms: C_13  and  C_16
REMARK    7  A    between atoms: C_16  and  C_17
REMARK    8  A    between atoms: C_17  and  C_21
REMARK                            x       y       z     vdW  Elec       q    Type
REMARK                         _______ _______ _______ _____ _____    ______ ____
ROOT
ATOM      3  N   UNL     1      -3.736 -10.969  15.978  0.00  0.00    -0.297 NA
ATOM      6  C   UNL     1      -2.991 -11.250  13.772  0.00  0.00    +0.092 C 
ATOM      7  C   UNL     1      -1.803 -11.393  14.738  0.00  0.00    +0.029 C 
ATOM      8  C   UNL     1      -4.096 -10.592  14.609  0.00  0.00    +0.097 C 
ATOM      9  C   UNL     1      -2.286 -10.788  16.050  0.00  0.00    +0.085 C 
ENDROOT
BRANCH   6  11
ATOM      1  O   UNL     1      -3.747 -10.181  11.704  0.00  0.00    -0.424 OA
ATOM      4  N   UNL     1      -1.535 -10.080  12.027  0.00  0.00    -0.112 NA
ATOM      5  N   UNL     1      -1.823  -9.443  10.833  0.00  0.00    -0.112 NA
ATOM     11  C   UNL     1      -2.687 -10.494  12.499  0.00  0.00    +0.222 A 
ATOM     13  C   UNL     1      -3.124  -9.527  10.685  0.00  0.00    +0.217 A 
BRANCH  13  16
ATOM     16  C   UNL     1      -3.976  -9.022   9.602  0.00  0.00    +0.097 C 
BRANCH  16  17
ATOM     17  C   UNL     1      -5.206  -8.241  10.115  0.00  0.00    +0.006 C 
ATOM     21  C   UNL     1      -6.523  -8.893   9.721  0.00  0.00    +0.004 C 
ENDBRANCH  16  17
ENDBRANCH  13  16
ENDBRANCH   6  11
BRANCH   3  10
ATOM     10  C   UNL     1      -4.443 -10.180  16.976  0.00  0.00    +0.119 C 
BRANCH  10  12
ATOM     12  C   UNL     1      -5.465 -11.002  17.718  0.00  0.00    -0.033 A 
ATOM     14  C   UNL     1      -5.701 -12.325  17.346  0.00  0.00    +0.008 A 
ATOM     15  C   UNL     1      -6.175 -10.438  18.779  0.00  0.00    +0.008 A 
ATOM     18  C   UNL     1      -6.647 -13.085  18.034  0.00  0.00    +0.046 A 
ATOM     19  C   UNL     1      -7.121 -11.198  19.466  0.00  0.00    +0.046 A 
ATOM     20  C   UNL     1      -7.357 -12.521  19.094  0.00  0.00    +0.120 A 
BRANCH  20   2
ATOM      2  O   UNL     1      -8.278 -13.262  19.766  0.00  0.00    -0.495 OA
ATOM     22  C   UNL     1      -9.542 -12.651  20.024  0.00  0.00    +0.277 C 
ENDBRANCH  20   2
ENDBRANCH  10  12
ENDBRANCH   3  10
TORSDOF 6
ENDMDL
MODEL 7
REMARK VINA RESULT:      -5.5     22.719     26.889
REMARK  Name = 51137552
REMARK  8 active torsions:
REMARK  status: ('A' for Active; 'I' for Inactive)
REMARK    1  A    between atoms: O_2  and  C_20
REMARK    2  A    between atoms: O_2  and  C_22
REMARK    3  A    between atoms: N_3  and  C_10
REMARK    4  A    between atoms: C_6  and  C_11
REMARK    5  A    between atoms: C_10  and  C_12
REMARK    6  A    between atoms: C_13  and  C_16
REMARK    7  A    between atoms: C_16  and  C_17
REMARK    8  A    between atoms: C_17  and  C_21
REMARK                            x       y       z     vdW  Elec       q    Type
REMARK                         _______ _______ _______ _____ _____    ______ ____
ROOT
ATOM      3  N   UNL     1     -14.295   4.118  33.573  0.00  0.00    -0.297 NA
ATOM      6  C   UNL     1     -14.212   1.999  32.573  0.00  0.00    +0.092 C 
ATOM      7  C   UNL     1     -13.059   2.865  32.039  0.00  0.00    +0.029 C 
ATOM      8  C   UNL     1     -15.172   2.995  33.236  0.00  0.00    +0.097 C 
ATOM      9  C   UNL     1     -13.440   4.295  32.400  0.00  0.00    +0.085 C 
ENDROOT
BRANCH   6  11
ATOM      1  O   UNL     1     -15.482   1.769  30.493  0.00  0.00    -0.424 OA
ATOM      4  N   UNL     1     -14.993  -0.177  31.482  0.00  0.00    -0.112 NA
ATOM      5  N   UNL     1     -15.704  -0.451  30.328  0.00  0.00    -0.112 NA
ATOM     11  C   UNL     1     -14.887   1.130  31.537  0.00  0.00    +0.222 A 
ATOM     13  C   UNL     1     -15.969   0.714  29.784  0.00  0.00    +0.217 A 
BRANCH  13  16
ATOM     16  C   UNL     1     -16.695   1.025  28.547  0.00  0.00    +0.097 C 
BRANCH  16  17
ATOM     17  C   UNL     1     -16.697   2.532  28.210  0.00  0.00    +0.006 C 
ATOM     21  C   UNL     1     -16.404   2.808  26.743  0.00  0.00    +0.004 C 
ENDBRANCH  16  17
ENDBRANCH  13  16
ENDBRANCH   6  11
BRANCH   3  10
ATOM     10  C   UNL     1     -15.039   5.324  33.904  0.00  0.00    +0.119 C 
BRANCH  10  12
ATOM     12  C   UNL     1     -14.151   6.384  34.502  0.00  0.00    -0.033 A 
ATOM     14  C   UNL     1     -13.988   7.607  33.852  0.00  0.00    +0.008 A 
ATOM     15  C   UNL     1     -13.491   6.142  35.707  0.00  0.00    +0.008 A 
ATOM     18  C   UNL     1     -13.166   8.589  34.406  0.00  0.00    +0.046 A 
ATOM     19  C   UNL     1     -12.668   7.122  36.261  0.00  0.00    +0.046 A 
ATOM     20  C   UNL     1     -12.506   8.345  35.610  0.00  0.00    +0.120 A 
BRANCH  20   2
ATOM      2  O   UNL     1     -11.705   9.302  36.153  0.00  0.00    -0.495 OA
ATOM     22  C   UNL     1     -10.323   8.983  36.306  0.00  0.00    +0.277 C 
ENDBRANCH  20   2
ENDBRANCH  10  12
ENDBRANCH   3  10
TORSDOF 6
ENDMDL
MODEL 8
REMARK VINA RESULT:      -5.5     20.891     24.524
REMARK  Name = 51137552
REMARK  8 active torsions:
REMARK  status: ('A' for Active; 'I' for Inactive)
REMARK    1  A    between atoms: O_2  and  C_20
REMARK    2  A    between atoms: O_2  and  C_22
REMARK    3  A    between atoms: N_3  and  C_10
REMARK    4  A    between atoms: C_6  and  C_11
REMARK    5  A    between atoms: C_10  and  C_12
REMARK    6  A    between atoms: C_13  and  C_16
REMARK    7  A    between atoms: C_16  and  C_17
REMARK    8  A    between atoms: C_17  and  C_21
REMARK                            x       y       z     vdW  Elec       q    Type
REMARK                         _______ _______ _______ _____ _____    ______ ____
ROOT
ATOM      3  N   UNL     1     -16.446   2.487  28.915  0.00  0.00    -0.297 NA
ATOM      6  C   UNL     1     -16.724   3.557  26.847  0.00  0.00    +0.092 C 
ATOM      7  C   UNL     1     -18.051   2.908  27.272  0.00  0.00    +0.029 C 
ATOM      8  C   UNL     1     -15.666   2.907  27.748  0.00  0.00    +0.097 C 
ATOM      9  C   UNL     1     -17.672   1.913  28.362  0.00  0.00    +0.085 C 
ENDROOT
BRANCH   6  11
ATOM      1  O   UNL     1     -15.901   4.544  24.763  0.00  0.00    -0.424 OA
ATOM      4  N   UNL     1     -16.524   2.404  24.574  0.00  0.00    -0.112 NA
ATOM      5  N   UNL     1     -16.084   2.832  23.335  0.00  0.00    -0.112 NA
ATOM     11  C   UNL     1     -16.400   3.435  25.376  0.00  0.00    +0.222 A 
ATOM     13  C   UNL     1     -15.731   4.087  23.492  0.00  0.00    +0.217 A 
BRANCH  13  16
ATOM     16  C   UNL     1     -15.189   5.035  22.512  0.00  0.00    +0.097 C 
BRANCH  16  17
ATOM     17  C   UNL     1     -13.646   5.025  22.451  0.00  0.00    +0.006 C 
ATOM     21  C   UNL     1     -13.085   6.102  21.535  0.00  0.00    +0.004 C 
ENDBRANCH  16  17
ENDBRANCH  13  16
ENDBRANCH   6  11
BRANCH   3  10
ATOM     10  C   UNL     1     -15.723   1.545  29.756  0.00  0.00    +0.119 C 
BRANCH  10  12
ATOM     12  C   UNL     1     -15.356   2.149  31.087  0.00  0.00    -0.033 A 
ATOM     14  C   UNL     1     -15.476   3.524  31.286  0.00  0.00    +0.008 A 
ATOM     15  C   UNL     1     -14.896   1.332  32.120  0.00  0.00    +0.008 A 
ATOM     18  C   UNL     1     -15.137   4.083  32.518  0.00  0.00    +0.046 A 
ATOM     19  C   UNL     1     -14.556   1.890  33.351  0.00  0.00    +0.046 A 
ATOM     20  C   UNL     1     -14.676   3.266  33.551  0.00  0.00    +0.120 A 
BRANCH  20   2
ATOM      2  O   UNL     1     -14.346   3.809  34.753  0.00  0.00    -0.495 OA
ATOM     22  C   UNL     1     -14.333   5.233  34.842  0.00  0.00    +0.277 C 
ENDBRANCH  20   2
ENDBRANCH  10  12
ENDBRANCH   3  10
TORSDOF 6
ENDMDL
MODEL 9
REMARK VINA RESULT:      -5.4     23.295     27.119
REMARK  Name = 51137552
REMARK  8 active torsions:
REMARK  status: ('A' for Active; 'I' for Inactive)
REMARK    1  A    between atoms: O_2  and  C_20
REMARK    2  A    between atoms: O_2  and  C_22
REMARK    3  A    between atoms: N_3  and  C_10
REMARK    4  A    between atoms: C_6  and  C_11
REMARK    5  A    between atoms: C_10  and  C_12
REMARK    6  A    between atoms: C_13  and  C_16
REMARK    7  A    between atoms: C_16  and  C_17
REMARK    8  A    between atoms: C_17  and  C_21
REMARK                            x       y       z     vdW  Elec       q    Type
REMARK                         _______ _______ _______ _____ _____    ______ ____
ROOT
ATOM      3  N   UNL     1     -13.575   6.783  33.345  0.00  0.00    -0.297 NA
ATOM      6  C   UNL     1     -12.122   8.516  32.725  0.00  0.00    +0.092 C 
ATOM      7  C   UNL     1     -12.544   8.699  34.192  0.00  0.00    +0.029 C 
ATOM      8  C   UNL     1     -13.128   7.508  32.154  0.00  0.00    +0.097 C 
ATOM      9  C   UNL     1     -13.773   7.814  34.363  0.00  0.00    +0.085 C 
ENDROOT
BRANCH   6  11
ATOM      1  O   UNL     1     -11.556   9.694  30.655  0.00  0.00    -0.424 OA
ATOM      4  N   UNL     1     -12.388  11.015  32.258  0.00  0.00    -0.112 NA
ATOM      5  N   UNL     1     -12.115  11.802  31.154  0.00  0.00    -0.112 NA
ATOM     11  C   UNL     1     -12.046   9.793  31.921  0.00  0.00    +0.222 A 
ATOM     13  C   UNL     1     -11.631  10.990  30.243  0.00  0.00    +0.217 A 
BRANCH  13  16
ATOM     16  C   UNL     1     -11.176  11.280  28.879  0.00  0.00    +0.097 C 
BRANCH  16  17
ATOM     17  C   UNL     1     -11.304  10.069  27.929  0.00  0.00    +0.006 C 
ATOM     21  C   UNL     1     -10.164   9.984  26.925  0.00  0.00    +0.004 C 
ENDBRANCH  16  17
ENDBRANCH  13  16
ENDBRANCH   6  11
BRANCH   3  10
ATOM     10  C   UNL     1     -14.781   6.006  33.102  0.00  0.00    +0.119 C 
BRANCH  10  12
ATOM     12  C   UNL     1     -14.507   4.799  32.242  0.00  0.00    -0.033 A 
ATOM     14  C   UNL     1     -13.593   3.834  32.665  0.00  0.00    +0.008 A 
ATOM     15  C   UNL     1     -15.167   4.648  31.023  0.00  0.00    +0.008 A 
ATOM     18  C   UNL     1     -13.340   2.716  31.870  0.00  0.00    +0.046 A 
ATOM     19  C   UNL     1     -14.913   3.531  30.226  0.00  0.00    +0.046 A 
ATOM     20  C   UNL     1     -13.999   2.566  30.650  0.00  0.00    +0.120 A 
BRANCH  20   2
ATOM      2  O   UNL     1     -13.754   1.476  29.873  0.00  0.00    -0.495 OA
ATOM     22  C   UNL     1     -14.813   0.531  29.726  0.00  0.00    +0.277 C 
ENDBRANCH  20   2
ENDBRANCH  10  12
ENDBRANCH   3  10
TORSDOF 6
ENDMDL
MODEL 10
REMARK VINA RESULT:      -5.4      1.919      8.266
REMARK  Name = 51137552
REMARK  8 active torsions:
REMARK  status: ('A' for Active; 'I' for Inactive)
REMARK    1  A    between atoms: O_2  and  C_20
REMARK    2  A    between atoms: O_2  and  C_22
REMARK    3  A    between atoms: N_3  and  C_10
REMARK    4  A    between atoms: C_6  and  C_11
REMARK    5  A    between atoms: C_10  and  C_12
REMARK    6  A    between atoms: C_13  and  C_16
REMARK    7  A    between atoms: C_16  and  C_17
REMARK    8  A    between atoms: C_17  and  C_21
REMARK                            x       y       z     vdW  Elec       q    Type
REMARK                         _______ _______ _______ _____ _____    ______ ____
ROOT
ATOM      3  N   UNL     1      -4.293 -10.817  16.113  0.00  0.00    -0.297 NA
ATOM      6  C   UNL     1      -3.487 -11.270  13.957  0.00  0.00    +0.092 C 
ATOM      7  C   UNL     1      -2.404 -11.612  14.994  0.00  0.00    +0.029 C 
ATOM      8  C   UNL     1      -4.498 -10.405  14.722  0.00  0.00    +0.097 C 
ATOM      9  C   UNL     1      -2.842 -10.904  16.270  0.00  0.00    +0.085 C 
ENDROOT
BRANCH   6  11
ATOM      1  O   UNL     1      -3.898 -10.313  11.742  0.00  0.00    -0.424 OA
ATOM      4  N   UNL     1      -1.754 -10.256  12.376  0.00  0.00    -0.112 NA
ATOM      5  N   UNL     1      -1.843  -9.689  11.118  0.00  0.00    -0.112 NA
ATOM     11  C   UNL     1      -2.976 -10.606  12.700  0.00  0.00    +0.222 A 
ATOM     13  C   UNL     1      -3.112  -9.744  10.788  0.00  0.00    +0.217 A 
BRANCH  13  16
ATOM     16  C   UNL     1      -3.781  -9.284   9.564  0.00  0.00    +0.097 C 
BRANCH  16  17
ATOM     17  C   UNL     1      -4.635 -10.383   8.894  0.00  0.00    +0.006 C 
ATOM     21  C   UNL     1      -5.283  -9.917   7.599  0.00  0.00    +0.004 C 
ENDBRANCH  16  17
ENDBRANCH  13  16
ENDBRANCH   6  11
BRANCH   3  10
ATOM     10  C   UNL     1      -4.899  -9.894  17.060  0.00  0.00    +0.119 C 
BRANCH  10  12
ATOM     12  C   UNL     1      -6.009 -10.544  17.844  0.00  0.00    -0.033 A 
ATOM     14  C   UNL     1      -7.321 -10.093  17.702  0.00  0.00    +0.008 A 
ATOM     15  C   UNL     1      -5.725 -11.598  18.713  0.00  0.00    +0.008 A 
ATOM     18  C   UNL     1      -8.349 -10.695  18.427  0.00  0.00    +0.046 A 
ATOM     19  C   UNL     1      -6.752 -12.200  19.440  0.00  0.00    +0.046 A 
ATOM     20  C   UNL     1      -8.064 -11.748  19.297  0.00  0.00    +0.120 A 
BRANCH  20   2
ATOM      2  O   UNL     1      -9.066 -12.337  20.004  0.00  0.00    -0.495 OA
ATOM     22  C   UNL     1      -8.981 -13.748  20.200  0.00  0.00    +0.277 C 
ENDBRANCH  20   2
ENDBRANCH  10  12
ENDBRANCH   3  10
TORSDOF 6
ENDMDL
