MODEL 1
REMARK VINA RESULT:      -6.8      0.000      0.000
REMARK  Name = 56775832
REMARK  6 active torsions:
REMARK  status: ('A' for Active; 'I' for Inactive)
REMARK    1  A    between atoms: N_5  and  C_8
REMARK    2  A    between atoms: N_5  and  C_13
REMARK    3  A    between atoms: C_8  and  C_11
REMARK    4  A    between atoms: C_11  and  C_12
REMARK    5  A    between atoms: C_13  and  C_22
REMARK    6  A    between atoms: C_20  and  C_21
REMARK                            x       y       z     vdW  Elec       q    Type
REMARK                         _______ _______ _______ _____ _____    ______ ____
ROOT
ATOM      2  O   UNL     1      -1.083 -11.322  15.416  0.00  0.00    -0.376 OA
ATOM      8  C   UNL     1      -3.214 -11.418  15.490  0.00  0.00    +0.072 C 
ATOM      9  C   UNL     1      -2.096 -11.958  14.605  0.00  0.00    +0.184 C 
ATOM     10  C   UNL     1      -2.085 -10.857  16.348  0.00  0.00    +0.184 C 
ENDROOT
BRANCH   8   5
ATOM      5  N   UNL     1      -3.868 -10.316  14.798  0.00  0.00    -0.302 NA
ATOM     28  H   UNL     1      -3.237  -9.628  14.386  0.00  0.00    +0.123 HD
BRANCH   5  13
ATOM     13  C   UNL     1      -4.766 -10.839  13.773  0.00  0.00    +0.117 C 
BRANCH  13  22
ATOM      1  F   UNL     1      -3.869  -8.420   8.763  0.00  0.00    -0.205 F 
ATOM     22  C   UNL     1      -4.526 -10.193  12.434  0.00  0.00    -0.033 A 
ATOM     23  C   UNL     1      -5.519  -9.405  11.852  0.00  0.00    +0.008 A 
ATOM     24  C   UNL     1      -3.312 -10.383  11.775  0.00  0.00    +0.008 A 
ATOM     25  C   UNL     1      -5.297  -8.806  10.612  0.00  0.00    +0.038 A 
ATOM     26  C   UNL     1      -3.089  -9.783  10.536  0.00  0.00    +0.038 A 
ATOM     27  C   UNL     1      -4.082  -8.995   9.953  0.00  0.00    +0.123 A 
ENDBRANCH  13  22
ENDBRANCH   5  13
ENDBRANCH   8   5
BRANCH   8  11
ATOM     11  C   UNL     1      -4.207 -12.403  16.119  0.00  0.00    +0.085 C 
BRANCH  11  12
ATOM      3  O   UNL     1      -5.922 -10.232  18.377  0.00  0.00    -0.350 OA
ATOM      7  N   UNL     1      -4.788 -10.633  17.681  0.00  0.00    -0.082 NA
ATOM     12  C   UNL     1      -5.173 -11.706  16.984  0.00  0.00    +0.086 A 
ATOM     19  C   UNL     1      -6.524 -12.026  17.197  0.00  0.00    +0.081 A 
ATOM     20  C   UNL     1      -6.949 -11.069  18.080  0.00  0.00    +0.222 A 
BRANCH  20  21
ATOM      4  O   UNL     1      -8.345 -11.133  19.900  0.00  0.00    -0.267 OA
ATOM      6  N   UNL     1      -9.270 -10.272  17.933  0.00  0.00    -0.295 N 
ATOM     14  C   UNL     1     -11.153  -8.259  17.076  0.00  0.00    +0.003 C 
ATOM     15  C   UNL     1      -9.645  -8.073  16.899  0.00  0.00    +0.019 C 
ATOM     16  C   UNL     1     -11.459  -9.192  18.248  0.00  0.00    +0.019 C 
ATOM     17  C   UNL     1      -8.928  -9.417  16.796  0.00  0.00    +0.108 C 
ATOM     18  C   UNL     1     -10.709 -10.513  18.109  0.00  0.00    +0.108 C 
ATOM     21  C   UNL     1      -8.251 -10.822  18.714  0.00  0.00    +0.285 C 
ENDBRANCH  20  21
ENDBRANCH  11  12
ENDBRANCH   8  11
TORSDOF 6
ENDMDL
MODEL 2
REMARK VINA RESULT:      -6.5      4.814      7.561
REMARK  Name = 56775832
REMARK  6 active torsions:
REMARK  status: ('A' for Active; 'I' for Inactive)
REMARK    1  A    between atoms: N_5  and  C_8
REMARK    2  A    between atoms: N_5  and  C_13
REMARK    3  A    between atoms: C_8  and  C_11
REMARK    4  A    between atoms: C_11  and  C_12
REMARK    5  A    between atoms: C_13  and  C_22
REMARK    6  A    between atoms: C_20  and  C_21
REMARK                            x       y       z     vdW  Elec       q    Type
REMARK                         _______ _______ _______ _____ _____    ______ ____
ROOT
ATOM      2  O   UNL     1     -10.379 -12.168  16.771  0.00  0.00    -0.376 OA
ATOM      8  C   UNL     1      -9.403 -10.319  16.344  0.00  0.00    +0.072 C 
ATOM      9  C   UNL     1      -9.113 -11.806  16.177  0.00  0.00    +0.184 C 
ATOM     10  C   UNL     1     -10.758 -10.777  16.873  0.00  0.00    +0.184 C 
ENDROOT
BRANCH   8   5
ATOM      5  N   UNL     1      -8.615  -9.809  17.457  0.00  0.00    -0.302 NA
ATOM     28  H   UNL     1      -8.568 -10.422  18.271  0.00  0.00    +0.123 HD
BRANCH   5  13
ATOM     13  C   UNL     1      -7.264  -9.491  17.001  0.00  0.00    +0.117 C 
BRANCH  13  22
ATOM      1  F   UNL     1      -3.360 -12.468  19.767  0.00  0.00    -0.205 F 
ATOM     22  C   UNL     1      -6.221 -10.286  17.740  0.00  0.00    -0.033 A 
ATOM     23  C   UNL     1      -6.457 -10.697  19.052  0.00  0.00    +0.008 A 
ATOM     24  C   UNL     1      -5.018 -10.612  17.114  0.00  0.00    +0.008 A 
ATOM     25  C   UNL     1      -5.491 -11.434  19.737  0.00  0.00    +0.038 A 
ATOM     26  C   UNL     1      -4.052 -11.349  17.798  0.00  0.00    +0.038 A 
ATOM     27  C   UNL     1      -4.288 -11.760  19.110  0.00  0.00    +0.123 A 
ENDBRANCH  13  22
ENDBRANCH   5  13
ENDBRANCH   8   5
BRANCH   8  11
ATOM     11  C   UNL     1      -9.356  -9.408  15.110  0.00  0.00    +0.085 C 
BRANCH  11  12
ATOM      3  O   UNL     1     -11.026  -6.358  15.923  0.00  0.00    -0.350 OA
ATOM      7  N   UNL     1      -9.944  -7.226  16.007  0.00  0.00    -0.082 NA
ATOM     12  C   UNL     1     -10.284  -8.274  15.251  0.00  0.00    +0.086 A 
ATOM     19  C   UNL     1     -11.556  -8.126  14.671  0.00  0.00    +0.081 A 
ATOM     20  C   UNL     1     -11.979  -6.905  15.125  0.00  0.00    +0.222 A 
BRANCH  20  21
ATOM      4  O   UNL     1     -14.016  -6.122  15.836  0.00  0.00    -0.267 OA
ATOM      6  N   UNL     1     -13.394  -5.527  13.661  0.00  0.00    -0.295 N 
ATOM     14  C   UNL     1     -13.650  -3.321  11.817  0.00  0.00    +0.003 C 
ATOM     15  C   UNL     1     -12.326  -3.629  12.519  0.00  0.00    +0.019 C 
ATOM     16  C   UNL     1     -14.839  -3.815  12.643  0.00  0.00    +0.019 C 
ATOM     17  C   UNL     1     -12.225  -5.107  12.888  0.00  0.00    +0.108 C 
ATOM     18  C   UNL     1     -14.684  -5.290  13.000  0.00  0.00    +0.108 C 
ATOM     21  C   UNL     1     -13.216  -6.146  14.901  0.00  0.00    +0.285 C 
ENDBRANCH  20  21
ENDBRANCH  11  12
ENDBRANCH   8  11
TORSDOF 6
ENDMDL
MODEL 3
REMARK VINA RESULT:      -6.5     23.445     27.479
REMARK  Name = 56775832
REMARK  6 active torsions:
REMARK  status: ('A' for Active; 'I' for Inactive)
REMARK    1  A    between atoms: N_5  and  C_8
REMARK    2  A    between atoms: N_5  and  C_13
REMARK    3  A    between atoms: C_8  and  C_11
REMARK    4  A    between atoms: C_11  and  C_12
REMARK    5  A    between atoms: C_13  and  C_22
REMARK    6  A    between atoms: C_20  and  C_21
REMARK                            x       y       z     vdW  Elec       q    Type
REMARK                         _______ _______ _______ _____ _____    ______ ____
ROOT
ATOM      2  O   UNL     1      12.484   8.632   4.695  0.00  0.00    -0.376 OA
ATOM      8  C   UNL     1      11.414   6.845   4.230  0.00  0.00    +0.072 C 
ATOM      9  C   UNL     1      11.124   8.185   4.896  0.00  0.00    +0.184 C 
ATOM     10  C   UNL     1      12.801   7.422   3.970  0.00  0.00    +0.184 C 
ENDROOT
BRANCH   8   5
ATOM      5  N   UNL     1      11.518   5.821   5.260  0.00  0.00    -0.302 NA
ATOM     28  H   UNL     1      11.863   6.149   6.163  0.00  0.00    +0.123 HD
BRANCH   5  13
ATOM     13  C   UNL     1      10.227   5.162   5.435  0.00  0.00    +0.117 C 
BRANCH  13  22
ATOM      1  F   UNL     1       8.616   5.098  10.835  0.00  0.00    -0.205 F 
ATOM     22  C   UNL     1       9.797   5.145   6.878  0.00  0.00    -0.033 A 
ATOM     23  C   UNL     1       9.325   6.312   7.479  0.00  0.00    +0.008 A 
ATOM     24  C   UNL     1       9.871   3.963   7.614  0.00  0.00    +0.008 A 
ATOM     25  C   UNL     1       8.925   6.296   8.816  0.00  0.00    +0.038 A 
ATOM     26  C   UNL     1       9.471   3.946   8.951  0.00  0.00    +0.038 A 
ATOM     27  C   UNL     1       8.999   5.114   9.552  0.00  0.00    +0.123 A 
ENDBRANCH  13  22
ENDBRANCH   5  13
ENDBRANCH   8   5
BRANCH   8  11
ATOM     11  C   UNL     1      10.556   6.406   3.035  0.00  0.00    +0.085 C 
BRANCH  11  12
ATOM      3  O   UNL     1      12.148   3.612   1.483  0.00  0.00    -0.350 OA
ATOM      7  N   UNL     1      11.405   4.191   2.505  0.00  0.00    -0.082 NA
ATOM     12  C   UNL     1      11.293   5.477   2.164  0.00  0.00    +0.086 A 
ATOM     19  C   UNL     1      11.940   5.767   0.950  0.00  0.00    +0.081 A 
ATOM     20  C   UNL     1      12.461   4.560   0.564  0.00  0.00    +0.222 A 
BRANCH  20  21
ATOM      4  O   UNL     1      14.429   3.877  -0.398  0.00  0.00    -0.267 OA
ATOM      6  N   UNL     1      12.617   4.135  -1.853  0.00  0.00    -0.295 N 
ATOM     14  C   UNL     1      11.514   2.943  -4.239  0.00  0.00    +0.003 C 
ATOM     15  C   UNL     1      10.871   2.731  -2.867  0.00  0.00    +0.019 C 
ATOM     16  C   UNL     1      13.010   3.231  -4.108  0.00  0.00    +0.019 C 
ATOM     17  C   UNL     1      11.175   3.895  -1.927  0.00  0.00    +0.108 C 
ATOM     18  C   UNL     1      13.264   4.389  -3.147  0.00  0.00    +0.108 C 
ATOM     21  C   UNL     1      13.250   4.158  -0.608  0.00  0.00    +0.285 C 
ENDBRANCH  20  21
ENDBRANCH  11  12
ENDBRANCH   8  11
TORSDOF 6
ENDMDL
MODEL 4
REMARK VINA RESULT:      -6.4     23.953     27.641
REMARK  Name = 56775832
REMARK  6 active torsions:
REMARK  status: ('A' for Active; 'I' for Inactive)
REMARK    1  A    between atoms: N_5  and  C_8
REMARK    2  A    between atoms: N_5  and  C_13
REMARK    3  A    between atoms: C_8  and  C_11
REMARK    4  A    between atoms: C_11  and  C_12
REMARK    5  A    between atoms: C_13  and  C_22
REMARK    6  A    between atoms: C_20  and  C_21
REMARK                            x       y       z     vdW  Elec       q    Type
REMARK                         _______ _______ _______ _____ _____    ______ ____
ROOT
ATOM      2  O   UNL     1       9.550   5.535   8.754  0.00  0.00    -0.376 OA
ATOM      8  C   UNL     1      10.136   6.028   6.761  0.00  0.00    +0.072 C 
ATOM      9  C   UNL     1       9.869   4.765   7.574  0.00  0.00    +0.184 C 
ATOM     10  C   UNL     1       9.694   6.771   8.018  0.00  0.00    +0.184 C 
ENDROOT
BRANCH   8   5
ATOM      5  N   UNL     1      11.574   6.189   6.603  0.00  0.00    -0.302 NA
ATOM     28  H   UNL     1      12.051   5.408   6.152  0.00  0.00    +0.123 HD
BRANCH   5  13
ATOM     13  C   UNL     1      11.856   7.425   5.878  0.00  0.00    +0.117 C 
BRANCH  13  22
ATOM      1  F   UNL     1      17.311   7.875   4.538  0.00  0.00    -0.205 F 
ATOM     22  C   UNL     1      13.313   7.546   5.519  0.00  0.00    -0.033 A 
ATOM     23  C   UNL     1      14.256   7.803   6.514  0.00  0.00    +0.008 A 
ATOM     24  C   UNL     1      13.720   7.400   4.194  0.00  0.00    +0.008 A 
ATOM     25  C   UNL     1      15.607   7.914   6.182  0.00  0.00    +0.038 A 
ATOM     26  C   UNL     1      15.071   7.510   3.862  0.00  0.00    +0.038 A 
ATOM     27  C   UNL     1      16.015   7.768   4.857  0.00  0.00    +0.123 A 
ENDBRANCH  13  22
ENDBRANCH   5  13
ENDBRANCH   8   5
BRANCH   8  11
ATOM     11  C   UNL     1       9.361   6.250   5.456  0.00  0.00    +0.085 C 
BRANCH  11  12
ATOM      3  O   UNL     1      10.833   3.744   3.381  0.00  0.00    -0.350 OA
ATOM      7  N   UNL     1      10.385   4.214   4.610  0.00  0.00    -0.082 NA
ATOM     12  C   UNL     1       9.922   5.442   4.361  0.00  0.00    +0.086 A 
ATOM     19  C   UNL     1      10.050   5.798   3.007  0.00  0.00    +0.081 A 
ATOM     20  C   UNL     1      10.629   4.696   2.435  0.00  0.00    +0.222 A 
BRANCH  20  21
ATOM      4  O   UNL     1      10.138   4.416   0.211  0.00  0.00    -0.267 OA
ATOM      6  N   UNL     1      12.380   4.123   0.808  0.00  0.00    -0.295 N 
ATOM     14  C   UNL     1      15.025   4.578  -0.255  0.00  0.00    +0.003 C 
ATOM     15  C   UNL     1      14.448   5.453   0.859  0.00  0.00    +0.019 C 
ATOM     16  C   UNL     1      13.913   3.973  -1.112  0.00  0.00    +0.019 C 
ATOM     17  C   UNL     1      13.408   4.693   1.679  0.00  0.00    +0.108 C 
ATOM     18  C   UNL     1      12.892   3.239  -0.248  0.00  0.00    +0.108 C 
ATOM     21  C   UNL     1      11.034   4.402   1.054  0.00  0.00    +0.285 C 
ENDBRANCH  20  21
ENDBRANCH  11  12
ENDBRANCH   8  11
TORSDOF 6
ENDMDL
MODEL 5
REMARK VINA RESULT:      -6.4      4.200      8.263
REMARK  Name = 56775832
REMARK  6 active torsions:
REMARK  status: ('A' for Active; 'I' for Inactive)
REMARK    1  A    between atoms: N_5  and  C_8
REMARK    2  A    between atoms: N_5  and  C_13
REMARK    3  A    between atoms: C_8  and  C_11
REMARK    4  A    between atoms: C_11  and  C_12
REMARK    5  A    between atoms: C_13  and  C_22
REMARK    6  A    between atoms: C_20  and  C_21
REMARK                            x       y       z     vdW  Elec       q    Type
REMARK                         _______ _______ _______ _____ _____    ______ ____
ROOT
ATOM      2  O   UNL     1      -2.337 -14.050  13.035  0.00  0.00    -0.376 OA
ATOM      8  C   UNL     1      -2.570 -12.227  14.121  0.00  0.00    +0.072 C 
ATOM      9  C   UNL     1      -1.440 -13.189  13.772  0.00  0.00    +0.184 C 
ATOM     10  C   UNL     1      -3.434 -13.133  13.250  0.00  0.00    +0.184 C 
ENDROOT
BRANCH   8   5
ATOM      5  N   UNL     1      -2.942 -12.427  15.515  0.00  0.00    -0.302 NA
ATOM     28  H   UNL     1      -2.367 -13.099  16.025  0.00  0.00    +0.123 HD
BRANCH   5  13
ATOM     13  C   UNL     1      -2.941 -11.145  16.215  0.00  0.00    +0.117 C 
BRANCH  13  22
ATOM      1  F   UNL     1      -7.374 -10.629  19.655  0.00  0.00    -0.205 F 
ATOM     22  C   UNL     1      -4.125 -11.007  17.135  0.00  0.00    -0.033 A 
ATOM     23  C   UNL     1      -5.234 -10.263  16.735  0.00  0.00    +0.008 A 
ATOM     24  C   UNL     1      -4.113 -11.623  18.386  0.00  0.00    +0.008 A 
ATOM     25  C   UNL     1      -6.333 -10.136  17.587  0.00  0.00    +0.038 A 
ATOM     26  C   UNL     1      -5.210 -11.497  19.238  0.00  0.00    +0.038 A 
ATOM     27  C   UNL     1      -6.320 -10.752  18.838  0.00  0.00    +0.123 A 
ENDBRANCH  13  22
ENDBRANCH   5  13
ENDBRANCH   8   5
BRANCH   8  11
ATOM     11  C   UNL     1      -2.431 -10.746  13.745  0.00  0.00    +0.085 C 
BRANCH  11  12
ATOM      3  O   UNL     1      -5.044  -9.921  11.456  0.00  0.00    -0.350 OA
ATOM      7  N   UNL     1      -4.573 -10.204  12.732  0.00  0.00    -0.082 NA
ATOM     12  C   UNL     1      -3.263 -10.414  12.577  0.00  0.00    +0.086 A 
ATOM     19  C   UNL     1      -2.854 -10.279  11.240  0.00  0.00    +0.081 A 
ATOM     20  C   UNL     1      -4.011  -9.969  10.576  0.00  0.00    +0.222 A 
BRANCH  20  21
ATOM      4  O   UNL     1      -4.021  -8.567   8.760  0.00  0.00    -0.267 OA
ATOM      6  N   UNL     1      -4.844 -10.724   8.389  0.00  0.00    -0.295 N 
ATOM     14  C   UNL     1      -4.913 -12.735   6.320  0.00  0.00    +0.003 C 
ATOM     15  C   UNL     1      -4.011 -12.879   7.547  0.00  0.00    +0.019 C 
ATOM     16  C   UNL     1      -5.197 -11.264   6.014  0.00  0.00    +0.019 C 
ATOM     17  C   UNL     1      -4.577 -12.119   8.744  0.00  0.00    +0.108 C 
ATOM     18  C   UNL     1      -5.744 -10.544   7.243  0.00  0.00    +0.108 C 
ATOM     21  C   UNL     1      -4.292  -9.699   9.160  0.00  0.00    +0.285 C 
ENDBRANCH  20  21
ENDBRANCH  11  12
ENDBRANCH   8  11
TORSDOF 6
ENDMDL
MODEL 6
REMARK VINA RESULT:      -6.4      5.093      8.728
REMARK  Name = 56775832
REMARK  6 active torsions:
REMARK  status: ('A' for Active; 'I' for Inactive)
REMARK    1  A    between atoms: N_5  and  C_8
REMARK    2  A    between atoms: N_5  and  C_13
REMARK    3  A    between atoms: C_8  and  C_11
REMARK    4  A    between atoms: C_11  and  C_12
REMARK    5  A    between atoms: C_13  and  C_22
REMARK    6  A    between atoms: C_20  and  C_21
REMARK                            x       y       z     vdW  Elec       q    Type
REMARK                         _______ _______ _______ _____ _____    ______ ____
ROOT
ATOM      2  O   UNL     1     -14.742  -8.444  15.051  0.00  0.00    -0.376 OA
ATOM      8  C   UNL     1     -12.875  -7.444  14.784  0.00  0.00    +0.072 C 
ATOM      9  C   UNL     1     -13.613  -8.161  15.908  0.00  0.00    +0.184 C 
ATOM     10  C   UNL     1     -14.059  -7.861  13.918  0.00  0.00    +0.184 C 
ENDROOT
BRANCH   8   5
ATOM      5  N   UNL     1     -12.948  -6.008  15.016  0.00  0.00    -0.302 NA
ATOM     28  H   UNL     1     -12.755  -5.714  15.974  0.00  0.00    +0.123 HD
BRANCH   5  13
ATOM     13  C   UNL     1     -12.053  -5.312  14.095  0.00  0.00    +0.117 C 
BRANCH  13  22
ATOM      1  F   UNL     1     -14.896  -2.356  10.231  0.00  0.00    -0.205 F 
ATOM     22  C   UNL     1     -12.813  -4.522  13.063  0.00  0.00    -0.033 A 
ATOM     23  C   UNL     1     -12.227  -4.243  11.829  0.00  0.00    +0.008 A 
ATOM     24  C   UNL     1     -14.102  -4.068  13.341  0.00  0.00    +0.008 A 
ATOM     25  C   UNL     1     -12.931  -3.511  10.872  0.00  0.00    +0.038 A 
ATOM     26  C   UNL     1     -14.807  -3.337  12.385  0.00  0.00    +0.038 A 
ATOM     27  C   UNL     1     -14.220  -3.058  11.150  0.00  0.00    +0.123 A 
ENDBRANCH  13  22
ENDBRANCH   5  13
ENDBRANCH   8   5
BRANCH   8  11
ATOM     11  C   UNL     1     -11.468  -7.916  14.395  0.00  0.00    +0.085 C 
BRANCH  11  12
ATOM      3  O   UNL     1      -9.599  -7.937  17.438  0.00  0.00    -0.350 OA
ATOM      7  N   UNL     1     -10.335  -7.290  16.453  0.00  0.00    -0.082 NA
ATOM     12  C   UNL     1     -10.672  -8.250  15.587  0.00  0.00    +0.086 A 
ATOM     19  C   UNL     1     -10.181  -9.510  15.969  0.00  0.00    +0.081 A 
ATOM     20  C   UNL     1      -9.514  -9.259  17.139  0.00  0.00    +0.222 A 
BRANCH  20  21
ATOM      4  O   UNL     1      -9.453 -10.876  18.765  0.00  0.00    -0.267 OA
ATOM      6  N   UNL     1      -7.380 -10.050  18.067  0.00  0.00    -0.295 N 
ATOM     14  C   UNL     1      -4.672 -10.955  17.641  0.00  0.00    +0.003 C 
ATOM     15  C   UNL     1      -5.611 -10.659  16.470  0.00  0.00    +0.019 C 
ATOM     16  C   UNL     1      -5.458 -11.347  18.893  0.00  0.00    +0.019 C 
ATOM     17  C   UNL     1      -6.672  -9.631  16.856  0.00  0.00    +0.108 C 
ATOM     18  C   UNL     1      -6.515 -10.299  19.228  0.00  0.00    +0.108 C 
ATOM     21  C   UNL     1      -8.774 -10.133  18.058  0.00  0.00    +0.285 C 
ENDBRANCH  20  21
ENDBRANCH  11  12
ENDBRANCH   8  11
TORSDOF 6
ENDMDL
MODEL 7
REMARK VINA RESULT:      -6.3     28.738     31.980
REMARK  Name = 56775832
REMARK  6 active torsions:
REMARK  status: ('A' for Active; 'I' for Inactive)
REMARK    1  A    between atoms: N_5  and  C_8
REMARK    2  A    between atoms: N_5  and  C_13
REMARK    3  A    between atoms: C_8  and  C_11
REMARK    4  A    between atoms: C_11  and  C_12
REMARK    5  A    between atoms: C_13  and  C_22
REMARK    6  A    between atoms: C_20  and  C_21
REMARK                            x       y       z     vdW  Elec       q    Type
REMARK                         _______ _______ _______ _____ _____    ______ ____
ROOT
ATOM      2  O   UNL     1      20.477   8.680  24.516  0.00  0.00    -0.376 OA
ATOM      8  C   UNL     1      19.917   8.215  22.510  0.00  0.00    +0.072 C 
ATOM      9  C   UNL     1      20.027   9.458  23.384  0.00  0.00    +0.184 C 
ATOM     10  C   UNL     1      20.485   7.476  23.717  0.00  0.00    +0.184 C 
ENDROOT
BRANCH   8   5
ATOM      5  N   UNL     1      18.510   7.865  22.367  0.00  0.00    -0.302 NA
ATOM     28  H   UNL     1      17.905   8.189  23.122  0.00  0.00    +0.123 HD
BRANCH   5  13
ATOM     13  C   UNL     1      18.007   8.353  21.086  0.00  0.00    +0.117 C 
BRANCH  13  22
ATOM      1  F   UNL     1      12.785   6.510  20.040  0.00  0.00    -0.205 F 
ATOM     22  C   UNL     1      16.612   7.860  20.806  0.00  0.00    -0.033 A 
ATOM     23  C   UNL     1      15.593   8.093  21.729  0.00  0.00    +0.008 A 
ATOM     24  C   UNL     1      16.339   7.172  19.625  0.00  0.00    +0.008 A 
ATOM     25  C   UNL     1      14.300   7.637  21.470  0.00  0.00    +0.038 A 
ATOM     26  C   UNL     1      15.046   6.716  19.365  0.00  0.00    +0.038 A 
ATOM     27  C   UNL     1      14.026   6.948  20.289  0.00  0.00    +0.123 A 
ENDBRANCH  13  22
ENDBRANCH   5  13
ENDBRANCH   8   5
BRANCH   8  11
ATOM     11  C   UNL     1      20.683   8.168  21.182  0.00  0.00    +0.085 C 
BRANCH  11  12
ATOM      3  O   UNL     1      21.205   4.722  20.401  0.00  0.00    -0.350 OA
ATOM      7  N   UNL     1      20.389   5.836  20.560  0.00  0.00    -0.082 NA
ATOM     12  C   UNL     1      21.216   6.820  20.922  0.00  0.00    +0.086 A 
ATOM     19  C   UNL     1      22.552   6.392  21.009  0.00  0.00    +0.081 A 
ATOM     20  C   UNL     1      22.490   5.066  20.672  0.00  0.00    +0.222 A 
BRANCH  20  21
ATOM      4  O   UNL     1      24.433   4.250  19.765  0.00  0.00    -0.267 OA
ATOM      6  N   UNL     1      23.396   2.885  21.354  0.00  0.00    -0.295 N 
ATOM     14  C   UNL     1      24.083   1.031  23.458  0.00  0.00    +0.003 C 
ATOM     15  C   UNL     1      23.562   2.436  23.767  0.00  0.00    +0.019 C 
ATOM     16  C   UNL     1      24.778   0.988  22.097  0.00  0.00    +0.019 C 
ATOM     17  C   UNL     1      22.687   2.964  22.633  0.00  0.00    +0.108 C 
ATOM     18  C   UNL     1      23.872   1.541  21.000  0.00  0.00    +0.108 C 
ATOM     21  C   UNL     1      23.524   4.029  20.564  0.00  0.00    +0.285 C 
ENDBRANCH  20  21
ENDBRANCH  11  12
ENDBRANCH   8  11
TORSDOF 6
ENDMDL
MODEL 8
REMARK VINA RESULT:      -6.2      1.377      2.296
REMARK  Name = 56775832
REMARK  6 active torsions:
REMARK  status: ('A' for Active; 'I' for Inactive)
REMARK    1  A    between atoms: N_5  and  C_8
REMARK    2  A    between atoms: N_5  and  C_13
REMARK    3  A    between atoms: C_8  and  C_11
REMARK    4  A    between atoms: C_11  and  C_12
REMARK    5  A    between atoms: C_13  and  C_22
REMARK    6  A    between atoms: C_20  and  C_21
REMARK                            x       y       z     vdW  Elec       q    Type
REMARK                         _______ _______ _______ _____ _____    ______ ____
ROOT
ATOM      2  O   UNL     1      -1.151 -11.216  15.398  0.00  0.00    -0.376 OA
ATOM      8  C   UNL     1      -3.276 -11.402  15.465  0.00  0.00    +0.072 C 
ATOM      9  C   UNL     1      -2.128 -11.941  14.619  0.00  0.00    +0.184 C 
ATOM     10  C   UNL     1      -2.180 -10.744  16.297  0.00  0.00    +0.184 C 
ENDROOT
BRANCH   8   5
ATOM      5  N   UNL     1      -3.971 -10.370  14.709  0.00  0.00    -0.302 NA
ATOM     28  H   UNL     1      -3.372  -9.647  14.309  0.00  0.00    +0.123 HD
BRANCH   5  13
ATOM     13  C   UNL     1      -4.773 -10.985  13.654  0.00  0.00    +0.117 C 
BRANCH  13  22
ATOM      1  F   UNL     1      -3.976  -8.475   8.672  0.00  0.00    -0.205 F 
ATOM     22  C   UNL     1      -4.560 -10.314  12.323  0.00  0.00    -0.033 A 
ATOM     23  C   UNL     1      -3.417 -10.596  11.576  0.00  0.00    +0.008 A 
ATOM     24  C   UNL     1      -5.506  -9.411  11.838  0.00  0.00    +0.008 A 
ATOM     25  C   UNL     1      -3.220  -9.974  10.342  0.00  0.00    +0.038 A 
ATOM     26  C   UNL     1      -5.309  -8.790  10.604  0.00  0.00    +0.038 A 
ATOM     27  C   UNL     1      -4.165  -9.071   9.857  0.00  0.00    +0.123 A 
ENDBRANCH  13  22
ENDBRANCH   5  13
ENDBRANCH   8   5
BRANCH   8  11
ATOM     11  C   UNL     1      -4.230 -12.393  16.143  0.00  0.00    +0.085 C 
BRANCH  11  12
ATOM      3  O   UNL     1      -6.208 -10.297  18.253  0.00  0.00    -0.350 OA
ATOM      7  N   UNL     1      -4.988 -10.745  17.763  0.00  0.00    -0.082 NA
ATOM     12  C   UNL     1      -5.299 -11.689  16.870  0.00  0.00    +0.086 A 
ATOM     19  C   UNL     1      -6.687 -11.879  16.755  0.00  0.00    +0.081 A 
ATOM     20  C   UNL     1      -7.213 -10.980  17.646  0.00  0.00    +0.222 A 
BRANCH  20  21
ATOM      4  O   UNL     1      -9.193  -9.880  17.280  0.00  0.00    -0.267 OA
ATOM      6  N   UNL     1      -9.119 -11.247  19.176  0.00  0.00    -0.295 N 
ATOM     14  C   UNL     1     -10.839 -12.977  20.719  0.00  0.00    +0.003 C 
ATOM     15  C   UNL     1      -9.750 -13.539  19.803  0.00  0.00    +0.019 C 
ATOM     16  C   UNL     1     -11.311 -11.605  20.235  0.00  0.00    +0.019 C 
ATOM     17  C   UNL     1      -8.607 -12.543  19.623  0.00  0.00    +0.108 C 
ATOM     18  C   UNL     1     -10.134 -10.651  20.054  0.00  0.00    +0.108 C 
ATOM     21  C   UNL     1      -8.596 -10.661  18.021  0.00  0.00    +0.285 C 
ENDBRANCH  20  21
ENDBRANCH  11  12
ENDBRANCH   8  11
TORSDOF 6
ENDMDL
MODEL 9
REMARK VINA RESULT:      -6.1      3.913      7.979
REMARK  Name = 56775832
REMARK  6 active torsions:
REMARK  status: ('A' for Active; 'I' for Inactive)
REMARK    1  A    between atoms: N_5  and  C_8
REMARK    2  A    between atoms: N_5  and  C_13
REMARK    3  A    between atoms: C_8  and  C_11
REMARK    4  A    between atoms: C_11  and  C_12
REMARK    5  A    between atoms: C_13  and  C_22
REMARK    6  A    between atoms: C_20  and  C_21
REMARK                            x       y       z     vdW  Elec       q    Type
REMARK                         _______ _______ _______ _____ _____    ______ ____
ROOT
ATOM      2  O   UNL     1      -0.666 -10.389  15.500  0.00  0.00    -0.376 OA
ATOM      8  C   UNL     1      -2.262 -10.769  14.135  0.00  0.00    +0.072 C 
ATOM      9  C   UNL     1      -1.170  -9.721  14.322  0.00  0.00    +0.184 C 
ATOM     10  C   UNL     1      -1.615 -11.466  15.327  0.00  0.00    +0.184 C 
ENDROOT
BRANCH   8   5
ATOM      5  N   UNL     1      -3.534 -10.202  14.558  0.00  0.00    -0.302 NA
ATOM     28  H   UNL     1      -3.986  -9.593  13.875  0.00  0.00    +0.123 HD
BRANCH   5  13
ATOM     13  C   UNL     1      -4.449 -11.273  14.945  0.00  0.00    +0.117 C 
BRANCH  13  22
ATOM      1  F   UNL     1      -6.820 -10.300  19.963  0.00  0.00    -0.205 F 
ATOM     22  C   UNL     1      -5.082 -11.013  16.286  0.00  0.00    -0.033 A 
ATOM     23  C   UNL     1      -6.360 -10.459  16.357  0.00  0.00    +0.008 A 
ATOM     24  C   UNL     1      -4.391 -11.325  17.456  0.00  0.00    +0.008 A 
ATOM     25  C   UNL     1      -6.948 -10.219  17.600  0.00  0.00    +0.038 A 
ATOM     26  C   UNL     1      -4.978 -11.085  18.699  0.00  0.00    +0.038 A 
ATOM     27  C   UNL     1      -6.257 -10.531  18.771  0.00  0.00    +0.123 A 
ENDBRANCH  13  22
ENDBRANCH   5  13
ENDBRANCH   8   5
BRANCH   8  11
ATOM     11  C   UNL     1      -2.355 -11.517  12.798  0.00  0.00    +0.085 C 
BRANCH  11  12
ATOM      3  O   UNL     1      -2.893  -9.147  10.182  0.00  0.00    -0.350 OA
ATOM      7  N   UNL     1      -2.078  -9.802  11.097  0.00  0.00    -0.082 NA
ATOM     12  C   UNL     1      -2.890 -10.647  11.738  0.00  0.00    +0.086 A 
ATOM     19  C   UNL     1      -4.215 -10.570  11.276  0.00  0.00    +0.081 A 
ATOM     20  C   UNL     1      -4.163  -9.612  10.298  0.00  0.00    +0.222 A 
BRANCH  20  21
ATOM      4  O   UNL     1      -5.474  -7.865   9.597  0.00  0.00    -0.267 OA
ATOM      6  N   UNL     1      -5.775  -9.887   8.462  0.00  0.00    -0.295 N 
ATOM     14  C   UNL     1      -6.376 -10.864   5.813  0.00  0.00    +0.003 C 
ATOM     15  C   UNL     1      -4.969 -10.967   6.405  0.00  0.00    +0.019 C 
ATOM     16  C   UNL     1      -7.148  -9.697   6.429  0.00  0.00    +0.019 C 
ATOM     17  C   UNL     1      -5.011 -11.017   7.930  0.00  0.00    +0.108 C 
ATOM     18  C   UNL     1      -7.148  -9.781   7.952  0.00  0.00    +0.108 C 
ATOM     21  C   UNL     1      -5.193  -9.049   9.416  0.00  0.00    +0.285 C 
ENDBRANCH  20  21
ENDBRANCH  11  12
ENDBRANCH   8  11
TORSDOF 6
ENDMDL
MODEL 10
REMARK VINA RESULT:      -6.0      1.698      2.272
REMARK  Name = 56775832
REMARK  6 active torsions:
REMARK  status: ('A' for Active; 'I' for Inactive)
REMARK    1  A    between atoms: N_5  and  C_8
REMARK    2  A    between atoms: N_5  and  C_13
REMARK    3  A    between atoms: C_8  and  C_11
REMARK    4  A    between atoms: C_11  and  C_12
REMARK    5  A    between atoms: C_13  and  C_22
REMARK    6  A    between atoms: C_20  and  C_21
REMARK                            x       y       z     vdW  Elec       q    Type
REMARK                         _______ _______ _______ _____ _____    ______ ____
ROOT
ATOM      2  O   UNL     1      -5.263 -13.988  14.631  0.00  0.00    -0.376 OA
ATOM      8  C   UNL     1      -4.094 -12.226  14.341  0.00  0.00    +0.072 C 
ATOM      9  C   UNL     1      -5.569 -12.612  14.311  0.00  0.00    +0.184 C 
ATOM     10  C   UNL     1      -3.860 -13.670  14.769  0.00  0.00    +0.184 C 
ENDROOT
BRANCH   8   5
ATOM      5  N   UNL     1      -3.624 -12.061  12.973  0.00  0.00    -0.302 NA
ATOM     28  H   UNL     1      -4.311 -12.278  12.250  0.00  0.00    +0.123 HD
BRANCH   5  13
ATOM     13  C   UNL     1      -3.121 -10.703  12.784  0.00  0.00    +0.117 C 
BRANCH  13  22
ATOM      1  F   UNL     1      -6.110  -7.873   8.936  0.00  0.00    -0.205 F 
ATOM     22  C   UNL     1      -3.920  -9.946  11.756  0.00  0.00    -0.033 A 
ATOM     23  C   UNL     1      -3.336  -9.596  10.539  0.00  0.00    +0.008 A 
ATOM     24  C   UNL     1      -5.243  -9.596  12.020  0.00  0.00    +0.008 A 
ATOM     25  C   UNL     1      -4.076  -8.896   9.586  0.00  0.00    +0.038 A 
ATOM     26  C   UNL     1      -5.984  -8.896  11.068  0.00  0.00    +0.038 A 
ATOM     27  C   UNL     1      -5.400  -8.545   9.850  0.00  0.00    +0.123 A 
ENDBRANCH  13  22
ENDBRANCH   5  13
ENDBRANCH   8   5
BRANCH   8  11
ATOM     11  C   UNL     1      -3.641 -11.092  15.271  0.00  0.00    +0.085 C 
BRANCH  11  12
ATOM      3  O   UNL     1      -6.399  -9.479  16.865  0.00  0.00    -0.350 OA
ATOM      7  N   UNL     1      -5.482  -9.605  15.829  0.00  0.00    -0.082 NA
ATOM     12  C   UNL     1      -4.734 -10.662  16.158  0.00  0.00    +0.086 A 
ATOM     19  C   UNL     1      -5.128 -11.237  17.379  0.00  0.00    +0.081 A 
ATOM     20  C   UNL     1      -6.178 -10.455  17.782  0.00  0.00    +0.222 A 
BRANCH  20  21
ATOM      4  O   UNL     1      -6.479 -10.403  20.055  0.00  0.00    -0.267 OA
ATOM      6  N   UNL     1      -8.417 -10.670  18.774  0.00  0.00    -0.295 N 
ATOM     14  C   UNL     1     -11.203  -9.914  18.800  0.00  0.00    +0.003 C 
ATOM     15  C   UNL     1     -10.204  -9.259  17.845  0.00  0.00    +0.019 C 
ATOM     16  C   UNL     1     -10.504 -10.433  20.058  0.00  0.00    +0.019 C 
ATOM     17  C   UNL     1      -9.036 -10.193  17.537  0.00  0.00    +0.108 C 
ATOM     18  C   UNL     1      -9.336 -11.347  19.699  0.00  0.00    +0.108 C 
ATOM     21  C   UNL     1      -7.044 -10.504  18.967  0.00  0.00    +0.285 C 
ENDBRANCH  20  21
ENDBRANCH  11  12
ENDBRANCH   8  11
TORSDOF 6
ENDMDL
