MODEL 1
REMARK VINA RESULT:      -6.7      0.000      0.000
REMARK  Name = 28961481
REMARK  13 active torsions:
REMARK  status: ('A' for Active; 'I' for Inactive)
REMARK    1  A    between atoms: O_4  and  C_13
REMARK    2  A    between atoms: O_5  and  C_16
REMARK    3  A    between atoms: N_7  and  C_11
REMARK    4  A    between atoms: N_7  and  C_17
REMARK    5  A    between atoms: N_7  and  C_18
REMARK    6  A    between atoms: N_8  and  C_15
REMARK    7  A    between atoms: N_9  and  C_19
REMARK    8  A    between atoms: N_9  and  C_21
REMARK    9  A    between atoms: N_9  and  C_22
REMARK   10  A    between atoms: N_10  and  C_23
REMARK   11  A    between atoms: C_12  and  C_15
REMARK   12  A    between atoms: C_14  and  C_16
REMARK   13  A    between atoms: C_17  and  C_19
REMARK                            x       y       z     vdW  Elec       q    Type
REMARK                         _______ _______ _______ _____ _____    ______ ____
ROOT
ATOM      3  O   UNL     1      10.952   7.923  20.108  0.00  0.00    -0.365 OA
ATOM     11  C   UNL     1      11.125   9.758  21.614  0.00  0.00    +0.118 C 
ATOM     12  C   UNL     1      11.252   9.337  20.144  0.00  0.00    +0.155 C 
ATOM     13  C   UNL     1      11.405   8.467  22.367  0.00  0.00    +0.165 C 
ATOM     14  C   UNL     1      10.727   7.455  21.451  0.00  0.00    +0.174 C 
ENDROOT
BRANCH  13   4
ATOM      4  O   UNL     1      12.800   8.203  22.449  0.00  0.00    -0.388 OA
ATOM     29  H   UNL     1      12.909   7.279  22.730  0.00  0.00    +0.210 HD
ENDBRANCH  13   4
BRANCH  11   7
ATOM      7  N   UNL     1      11.922  10.901  22.025  0.00  0.00    -0.296 NA
ATOM     18  C   UNL     1      11.865  11.081  23.480  0.00  0.00    +0.105 C 
BRANCH   7  17
ATOM     17  C   UNL     1      11.473  12.121  21.350  0.00  0.00    +0.100 C 
BRANCH  17  19
ATOM     19  C   UNL     1      11.332  13.259  22.356  0.00  0.00    +0.099 C 
BRANCH  19   9
ATOM      9  N   UNL     1      10.049  13.932  22.180  0.00  0.00    -0.307 NA
ATOM     21  C   UNL     1      10.109  14.868  21.058  0.00  0.00    +0.104 C 
ATOM     22  C   UNL     1       9.662  14.630  23.406  0.00  0.00    +0.104 C 
ENDBRANCH  19   9
ENDBRANCH  17  19
ENDBRANCH   7  17
ENDBRANCH  11   7
BRANCH  12  15
ATOM     15  C   UNL     1      12.618   9.527  19.494  0.00  0.00    +0.139 C 
BRANCH  15   8
ATOM      6  O   UNL     1      15.446   9.376  19.918  0.00  0.00    -0.253 OA
ATOM      8  N   UNL     1      13.406   8.336  19.593  0.00  0.00    -0.297 N 
ATOM     10  N   UNL     1      15.292   7.035  19.855  0.00  0.00    -0.267 N 
ATOM     20  C   UNL     1      14.795   8.340  19.801  0.00  0.00    +0.304 C 
ATOM     30  H   UNL     1      12.933   7.440  19.519  0.00  0.00    +0.150 HD
ATOM     32  H   UNL     1      14.616   6.283  19.739  0.00  0.00    +0.156 HD
BRANCH  10  23
ATOM      1  F   UNL     1      16.644   5.528  17.940  0.00  0.00    -0.203 F 
ATOM      2  F   UNL     1      20.538   5.420  20.625  0.00  0.00    -0.205 F 
ATOM     23  C   UNL     1      16.631   6.622  20.049  0.00  0.00    +0.070 A 
ATOM     24  C   UNL     1      17.279   5.868  19.071  0.00  0.00    +0.147 A 
ATOM     25  C   UNL     1      17.302   6.969  21.221  0.00  0.00    +0.029 A 
ATOM     26  C   UNL     1      18.600   5.462  19.265  0.00  0.00    +0.078 A 
ATOM     27  C   UNL     1      18.622   6.563  21.415  0.00  0.00    +0.040 A 
ATOM     28  C   UNL     1      19.271   5.809  20.438  0.00  0.00    +0.126 A 
ENDBRANCH  10  23
ENDBRANCH  15   8
ENDBRANCH  12  15
BRANCH  14  16
ATOM     16  C   UNL     1      11.224   6.026  21.574  0.00  0.00    +0.190 C 
BRANCH  16   5
ATOM      5  O   UNL     1      12.512   5.936  20.986  0.00  0.00    -0.392 OA
ATOM     31  H   UNL     1      12.591   5.046  20.604  0.00  0.00    +0.210 HD
ENDBRANCH  16   5
ENDBRANCH  14  16
TORSDOF 10
ENDMDL
MODEL 2
REMARK VINA RESULT:      -6.0     26.594     29.974
REMARK  Name = 28961481
REMARK  13 active torsions:
REMARK  status: ('A' for Active; 'I' for Inactive)
REMARK    1  A    between atoms: O_4  and  C_13
REMARK    2  A    between atoms: O_5  and  C_16
REMARK    3  A    between atoms: N_7  and  C_11
REMARK    4  A    between atoms: N_7  and  C_17
REMARK    5  A    between atoms: N_7  and  C_18
REMARK    6  A    between atoms: N_8  and  C_15
REMARK    7  A    between atoms: N_9  and  C_19
REMARK    8  A    between atoms: N_9  and  C_21
REMARK    9  A    between atoms: N_9  and  C_22
REMARK   10  A    between atoms: N_10  and  C_23
REMARK   11  A    between atoms: C_12  and  C_15
REMARK   12  A    between atoms: C_14  and  C_16
REMARK   13  A    between atoms: C_17  and  C_19
REMARK                            x       y       z     vdW  Elec       q    Type
REMARK                         _______ _______ _______ _____ _____    ______ ____
ROOT
ATOM      3  O   UNL     1      -5.033 -10.231  18.224  0.00  0.00    -0.365 OA
ATOM     11  C   UNL     1      -4.623 -12.028  16.718  0.00  0.00    +0.118 C 
ATOM     12  C   UNL     1      -4.824 -10.511  16.821  0.00  0.00    +0.155 C 
ATOM     13  C   UNL     1      -5.366 -12.557  17.935  0.00  0.00    +0.165 C 
ATOM     14  C   UNL     1      -5.042 -11.472  18.955  0.00  0.00    +0.174 C 
ENDROOT
BRANCH  13   4
ATOM      4  O   UNL     1      -6.768 -12.616  17.704  0.00  0.00    -0.388 OA
ATOM     29  H   UNL     1      -6.960 -12.080  16.917  0.00  0.00    +0.210 HD
ENDBRANCH  13   4
BRANCH  11   7
ATOM      7  N   UNL     1      -4.991 -12.640  15.453  0.00  0.00    -0.296 NA
ATOM     18  C   UNL     1      -4.898 -14.102  15.534  0.00  0.00    +0.105 C 
BRANCH   7  17
ATOM     17  C   UNL     1      -4.143 -12.142  14.366  0.00  0.00    +0.100 C 
BRANCH  17  19
ATOM     19  C   UNL     1      -2.704 -12.607  14.566  0.00  0.00    +0.099 C 
BRANCH  19   9
ATOM      9  N   UNL     1      -1.779 -11.510  14.301  0.00  0.00    -0.307 NA
ATOM     21  C   UNL     1      -1.257 -10.961  15.553  0.00  0.00    +0.104 C 
ATOM     22  C   UNL     1      -2.436 -10.460  13.520  0.00  0.00    +0.104 C 
ENDBRANCH  19   9
ENDBRANCH  17  19
ENDBRANCH   7  17
ENDBRANCH  11   7
BRANCH  12  15
ATOM     15  C   UNL     1      -6.009  -9.925  16.061  0.00  0.00    +0.139 C 
BRANCH  15   8
ATOM      6  O   UNL     1      -8.735 -10.789  16.231  0.00  0.00    -0.253 OA
ATOM      8  N   UNL     1      -7.008  -9.435  16.963  0.00  0.00    -0.297 N 
ATOM     10  N   UNL     1      -9.075  -9.247  17.968  0.00  0.00    -0.267 N 
ATOM     20  C   UNL     1      -8.330  -9.909  16.987  0.00  0.00    +0.304 C 
ATOM     30  H   UNL     1      -6.742  -8.714  17.626  0.00  0.00    +0.150 HD
ATOM     32  H   UNL     1      -8.588  -8.539  18.512  0.00  0.00    +0.156 HD
BRANCH  10  23
ATOM      1  F   UNL     1      -9.832 -10.502  20.338  0.00  0.00    -0.203 F 
ATOM      2  F   UNL     1     -14.412  -9.993  19.267  0.00  0.00    -0.205 F 
ATOM     23  C   UNL     1     -10.436  -9.438  18.302  0.00  0.00    +0.070 A 
ATOM     24  C   UNL     1     -10.781 -10.070  19.496  0.00  0.00    +0.147 A 
ATOM     25  C   UNL     1     -11.434  -8.994  17.434  0.00  0.00    +0.029 A 
ATOM     26  C   UNL     1     -12.125 -10.258  19.823  0.00  0.00    +0.078 A 
ATOM     27  C   UNL     1     -12.776  -9.181  17.760  0.00  0.00    +0.040 A 
ATOM     28  C   UNL     1     -13.122  -9.813  18.955  0.00  0.00    +0.126 A 
ENDBRANCH  10  23
ENDBRANCH  15   8
ENDBRANCH  12  15
BRANCH  14  16
ATOM     16  C   UNL     1      -6.010 -11.360  20.119  0.00  0.00    +0.190 C 
BRANCH  16   5
ATOM      5  O   UNL     1      -6.804 -10.196  19.946  0.00  0.00    -0.392 OA
ATOM     31  H   UNL     1      -6.470  -9.737  19.157  0.00  0.00    +0.210 HD
ENDBRANCH  16   5
ENDBRANCH  14  16
TORSDOF 10
ENDMDL
MODEL 3
REMARK VINA RESULT:      -6.0      3.559      7.926
REMARK  Name = 28961481
REMARK  13 active torsions:
REMARK  status: ('A' for Active; 'I' for Inactive)
REMARK    1  A    between atoms: O_4  and  C_13
REMARK    2  A    between atoms: O_5  and  C_16
REMARK    3  A    between atoms: N_7  and  C_11
REMARK    4  A    between atoms: N_7  and  C_17
REMARK    5  A    between atoms: N_7  and  C_18
REMARK    6  A    between atoms: N_8  and  C_15
REMARK    7  A    between atoms: N_9  and  C_19
REMARK    8  A    between atoms: N_9  and  C_21
REMARK    9  A    between atoms: N_9  and  C_22
REMARK   10  A    between atoms: N_10  and  C_23
REMARK   11  A    between atoms: C_12  and  C_15
REMARK   12  A    between atoms: C_14  and  C_16
REMARK   13  A    between atoms: C_17  and  C_19
REMARK                            x       y       z     vdW  Elec       q    Type
REMARK                         _______ _______ _______ _____ _____    ______ ____
ROOT
ATOM      3  O   UNL     1      12.035   6.868  18.694  0.00  0.00    -0.365 OA
ATOM     11  C   UNL     1      14.200   7.479  19.473  0.00  0.00    +0.118 C 
ATOM     12  C   UNL     1      12.988   6.578  19.742  0.00  0.00    +0.155 C 
ATOM     13  C   UNL     1      13.597   8.647  18.708  0.00  0.00    +0.165 C 
ATOM     14  C   UNL     1      12.557   7.922  17.863  0.00  0.00    +0.174 C 
ENDROOT
BRANCH  13   4
ATOM      4  O   UNL     1      12.965   9.573  19.583  0.00  0.00    -0.388 OA
ATOM     29  H   UNL     1      12.395   9.066  20.186  0.00  0.00    +0.210 HD
ENDBRANCH  13   4
BRANCH  11   7
ATOM      7  N   UNL     1      14.999   7.843  20.631  0.00  0.00    -0.296 NA
ATOM     18  C   UNL     1      15.858   8.993  20.331  0.00  0.00    +0.105 C 
BRANCH   7  17
ATOM     17  C   UNL     1      15.814   6.711  21.079  0.00  0.00    +0.100 C 
BRANCH  17  19
ATOM     19  C   UNL     1      17.272   7.135  21.222  0.00  0.00    +0.099 C 
BRANCH  19   9
ATOM      9  N   UNL     1      18.148   6.139  20.614  0.00  0.00    -0.307 NA
ATOM     21  C   UNL     1      19.534   6.610  20.606  0.00  0.00    +0.104 C 
ATOM     22  C   UNL     1      17.708   5.829  19.253  0.00  0.00    +0.104 C 
ENDBRANCH  19   9
ENDBRANCH  17  19
ENDBRANCH   7  17
ENDBRANCH  11   7
BRANCH  12  15
ATOM     15  C   UNL     1      12.270   6.777  21.073  0.00  0.00    +0.139 C 
BRANCH  15   8
ATOM      6  O   UNL     1      10.448   8.656  22.237  0.00  0.00    -0.253 OA
ATOM      8  N   UNL     1      12.601   8.044  21.653  0.00  0.00    -0.297 N 
ATOM     10  N   UNL     1      12.263  10.072  22.696  0.00  0.00    -0.267 N 
ATOM     20  C   UNL     1      11.649   8.916  22.207  0.00  0.00    +0.304 C 
ATOM     30  H   UNL     1      13.578   8.320  21.675  0.00  0.00    +0.150 HD
ATOM     32  H   UNL     1      13.273  10.133  22.592  0.00  0.00    +0.156 HD
BRANCH  10  23
ATOM      1  F   UNL     1      11.293  12.227  21.219  0.00  0.00    -0.203 F 
ATOM      2  F   UNL     1       9.863  14.420  25.159  0.00  0.00    -0.205 F 
ATOM     23  C   UNL     1      11.650  11.183  23.322  0.00  0.00    +0.070 A 
ATOM     24  C   UNL     1      11.175  12.245  22.554  0.00  0.00    +0.147 A 
ATOM     25  C   UNL     1      11.522  11.214  24.711  0.00  0.00    +0.029 A 
ATOM     26  C   UNL     1      10.571  13.339  23.174  0.00  0.00    +0.078 A 
ATOM     27  C   UNL     1      10.918  12.307  25.331  0.00  0.00    +0.040 A 
ATOM     28  C   UNL     1      10.443  13.370  24.563  0.00  0.00    +0.126 A 
ENDBRANCH  10  23
ENDBRANCH  15   8
ENDBRANCH  12  15
BRANCH  14  16
ATOM     16  C   UNL     1      11.409   8.779  17.361  0.00  0.00    +0.190 C 
BRANCH  16   5
ATOM      5  O   UNL     1      11.865   9.564  16.270  0.00  0.00    -0.392 OA
ATOM     31  H   UNL     1      11.220  10.281  16.144  0.00  0.00    +0.210 HD
ENDBRANCH  16   5
ENDBRANCH  14  16
TORSDOF 10
ENDMDL
MODEL 4
REMARK VINA RESULT:      -5.9     27.650     30.427
REMARK  Name = 28961481
REMARK  13 active torsions:
REMARK  status: ('A' for Active; 'I' for Inactive)
REMARK    1  A    between atoms: O_4  and  C_13
REMARK    2  A    between atoms: O_5  and  C_16
REMARK    3  A    between atoms: N_7  and  C_11
REMARK    4  A    between atoms: N_7  and  C_17
REMARK    5  A    between atoms: N_7  and  C_18
REMARK    6  A    between atoms: N_8  and  C_15
REMARK    7  A    between atoms: N_9  and  C_19
REMARK    8  A    between atoms: N_9  and  C_21
REMARK    9  A    between atoms: N_9  and  C_22
REMARK   10  A    between atoms: N_10  and  C_23
REMARK   11  A    between atoms: C_12  and  C_15
REMARK   12  A    between atoms: C_14  and  C_16
REMARK   13  A    between atoms: C_17  and  C_19
REMARK                            x       y       z     vdW  Elec       q    Type
REMARK                         _______ _______ _______ _____ _____    ______ ____
ROOT
ATOM      3  O   UNL     1      -7.551 -11.030  19.736  0.00  0.00    -0.365 OA
ATOM     11  C   UNL     1      -6.824 -12.672  18.172  0.00  0.00    +0.118 C 
ATOM     12  C   UNL     1      -6.529 -11.280  18.745  0.00  0.00    +0.155 C 
ATOM     13  C   UNL     1      -8.321 -12.825  18.396  0.00  0.00    +0.165 C 
ATOM     14  C   UNL     1      -8.474 -12.137  19.747  0.00  0.00    +0.174 C 
ENDROOT
BRANCH  13   4
ATOM      4  O   UNL     1      -9.069 -12.137  17.403  0.00  0.00    -0.388 OA
ATOM     29  H   UNL     1      -9.776 -11.645  17.854  0.00  0.00    +0.210 HD
ENDBRANCH  13   4
BRANCH  11   7
ATOM      7  N   UNL     1      -6.373 -12.916  16.814  0.00  0.00    -0.296 NA
ATOM     18  C   UNL     1      -6.792 -14.245  16.356  0.00  0.00    +0.105 C 
BRANCH   7  17
ATOM     17  C   UNL     1      -4.916 -12.787  16.716  0.00  0.00    +0.100 C 
BRANCH  17  19
ATOM     19  C   UNL     1      -4.520 -12.343  15.311  0.00  0.00    +0.099 C 
BRANCH  19   9
ATOM      9  N   UNL     1      -3.942 -11.003  15.351  0.00  0.00    -0.307 NA
ATOM     21  C   UNL     1      -3.180 -10.736  14.131  0.00  0.00    +0.104 C 
ATOM     22  C   UNL     1      -3.089 -10.846  16.530  0.00  0.00    +0.104 C 
ENDBRANCH  19   9
ENDBRANCH  17  19
ENDBRANCH   7  17
ENDBRANCH  11   7
BRANCH  12  15
ATOM     15  C   UNL     1      -6.559 -10.115  17.761  0.00  0.00    +0.139 C 
BRANCH  15   8
ATOM      6  O   UNL     1      -8.623  -9.454  15.889  0.00  0.00    -0.253 OA
ATOM      8  N   UNL     1      -7.690  -9.270  17.998  0.00  0.00    -0.297 N 
ATOM     10  N   UNL     1      -9.647  -8.138  17.541  0.00  0.00    -0.267 N 
ATOM     20  C   UNL     1      -8.666  -8.990  17.026  0.00  0.00    +0.304 C 
ATOM     30  H   UNL     1      -7.798  -8.860  18.921  0.00  0.00    +0.150 HD
ATOM     32  H   UNL     1      -9.535  -7.843  18.508  0.00  0.00    +0.156 HD
BRANCH  10  23
ATOM      1  F   UNL     1     -12.094  -9.468  17.625  0.00  0.00    -0.203 F 
ATOM      2  F   UNL     1     -14.117  -6.133  14.948  0.00  0.00    -0.205 F 
ATOM     23  C   UNL     1     -10.789  -7.629  16.881  0.00  0.00    +0.070 A 
ATOM     24  C   UNL     1     -11.999  -8.319  16.942  0.00  0.00    +0.147 A 
ATOM     25  C   UNL     1     -10.703  -6.434  16.166  0.00  0.00    +0.029 A 
ATOM     26  C   UNL     1     -13.124  -7.814  16.289  0.00  0.00    +0.078 A 
ATOM     27  C   UNL     1     -11.827  -5.929  15.514  0.00  0.00    +0.040 A 
ATOM     28  C   UNL     1     -13.038  -6.619  15.575  0.00  0.00    +0.126 A 
ENDBRANCH  10  23
ENDBRANCH  15   8
ENDBRANCH  12  15
BRANCH  14  16
ATOM     16  C   UNL     1      -9.867 -11.623  20.065  0.00  0.00    +0.190 C 
BRANCH  16   5
ATOM      5  O   UNL     1      -9.893 -10.217  19.872  0.00  0.00    -0.392 OA
ATOM     31  H   UNL     1      -9.744  -9.807  20.741  0.00  0.00    +0.210 HD
ENDBRANCH  16   5
ENDBRANCH  14  16
TORSDOF 10
ENDMDL
MODEL 5
REMARK VINA RESULT:      -5.8     26.638     29.614
REMARK  Name = 28961481
REMARK  13 active torsions:
REMARK  status: ('A' for Active; 'I' for Inactive)
REMARK    1  A    between atoms: O_4  and  C_13
REMARK    2  A    between atoms: O_5  and  C_16
REMARK    3  A    between atoms: N_7  and  C_11
REMARK    4  A    between atoms: N_7  and  C_17
REMARK    5  A    between atoms: N_7  and  C_18
REMARK    6  A    between atoms: N_8  and  C_15
REMARK    7  A    between atoms: N_9  and  C_19
REMARK    8  A    between atoms: N_9  and  C_21
REMARK    9  A    between atoms: N_9  and  C_22
REMARK   10  A    between atoms: N_10  and  C_23
REMARK   11  A    between atoms: C_12  and  C_15
REMARK   12  A    between atoms: C_14  and  C_16
REMARK   13  A    between atoms: C_17  and  C_19
REMARK                            x       y       z     vdW  Elec       q    Type
REMARK                         _______ _______ _______ _____ _____    ______ ____
ROOT
ATOM      3  O   UNL     1      -4.901 -10.417  18.497  0.00  0.00    -0.365 OA
ATOM     11  C   UNL     1      -4.422 -12.170  16.959  0.00  0.00    +0.118 C 
ATOM     12  C   UNL     1      -4.444 -10.647  17.145  0.00  0.00    +0.155 C 
ATOM     13  C   UNL     1      -5.462 -12.653  17.958  0.00  0.00    +0.165 C 
ATOM     14  C   UNL     1      -5.220 -11.682  19.107  0.00  0.00    +0.174 C 
ENDROOT
BRANCH  13   4
ATOM      4  O   UNL     1      -6.782 -12.500  17.451  0.00  0.00    -0.388 OA
ATOM     29  H   UNL     1      -6.711 -12.182  16.535  0.00  0.00    +0.210 HD
ENDBRANCH  13   4
BRANCH  11   7
ATOM      7  N   UNL     1      -4.596 -12.653  15.600  0.00  0.00    -0.296 NA
ATOM     18  C   UNL     1      -4.930 -14.082  15.594  0.00  0.00    +0.105 C 
BRANCH   7  17
ATOM     17  C   UNL     1      -3.390 -12.415  14.803  0.00  0.00    +0.100 C 
BRANCH  17  19
ATOM     19  C   UNL     1      -3.749 -11.687  13.511  0.00  0.00    +0.099 C 
BRANCH  19   9
ATOM      9  N   UNL     1      -2.886 -10.525  13.331  0.00  0.00    -0.307 NA
ATOM     21  C   UNL     1      -2.213 -10.579  12.033  0.00  0.00    +0.104 C 
ATOM     22  C   UNL     1      -1.902 -10.442  14.412  0.00  0.00    +0.104 C 
ENDBRANCH  19   9
ENDBRANCH  17  19
ENDBRANCH   7  17
ENDBRANCH  11   7
BRANCH  12  15
ATOM     15  C   UNL     1      -5.362  -9.858  16.217  0.00  0.00    +0.139 C 
BRANCH  15   8
ATOM      6  O   UNL     1      -8.091  -9.859  15.348  0.00  0.00    -0.253 OA
ATOM      8  N   UNL     1      -6.488  -9.333  16.930  0.00  0.00    -0.297 N 
ATOM     10  N   UNL     1      -8.688  -8.785  17.348  0.00  0.00    -0.267 N 
ATOM     20  C   UNL     1      -7.803  -9.369  16.438  0.00  0.00    +0.304 C 
ATOM     30  H   UNL     1      -6.326  -8.923  17.845  0.00  0.00    +0.150 HD
ATOM     32  H   UNL     1      -8.286  -8.424  18.210  0.00  0.00    +0.156 HD
BRANCH  10  23
ATOM      1  F   UNL     1      -9.792  -6.747  15.801  0.00  0.00    -0.203 F 
ATOM      2  F   UNL     1     -14.176  -8.180  16.854  0.00  0.00    -0.205 F 
ATOM     23  C   UNL     1     -10.088  -8.629  17.220  0.00  0.00    +0.070 A 
ATOM     24  C   UNL     1     -10.609  -7.598  16.438  0.00  0.00    +0.147 A 
ATOM     25  C   UNL     1     -10.948  -9.508  17.878  0.00  0.00    +0.029 A 
ATOM     26  C   UNL     1     -11.990  -7.446  16.314  0.00  0.00    +0.078 A 
ATOM     27  C   UNL     1     -12.329  -9.356  17.754  0.00  0.00    +0.040 A 
ATOM     28  C   UNL     1     -12.850  -8.325  16.972  0.00  0.00    +0.126 A 
ENDBRANCH  10  23
ENDBRANCH  15   8
ENDBRANCH  12  15
BRANCH  14  16
ATOM     16  C   UNL     1      -6.385 -11.497  20.064  0.00  0.00    +0.190 C 
BRANCH  16   5
ATOM      5  O   UNL     1      -7.092 -10.321  19.703  0.00  0.00    -0.392 OA
ATOM     31  H   UNL     1      -6.760 -10.043  18.833  0.00  0.00    +0.210 HD
ENDBRANCH  16   5
ENDBRANCH  14  16
TORSDOF 10
ENDMDL
MODEL 6
REMARK VINA RESULT:      -5.7     17.014     18.766
REMARK  Name = 28961481
REMARK  13 active torsions:
REMARK  status: ('A' for Active; 'I' for Inactive)
REMARK    1  A    between atoms: O_4  and  C_13
REMARK    2  A    between atoms: O_5  and  C_16
REMARK    3  A    between atoms: N_7  and  C_11
REMARK    4  A    between atoms: N_7  and  C_17
REMARK    5  A    between atoms: N_7  and  C_18
REMARK    6  A    between atoms: N_8  and  C_15
REMARK    7  A    between atoms: N_9  and  C_19
REMARK    8  A    between atoms: N_9  and  C_21
REMARK    9  A    between atoms: N_9  and  C_22
REMARK   10  A    between atoms: N_10  and  C_23
REMARK   11  A    between atoms: C_12  and  C_15
REMARK   12  A    between atoms: C_14  and  C_16
REMARK   13  A    between atoms: C_17  and  C_19
REMARK                            x       y       z     vdW  Elec       q    Type
REMARK                         _______ _______ _______ _____ _____    ______ ____
ROOT
ATOM      3  O   UNL     1       9.201   5.434   6.651  0.00  0.00    -0.365 OA
ATOM     11  C   UNL     1      10.782   7.156   6.198  0.00  0.00    +0.118 C 
ATOM     12  C   UNL     1       9.914   6.062   5.561  0.00  0.00    +0.155 C 
ATOM     13  C   UNL     1      10.992   6.646   7.615  0.00  0.00    +0.165 C 
ATOM     14  C   UNL     1       9.629   6.022   7.894  0.00  0.00    +0.174 C 
ENDROOT
BRANCH  13   4
ATOM      4  O   UNL     1      12.009   5.655   7.668  0.00  0.00    -0.388 OA
ATOM     29  H   UNL     1      11.588   4.792   7.517  0.00  0.00    +0.210 HD
ENDBRANCH  13   4
BRANCH  11   7
ATOM      7  N   UNL     1      11.994   7.511   5.481  0.00  0.00    -0.296 NA
ATOM     18  C   UNL     1      12.963   8.150   6.379  0.00  0.00    +0.105 C 
BRANCH   7  17
ATOM     17  C   UNL     1      11.694   8.398   4.354  0.00  0.00    +0.100 C 
BRANCH  17  19
ATOM     19  C   UNL     1      12.940   8.601   3.498  0.00  0.00    +0.099 C 
BRANCH  19   9
ATOM      9  N   UNL     1      13.048   7.537   2.506  0.00  0.00    -0.307 NA
ATOM     21  C   UNL     1      14.261   6.748   2.727  0.00  0.00    +0.104 C 
ATOM     22  C   UNL     1      13.043   8.093   1.152  0.00  0.00    +0.104 C 
ENDBRANCH  19   9
ENDBRANCH  17  19
ENDBRANCH   7  17
ENDBRANCH  11   7
BRANCH  12  15
ATOM     15  C   UNL     1      10.649   4.959   4.807  0.00  0.00    +0.139 C 
BRANCH  15   8
ATOM      6  O   UNL     1      11.434   3.214   2.676  0.00  0.00    -0.253 OA
ATOM      8  N   UNL     1      10.853   5.320   3.436  0.00  0.00    -0.297 N 
ATOM     10  N   UNL     1      11.363   5.042   1.204  0.00  0.00    -0.267 N 
ATOM     20  C   UNL     1      11.241   4.406   2.443  0.00  0.00    +0.304 C 
ATOM     30  H   UNL     1      10.699   6.287   3.168  0.00  0.00    +0.150 HD
ATOM     32  H   UNL     1      11.166   6.040   1.182  0.00  0.00    +0.156 HD
BRANCH  10  23
ATOM      1  F   UNL     1      13.969   4.188   0.711  0.00  0.00    -0.203 F 
ATOM      2  F   UNL     1      12.796   2.796  -3.656  0.00  0.00    -0.205 F 
ATOM     23  C   UNL     1      11.731   4.469  -0.035  0.00  0.00    +0.070 A 
ATOM     24  C   UNL     1      13.044   4.052  -0.250  0.00  0.00    +0.147 A 
ATOM     25  C   UNL     1      10.778   4.321  -1.043  0.00  0.00    +0.029 A 
ATOM     26  C   UNL     1      13.405   3.486  -1.474  0.00  0.00    +0.078 A 
ATOM     27  C   UNL     1      11.138   3.756  -2.266  0.00  0.00    +0.040 A 
ATOM     28  C   UNL     1      12.451   3.339  -2.482  0.00  0.00    +0.126 A 
ENDBRANCH  10  23
ENDBRANCH  15   8
ENDBRANCH  12  15
BRANCH  14  16
ATOM     16  C   UNL     1       9.605   4.965   8.983  0.00  0.00    +0.190 C 
BRANCH  16   5
ATOM      5  O   UNL     1      10.231   3.789   8.494  0.00  0.00    -0.392 OA
ATOM     31  H   UNL     1       9.534   3.122   8.374  0.00  0.00    +0.210 HD
ENDBRANCH  16   5
ENDBRANCH  14  16
TORSDOF 10
ENDMDL
MODEL 7
REMARK VINA RESULT:      -5.7      4.105      7.132
REMARK  Name = 28961481
REMARK  13 active torsions:
REMARK  status: ('A' for Active; 'I' for Inactive)
REMARK    1  A    between atoms: O_4  and  C_13
REMARK    2  A    between atoms: O_5  and  C_16
REMARK    3  A    between atoms: N_7  and  C_11
REMARK    4  A    between atoms: N_7  and  C_17
REMARK    5  A    between atoms: N_7  and  C_18
REMARK    6  A    between atoms: N_8  and  C_15
REMARK    7  A    between atoms: N_9  and  C_19
REMARK    8  A    between atoms: N_9  and  C_21
REMARK    9  A    between atoms: N_9  and  C_22
REMARK   10  A    between atoms: N_10  and  C_23
REMARK   11  A    between atoms: C_12  and  C_15
REMARK   12  A    between atoms: C_14  and  C_16
REMARK   13  A    between atoms: C_17  and  C_19
REMARK                            x       y       z     vdW  Elec       q    Type
REMARK                         _______ _______ _______ _____ _____    ______ ____
ROOT
ATOM      3  O   UNL     1      13.869   7.229  20.142  0.00  0.00    -0.365 OA
ATOM     11  C   UNL     1      13.126   8.148  18.075  0.00  0.00    +0.118 C 
ATOM     12  C   UNL     1      14.301   8.086  19.060  0.00  0.00    +0.155 C 
ATOM     13  C   UNL     1      11.921   7.871  18.960  0.00  0.00    +0.165 C 
ATOM     14  C   UNL     1      12.503   6.834  19.912  0.00  0.00    +0.174 C 
ENDROOT
BRANCH  13   4
ATOM      4  O   UNL     1      11.523   9.033  19.677  0.00  0.00    -0.388 OA
ATOM     29  H   UNL     1      10.748   9.407  19.225  0.00  0.00    +0.210 HD
ENDBRANCH  13   4
BRANCH  11   7
ATOM      7  N   UNL     1      13.035   9.346  17.259  0.00  0.00    -0.296 NA
ATOM     18  C   UNL     1      11.902   9.260  16.331  0.00  0.00    +0.105 C 
BRANCH   7  17
ATOM     17  C   UNL     1      14.278   9.568  16.516  0.00  0.00    +0.100 C 
BRANCH  17  19
ATOM     19  C   UNL     1      14.049  10.579  15.396  0.00  0.00    +0.099 C 
BRANCH  19   9
ATOM      9  N   UNL     1      15.072  11.617  15.438  0.00  0.00    -0.307 NA
ATOM     21  C   UNL     1      16.216  11.246  14.605  0.00  0.00    +0.104 C 
ATOM     22  C   UNL     1      15.503  11.861  16.815  0.00  0.00    +0.104 C 
ENDBRANCH  19   9
ENDBRANCH  17  19
ENDBRANCH   7  17
ENDBRANCH  11   7
BRANCH  12  15
ATOM     15  C   UNL     1      14.745   9.407  19.678  0.00  0.00    +0.139 C 
BRANCH  15   8
ATOM      6  O   UNL     1      13.203  11.531  20.825  0.00  0.00    -0.253 OA
ATOM      8  N   UNL     1      14.310   9.511  21.039  0.00  0.00    -0.297 N 
ATOM     10  N   UNL     1      13.277  10.418  22.891  0.00  0.00    -0.267 N 
ATOM     20  C   UNL     1      13.554  10.587  21.531  0.00  0.00    +0.304 C 
ATOM     30  H   UNL     1      14.553   8.760  21.678  0.00  0.00    +0.150 HD
ATOM     32  H   UNL     1      13.643   9.576  23.330  0.00  0.00    +0.156 HD
BRANCH  10  23
ATOM      1  F   UNL     1      10.496  10.551  22.791  0.00  0.00    -0.203 F 
ATOM      2  F   UNL     1      10.423  13.793  26.234  0.00  0.00    -0.205 F 
ATOM     23  C   UNL     1      12.547  11.278  23.743  0.00  0.00    +0.070 A 
ATOM     24  C   UNL     1      11.155  11.321  23.667  0.00  0.00    +0.147 A 
ATOM     25  C   UNL     1      13.221  12.085  24.660  0.00  0.00    +0.029 A 
ATOM     26  C   UNL     1      10.437  12.171  24.509  0.00  0.00    +0.078 A 
ATOM     27  C   UNL     1      12.503  12.934  25.501  0.00  0.00    +0.040 A 
ATOM     28  C   UNL     1      11.111  12.978  25.426  0.00  0.00    +0.126 A 
ENDBRANCH  10  23
ENDBRANCH  15   8
ENDBRANCH  12  15
BRANCH  14  16
ATOM     16  C   UNL     1      11.791   6.697  21.245  0.00  0.00    +0.190 C 
BRANCH  16   5
ATOM      5  O   UNL     1      12.260   7.709  22.123  0.00  0.00    -0.392 OA
ATOM     31  H   UNL     1      13.178   7.903  21.870  0.00  0.00    +0.210 HD
ENDBRANCH  16   5
ENDBRANCH  14  16
TORSDOF 10
ENDMDL
MODEL 8
REMARK VINA RESULT:      -5.6     16.941     19.355
REMARK  Name = 28961481
REMARK  13 active torsions:
REMARK  status: ('A' for Active; 'I' for Inactive)
REMARK    1  A    between atoms: O_4  and  C_13
REMARK    2  A    between atoms: O_5  and  C_16
REMARK    3  A    between atoms: N_7  and  C_11
REMARK    4  A    between atoms: N_7  and  C_17
REMARK    5  A    between atoms: N_7  and  C_18
REMARK    6  A    between atoms: N_8  and  C_15
REMARK    7  A    between atoms: N_9  and  C_19
REMARK    8  A    between atoms: N_9  and  C_21
REMARK    9  A    between atoms: N_9  and  C_22
REMARK   10  A    between atoms: N_10  and  C_23
REMARK   11  A    between atoms: C_12  and  C_15
REMARK   12  A    between atoms: C_14  and  C_16
REMARK   13  A    between atoms: C_17  and  C_19
REMARK                            x       y       z     vdW  Elec       q    Type
REMARK                         _______ _______ _______ _____ _____    ______ ____
ROOT
ATOM      3  O   UNL     1      13.225   7.479   2.458  0.00  0.00    -0.365 OA
ATOM     11  C   UNL     1      13.804   6.026   0.663  0.00  0.00    +0.118 C 
ATOM     12  C   UNL     1      12.635   6.598   1.475  0.00  0.00    +0.155 C 
ATOM     13  C   UNL     1      14.970   6.105   1.636  0.00  0.00    +0.165 C 
ATOM     14  C   UNL     1      14.660   7.421   2.340  0.00  0.00    +0.174 C 
ENDROOT
BRANCH  13   4
ATOM      4  O   UNL     1      14.946   5.030   2.566  0.00  0.00    -0.388 OA
ATOM     29  H   UNL     1      14.069   5.023   2.987  0.00  0.00    +0.210 HD
ENDBRANCH  13   4
BRANCH  11   7
ATOM      7  N   UNL     1      13.589   4.723   0.058  0.00  0.00    -0.296 NA
ATOM     18  C   UNL     1      14.845   4.179  -0.470  0.00  0.00    +0.105 C 
BRANCH   7  17
ATOM     17  C   UNL     1      12.588   4.802  -1.009  0.00  0.00    +0.100 C 
BRANCH  17  19
ATOM     19  C   UNL     1      11.575   3.669  -0.865  0.00  0.00    +0.099 C 
BRANCH  19   9
ATOM      9  N   UNL     1      10.320   4.030  -1.516  0.00  0.00    -0.307 NA
ATOM     21  C   UNL     1      10.481   4.049  -2.970  0.00  0.00    +0.104 C 
ATOM     22  C   UNL     1       9.848   5.330  -1.038  0.00  0.00    +0.104 C 
ENDBRANCH  19   9
ENDBRANCH  17  19
ENDBRANCH   7  17
ENDBRANCH  11   7
BRANCH  12  15
ATOM     15  C   UNL     1      11.770   5.594   2.229  0.00  0.00    +0.139 C 
BRANCH  15   8
ATOM      6  O   UNL     1       9.768   4.977   4.182  0.00  0.00    -0.253 OA
ATOM      8  N   UNL     1      11.865   5.793   3.644  0.00  0.00    -0.297 N 
ATOM     10  N   UNL     1      11.211   5.769   5.855  0.00  0.00    -0.267 N 
ATOM     20  C   UNL     1      10.837   5.465   4.543  0.00  0.00    +0.304 C 
ATOM     30  H   UNL     1      12.726   6.181   4.016  0.00  0.00    +0.150 HD
ATOM     32  H   UNL     1      12.137   6.171   5.985  0.00  0.00    +0.156 HD
BRANCH  10  23
ATOM      1  F   UNL     1       9.985   7.913   7.145  0.00  0.00    -0.203 F 
ATOM      2  F   UNL     1       8.260   5.048  10.492  0.00  0.00    -0.205 F 
ATOM     23  C   UNL     1      10.458   5.587   7.038  0.00  0.00    +0.070 A 
ATOM     24  C   UNL     1       9.857   6.681   7.659  0.00  0.00    +0.147 A 
ATOM     25  C   UNL     1      10.317   4.311   7.584  0.00  0.00    +0.029 A 
ATOM     26  C   UNL     1       9.114   6.500   8.827  0.00  0.00    +0.078 A 
ATOM     27  C   UNL     1       9.574   4.130   8.750  0.00  0.00    +0.040 A 
ATOM     28  C   UNL     1       8.973   5.224   9.372  0.00  0.00    +0.126 A 
ENDBRANCH  10  23
ENDBRANCH  15   8
ENDBRANCH  12  15
BRANCH  14  16
ATOM     16  C   UNL     1      15.282   7.590   3.714  0.00  0.00    +0.190 C 
BRANCH  16   5
ATOM      5  O   UNL     1      16.632   7.154   3.663  0.00  0.00    -0.392 OA
ATOM     31  H   UNL     1      16.733   6.458   4.334  0.00  0.00    +0.210 HD
ENDBRANCH  16   5
ENDBRANCH  14  16
TORSDOF 10
ENDMDL
MODEL 9
REMARK VINA RESULT:      -5.4     27.201     29.106
REMARK  Name = 28961481
REMARK  13 active torsions:
REMARK  status: ('A' for Active; 'I' for Inactive)
REMARK    1  A    between atoms: O_4  and  C_13
REMARK    2  A    between atoms: O_5  and  C_16
REMARK    3  A    between atoms: N_7  and  C_11
REMARK    4  A    between atoms: N_7  and  C_17
REMARK    5  A    between atoms: N_7  and  C_18
REMARK    6  A    between atoms: N_8  and  C_15
REMARK    7  A    between atoms: N_9  and  C_19
REMARK    8  A    between atoms: N_9  and  C_21
REMARK    9  A    between atoms: N_9  and  C_22
REMARK   10  A    between atoms: N_10  and  C_23
REMARK   11  A    between atoms: C_12  and  C_15
REMARK   12  A    between atoms: C_14  and  C_16
REMARK   13  A    between atoms: C_17  and  C_19
REMARK                            x       y       z     vdW  Elec       q    Type
REMARK                         _______ _______ _______ _____ _____    ______ ____
ROOT
ATOM      3  O   UNL     1      -4.573  -8.904  11.238  0.00  0.00    -0.365 OA
ATOM     11  C   UNL     1      -5.590 -10.064   9.425  0.00  0.00    +0.118 C 
ATOM     12  C   UNL     1      -5.828  -9.028  10.531  0.00  0.00    +0.155 C 
ATOM     13  C   UNL     1      -4.455 -10.909   9.983  0.00  0.00    +0.165 C 
ATOM     14  C   UNL     1      -3.627  -9.838  10.683  0.00  0.00    +0.174 C 
ENDROOT
BRANCH  13   4
ATOM      4  O   UNL     1      -4.930 -11.861  10.926  0.00  0.00    -0.388 OA
ATOM     29  H   UNL     1      -5.900 -11.872  10.871  0.00  0.00    +0.210 HD
ENDBRANCH  13   4
BRANCH  11   7
ATOM      7  N   UNL     1      -6.756 -10.808   8.981  0.00  0.00    -0.296 NA
ATOM     18  C   UNL     1      -6.361 -11.951   8.150  0.00  0.00    +0.105 C 
BRANCH   7  17
ATOM     17  C   UNL     1      -7.677  -9.943   8.240  0.00  0.00    +0.100 C 
BRANCH  17  19
ATOM     19  C   UNL     1      -6.937  -9.231   7.111  0.00  0.00    +0.099 C 
BRANCH  19   9
ATOM      9  N   UNL     1      -7.883  -8.514   6.263  0.00  0.00    -0.307 NA
ATOM     21  C   UNL     1      -7.361  -8.387   4.902  0.00  0.00    +0.104 C 
ATOM     22  C   UNL     1      -8.175  -7.192   6.821  0.00  0.00    +0.104 C 
ENDBRANCH  19   9
ENDBRANCH  17  19
ENDBRANCH   7  17
ENDBRANCH  11   7
BRANCH  12  15
ATOM     15  C   UNL     1      -6.898  -9.364  11.564  0.00  0.00    +0.139 C 
BRANCH  15   8
ATOM      6  O   UNL     1      -6.366 -11.224  13.676  0.00  0.00    -0.253 OA
ATOM      8  N   UNL     1      -6.452  -9.050  12.888  0.00  0.00    -0.297 N 
ATOM     10  N   UNL     1      -5.786  -9.422  15.065  0.00  0.00    -0.267 N 
ATOM     20  C   UNL     1      -6.211 -10.020  13.876  0.00  0.00    +0.304 C 
ATOM     30  H   UNL     1      -6.291  -8.075  13.121  0.00  0.00    +0.150 HD
ATOM     32  H   UNL     1      -5.711  -8.407  15.064  0.00  0.00    +0.156 HD
BRANCH  10  23
ATOM      1  F   UNL     1      -7.575  -9.530  17.199  0.00  0.00    -0.203 F 
ATOM      2  F   UNL     1      -4.446 -11.904  19.836  0.00  0.00    -0.205 F 
ATOM     23  C   UNL     1      -5.447 -10.054  16.283  0.00  0.00    +0.070 A 
ATOM     24  C   UNL     1      -6.365 -10.091  17.332  0.00  0.00    +0.147 A 
ATOM     25  C   UNL     1      -4.191 -10.642  16.434  0.00  0.00    +0.029 A 
ATOM     26  C   UNL     1      -6.027 -10.716  18.533  0.00  0.00    +0.078 A 
ATOM     27  C   UNL     1      -3.853 -11.267  17.635  0.00  0.00    +0.040 A 
ATOM     28  C   UNL     1      -4.771 -11.304  18.685  0.00  0.00    +0.126 A 
ENDBRANCH  10  23
ENDBRANCH  15   8
ENDBRANCH  12  15
BRANCH  14  16
ATOM     16  C   UNL     1      -2.711 -10.337  11.787  0.00  0.00    +0.190 C 
BRANCH  16   5
ATOM      5  O   UNL     1      -3.425 -10.333  13.013  0.00  0.00    -0.392 OA
ATOM     31  H   UNL     1      -2.777 -10.180  13.721  0.00  0.00    +0.210 HD
ENDBRANCH  16   5
ENDBRANCH  14  16
TORSDOF 10
ENDMDL
MODEL 10
REMARK VINA RESULT:      -5.3     16.804     18.337
REMARK  Name = 28961481
REMARK  13 active torsions:
REMARK  status: ('A' for Active; 'I' for Inactive)
REMARK    1  A    between atoms: O_4  and  C_13
REMARK    2  A    between atoms: O_5  and  C_16
REMARK    3  A    between atoms: N_7  and  C_11
REMARK    4  A    between atoms: N_7  and  C_17
REMARK    5  A    between atoms: N_7  and  C_18
REMARK    6  A    between atoms: N_8  and  C_15
REMARK    7  A    between atoms: N_9  and  C_19
REMARK    8  A    between atoms: N_9  and  C_21
REMARK    9  A    between atoms: N_9  and  C_22
REMARK   10  A    between atoms: N_10  and  C_23
REMARK   11  A    between atoms: C_12  and  C_15
REMARK   12  A    between atoms: C_14  and  C_16
REMARK   13  A    between atoms: C_17  and  C_19
REMARK                            x       y       z     vdW  Elec       q    Type
REMARK                         _______ _______ _______ _____ _____    ______ ____
ROOT
ATOM      3  O   UNL     1       9.162   5.419   6.752  0.00  0.00    -0.365 OA
ATOM     11  C   UNL     1      10.741   7.144   6.306  0.00  0.00    +0.118 C 
ATOM     12  C   UNL     1       9.872   6.055   5.665  0.00  0.00    +0.155 C 
ATOM     13  C   UNL     1      10.956   6.624   7.719  0.00  0.00    +0.165 C 
ATOM     14  C   UNL     1       9.595   5.998   7.998  0.00  0.00    +0.174 C 
ENDROOT
BRANCH  13   4
ATOM      4  O   UNL     1      11.975   5.632   7.760  0.00  0.00    -0.388 OA
ATOM     29  H   UNL     1      12.565   5.846   8.502  0.00  0.00    +0.210 HD
ENDBRANCH  13   4
BRANCH  11   7
ATOM      7  N   UNL     1      11.951   7.505   5.588  0.00  0.00    -0.296 NA
ATOM     18  C   UNL     1      12.961   8.045   6.505  0.00  0.00    +0.105 C 
BRANCH   7  17
ATOM     17  C   UNL     1      11.660   8.478   4.532  0.00  0.00    +0.100 C 
BRANCH  17  19
ATOM     19  C   UNL     1      10.794   9.608   5.081  0.00  0.00    +0.099 C 
BRANCH  19   9
ATOM      9  N   UNL     1       9.910  10.117   4.038  0.00  0.00    -0.307 NA
ATOM     21  C   UNL     1       9.198  11.308   4.503  0.00  0.00    +0.104 C 
ATOM     22  C   UNL     1       8.959   9.086   3.622  0.00  0.00    +0.104 C 
ENDBRANCH  19   9
ENDBRANCH  17  19
ENDBRANCH   7  17
ENDBRANCH  11   7
BRANCH  12  15
ATOM     15  C   UNL     1      10.604   4.958   4.899  0.00  0.00    +0.139 C 
BRANCH  15   8
ATOM      6  O   UNL     1      11.376   3.271   2.717  0.00  0.00    -0.253 OA
ATOM      8  N   UNL     1      10.896   5.371   3.560  0.00  0.00    -0.297 N 
ATOM     10  N   UNL     1      11.492   5.169   1.341  0.00  0.00    -0.267 N 
ATOM     20  C   UNL     1      11.271   4.482   2.538  0.00  0.00    +0.304 C 
ATOM     30  H   UNL     1      10.817   6.358   3.335  0.00  0.00    +0.150 HD
ATOM     32  H   UNL     1      11.361   6.178   1.362  0.00  0.00    +0.156 HD
BRANCH  10  23
ATOM      1  F   UNL     1       9.662   4.828  -0.731  0.00  0.00    -0.203 F 
ATOM      2  F   UNL     1      13.027   3.069  -3.553  0.00  0.00    -0.205 F 
ATOM     23  C   UNL     1      11.881   4.634   0.092  0.00  0.00    +0.070 A 
ATOM     24  C   UNL     1      10.941   4.475  -0.925  0.00  0.00    +0.147 A 
ATOM     25  C   UNL     1      13.209   4.263  -0.123  0.00  0.00    +0.029 A 
ATOM     26  C   UNL     1      11.327   3.947  -2.157  0.00  0.00    +0.078 A 
ATOM     27  C   UNL     1      13.596   3.735  -1.354  0.00  0.00    +0.040 A 
ATOM     28  C   UNL     1      12.655   3.576  -2.372  0.00  0.00    +0.126 A 
ENDBRANCH  10  23
ENDBRANCH  15   8
ENDBRANCH  12  15
BRANCH  14  16
ATOM     16  C   UNL     1       9.575   4.932   9.079  0.00  0.00    +0.190 C 
BRANCH  16   5
ATOM      5  O   UNL     1      10.206   3.762   8.582  0.00  0.00    -0.392 OA
ATOM     31  H   UNL     1      10.252   3.850   7.615  0.00  0.00    +0.210 HD
ENDBRANCH  16   5
ENDBRANCH  14  16
TORSDOF 10
ENDMDL
