MODEL 1
REMARK VINA RESULT:      -6.5      0.000      0.000
REMARK  Name = 11883011
REMARK  11 active torsions:
REMARK  status: ('A' for Active; 'I' for Inactive)
REMARK    1  A    between atoms: O_2  and  C_15
REMARK    2  A    between atoms: O_3  and  C_20
REMARK    3  A    between atoms: C_10  and  C_18
REMARK    4  A    between atoms: C_12  and  C_20
REMARK    5  A    between atoms: C_12  and  C_21
REMARK    6  A    between atoms: C_13  and  C_23
REMARK    7  A    between atoms: C_23  and  C_24
REMARK    8  A    between atoms: C_30  and  C_31
REMARK    9  A    between atoms: C_31  and  C_32
REMARK   10  A    between atoms: C_31  and  C_33
REMARK   11  A    between atoms: C_31  and  C_34
REMARK                            x       y       z     vdW  Elec       q    Type
REMARK                         _______ _______ _______ _____ _____    ______ ____
ROOT
ATOM      1  S   UNL     1      17.992   6.285  20.090  0.00  0.00    -0.057 S 
ATOM      6  O   UNL     1      20.814   8.790  22.792  0.00  0.00    -0.275 OA
ATOM      7  N   UNL     1      18.193   8.442  21.504  0.00  0.00    -0.229 NA
ATOM      9  N   UNL     1      20.134   7.016  21.415  0.00  0.00    -0.264 N 
ATOM     10  C   UNL     1      14.707   9.462  20.208  0.00  0.00    -0.019 C 
ATOM     11  C   UNL     1      14.226   7.949  20.081  0.00  0.00    +0.011 C 
ATOM     12  C   UNL     1      12.805   7.701  19.443  0.00  0.00    +0.021 C 
ATOM     13  C   UNL     1      15.920   9.508  21.247  0.00  0.00    +0.054 C 
ATOM     14  C   UNL     1      13.549  10.326  20.770  0.00  0.00    +0.010 C 
ATOM     15  C   UNL     1      11.777   8.678  20.084  0.00  0.00    +0.123 C 
ATOM     16  C   UNL     1      15.345   7.043  19.490  0.00  0.00    +0.049 C 
ATOM     17  C   UNL     1      12.226  10.134  20.043  0.00  0.00    +0.032 C 
ATOM     18  C   UNL     1      15.164  10.061  18.856  0.00  0.00    +0.012 C 
ATOM     19  C   UNL     1      16.923   8.420  20.958  0.00  0.00    +0.058 A 
ATOM     21  C   UNL     1      12.341   6.255  19.781  0.00  0.00    +0.016 C 
ATOM     22  C   UNL     1      16.638   7.314  20.182  0.00  0.00    +0.015 A 
ATOM     25  C   UNL     1      18.847   7.371  21.108  0.00  0.00    +0.165 A 
ATOM     30  C   UNL     1      21.042   7.723  22.225  0.00  0.00    +0.224 C 
ATOM     37  H   UNL     1      20.435   6.141  20.997  0.00  0.00    +0.157 HD
ENDROOT
BRANCH  30  31
ATOM     31  C   UNL     1      22.424   7.035  22.362  0.00  0.00    +0.039 C 
ATOM     32  C   UNL     1      23.181   7.093  21.026  0.00  0.00    +0.020 C 
ATOM     33  C   UNL     1      22.249   5.575  22.809  0.00  0.00    +0.020 C 
ATOM     34  C   UNL     1      23.260   7.769  23.427  0.00  0.00    +0.020 C 
ENDBRANCH  30  31
BRANCH  15   2
ATOM      2  O   UNL     1      10.509   8.568  19.438  0.00  0.00    -0.391 OA
ATOM     35  H   UNL     1       9.836   8.935  20.034  0.00  0.00    +0.210 HD
ENDBRANCH  15   2
BRANCH  12  20
ATOM     20  C   UNL     1      12.768   7.799  17.902  0.00  0.00    +0.165 C 
BRANCH  20   3
ATOM      3  O   UNL     1      11.768   6.921  17.436  0.00  0.00    -0.394 OA
ATOM     36  H   UNL     1      11.199   6.686  18.189  0.00  0.00    +0.209 HD
ENDBRANCH  20   3
ENDBRANCH  12  20
BRANCH  13  23
ATOM     23  C   UNL     1      16.599  10.877  21.375  0.00  0.00    +0.106 C 
BRANCH  23  24
ATOM      4  O   UNL     1      15.378  11.226  23.377  0.00  0.00    -0.276 OA
ATOM      5  O   UNL     1      19.675  12.853  24.996  0.00  0.00    -0.377 OA
ATOM      8  N   UNL     1      17.551  12.045  23.330  0.00  0.00    -0.297 N 
ATOM     24  C   UNL     1      16.446  11.395  22.782  0.00  0.00    +0.216 C 
ATOM     26  C   UNL     1      18.942  11.857  22.908  0.00  0.00    +0.136 C 
ATOM     27  C   UNL     1      17.362  13.101  24.323  0.00  0.00    +0.136 C 
ATOM     28  C   UNL     1      19.850  11.732  24.126  0.00  0.00    +0.179 C 
ATOM     29  C   UNL     1      18.331  12.920  25.482  0.00  0.00    +0.179 C 
ENDBRANCH  23  24
ENDBRANCH  13  23
TORSDOF 6
ENDMDL
MODEL 2
REMARK VINA RESULT:      -6.4     16.596     20.465
REMARK  Name = 11883011
REMARK  11 active torsions:
REMARK  status: ('A' for Active; 'I' for Inactive)
REMARK    1  A    between atoms: O_2  and  C_15
REMARK    2  A    between atoms: O_3  and  C_20
REMARK    3  A    between atoms: C_10  and  C_18
REMARK    4  A    between atoms: C_12  and  C_20
REMARK    5  A    between atoms: C_12  and  C_21
REMARK    6  A    between atoms: C_13  and  C_23
REMARK    7  A    between atoms: C_23  and  C_24
REMARK    8  A    between atoms: C_30  and  C_31
REMARK    9  A    between atoms: C_31  and  C_32
REMARK   10  A    between atoms: C_31  and  C_33
REMARK   11  A    between atoms: C_31  and  C_34
REMARK                            x       y       z     vdW  Elec       q    Type
REMARK                         _______ _______ _______ _____ _____    ______ ____
ROOT
ATOM      1  S   UNL     1       9.985   7.707  -0.370  0.00  0.00    -0.057 S 
ATOM      6  O   UNL     1      12.349   4.960   2.530  0.00  0.00    -0.275 OA
ATOM      7  N   UNL     1      10.228   6.950   2.092  0.00  0.00    -0.229 NA
ATOM      9  N   UNL     1      11.736   5.957   0.496  0.00  0.00    -0.264 N 
ATOM     10  C   UNL     1       7.611   9.620   3.035  0.00  0.00    -0.019 C 
ATOM     11  C   UNL     1       6.865   9.497   1.633  0.00  0.00    +0.011 C 
ATOM     12  C   UNL     1       5.683  10.505   1.360  0.00  0.00    +0.021 C 
ATOM     13  C   UNL     1       8.434   8.272   3.275  0.00  0.00    +0.054 C 
ATOM     14  C   UNL     1       6.560   9.759   4.167  0.00  0.00    +0.010 C 
ATOM     15  C   UNL     1       4.755  10.559   2.607  0.00  0.00    +0.123 C 
ATOM     16  C   UNL     1       7.879   9.385   0.457  0.00  0.00    +0.049 C 
ATOM     17  C   UNL     1       5.509  10.828   3.905  0.00  0.00    +0.032 C 
ATOM     18  C   UNL     1       8.574  10.830   3.098  0.00  0.00    +0.012 C 
ATOM     19  C   UNL     1       9.209   7.883   2.042  0.00  0.00    +0.058 A 
ATOM     21  C   UNL     1       4.830   9.978   0.171  0.00  0.00    +0.016 C 
ATOM     22  C   UNL     1       8.931   8.381   0.785  0.00  0.00    +0.015 A 
ATOM     25  C   UNL     1      10.714   6.784   0.881  0.00  0.00    +0.165 A 
ATOM     30  C   UNL     1      12.494   5.100   1.317  0.00  0.00    +0.224 C 
ATOM     37  H   UNL     1      11.946   5.989  -0.497  0.00  0.00    +0.157 HD
ENDROOT
BRANCH  30  31
ATOM     31  C   UNL     1      13.581   4.302   0.553  0.00  0.00    +0.039 C 
ATOM     32  C   UNL     1      14.515   3.593   1.546  0.00  0.00    +0.020 C 
ATOM     33  C   UNL     1      14.388   5.242  -0.357  0.00  0.00    +0.020 C 
ATOM     34  C   UNL     1      12.909   3.234  -0.330  0.00  0.00    +0.020 C 
ENDBRANCH  30  31
BRANCH  15   2
ATOM      2  O   UNL     1       3.749  11.557   2.443  0.00  0.00    -0.391 OA
ATOM     35  H   UNL     1       2.963  11.132   2.063  0.00  0.00    +0.210 HD
ENDBRANCH  15   2
BRANCH  12  20
ATOM     20  C   UNL     1       6.134  11.925   0.950  0.00  0.00    +0.165 C 
BRANCH  20   3
ATOM      3  O   UNL     1       5.191  12.429   0.030  0.00  0.00    -0.394 OA
ATOM     36  H   UNL     1       5.288  13.396  -0.001  0.00  0.00    +0.209 HD
ENDBRANCH  20   3
ENDBRANCH  12  20
BRANCH  13  23
ATOM     23  C   UNL     1       9.330   8.285   4.520  0.00  0.00    +0.106 C 
BRANCH  23  24
ATOM      4  O   UNL     1       7.909   6.517   5.209  0.00  0.00    -0.276 OA
ATOM      5  O   UNL     1      11.378   5.849   8.563  0.00  0.00    -0.377 OA
ATOM      8  N   UNL     1       9.732   6.976   6.573  0.00  0.00    -0.297 N 
ATOM     24  C   UNL     1       8.919   7.180   5.459  0.00  0.00    +0.216 C 
ATOM     26  C   UNL     1      11.144   7.357   6.677  0.00  0.00    +0.136 C 
ATOM     27  C   UNL     1       9.157   6.457   7.814  0.00  0.00    +0.136 C 
ATOM     28  C   UNL     1      11.949   6.228   7.308  0.00  0.00    +0.179 C 
ATOM     29  C   UNL     1      10.042   5.364   8.393  0.00  0.00    +0.179 C 
ENDBRANCH  23  24
ENDBRANCH  13  23
TORSDOF 6
ENDMDL
MODEL 3
REMARK VINA RESULT:      -6.2     29.270     32.129
REMARK  Name = 11883011
REMARK  11 active torsions:
REMARK  status: ('A' for Active; 'I' for Inactive)
REMARK    1  A    between atoms: O_2  and  C_15
REMARK    2  A    between atoms: O_3  and  C_20
REMARK    3  A    between atoms: C_10  and  C_18
REMARK    4  A    between atoms: C_12  and  C_20
REMARK    5  A    between atoms: C_12  and  C_21
REMARK    6  A    between atoms: C_13  and  C_23
REMARK    7  A    between atoms: C_23  and  C_24
REMARK    8  A    between atoms: C_30  and  C_31
REMARK    9  A    between atoms: C_31  and  C_32
REMARK   10  A    between atoms: C_31  and  C_33
REMARK   11  A    between atoms: C_31  and  C_34
REMARK                            x       y       z     vdW  Elec       q    Type
REMARK                         _______ _______ _______ _____ _____    ______ ____
ROOT
ATOM      1  S   UNL     1      -8.214  -9.618  12.076  0.00  0.00    -0.057 S 
ATOM      6  O   UNL     1      -4.039 -10.616  13.840  0.00  0.00    -0.275 OA
ATOM      7  N   UNL     1      -6.899 -10.073  14.257  0.00  0.00    -0.229 NA
ATOM      9  N   UNL     1      -5.648 -10.146  12.198  0.00  0.00    -0.264 N 
ATOM     10  C   UNL     1     -10.098  -9.185  16.218  0.00  0.00    -0.019 C 
ATOM     11  C   UNL     1     -11.051  -9.719  15.058  0.00  0.00    +0.011 C 
ATOM     12  C   UNL     1     -12.601  -9.501  15.250  0.00  0.00    +0.021 C 
ATOM     13  C   UNL     1      -8.671  -9.882  16.043  0.00  0.00    +0.054 C 
ATOM     14  C   UNL     1     -10.679  -9.600  17.595  0.00  0.00    +0.010 C 
ATOM     15  C   UNL     1     -13.005  -9.921  16.692  0.00  0.00    +0.123 C 
ATOM     16  C   UNL     1     -10.527  -9.301  13.654  0.00  0.00    +0.049 C 
ATOM     17  C   UNL     1     -12.152  -9.262  17.770  0.00  0.00    +0.032 C 
ATOM     18  C   UNL     1      -9.927  -7.647  16.194  0.00  0.00    +0.012 C 
ATOM     19  C   UNL     1      -8.213  -9.827  14.608  0.00  0.00    +0.058 A 
ATOM     21  C   UNL     1     -13.369 -10.429  14.266  0.00  0.00    +0.016 C 
ATOM     22  C   UNL     1      -9.066  -9.583  13.550  0.00  0.00    +0.015 A 
ATOM     25  C   UNL     1      -6.781  -9.982  12.950  0.00  0.00    +0.165 A 
ATOM     30  C   UNL     1      -4.354 -10.449  12.663  0.00  0.00    +0.224 C 
ATOM     37  H   UNL     1      -5.790 -10.030  11.199  0.00  0.00    +0.157 HD
ENDROOT
BRANCH  30  31
ATOM     31  C   UNL     1      -3.295 -10.563  11.537  0.00  0.00    +0.039 C 
ATOM     32  C   UNL     1      -1.882 -10.419  12.121  0.00  0.00    +0.020 C 
ATOM     33  C   UNL     1      -3.540  -9.486  10.468  0.00  0.00    +0.020 C 
ATOM     34  C   UNL     1      -3.407 -11.945  10.866  0.00  0.00    +0.020 C 
ENDBRANCH  30  31
BRANCH  15   2
ATOM      2  O   UNL     1     -14.377  -9.616  16.939  0.00  0.00    -0.391 OA
ATOM     35  H   UNL     1     -14.617  -8.849  16.395  0.00  0.00    +0.210 HD
ENDBRANCH  15   2
BRANCH  12  20
ATOM     20  C   UNL     1     -13.090  -8.070  14.937  0.00  0.00    +0.165 C 
BRANCH  20   3
ATOM      3  O   UNL     1     -14.407  -8.161  14.441  0.00  0.00    -0.394 OA
ATOM     36  H   UNL     1     -14.611  -9.101  14.298  0.00  0.00    +0.209 HD
ENDBRANCH  20   3
ENDBRANCH  12  20
BRANCH  13  23
ATOM     23  C   UNL     1      -7.587  -9.365  16.998  0.00  0.00    +0.106 C 
BRANCH  23  24
ATOM      4  O   UNL     1      -8.001 -11.193  18.449  0.00  0.00    -0.276 OA
ATOM      5  O   UNL     1      -3.149 -11.597  18.334  0.00  0.00    -0.377 OA
ATOM      8  N   UNL     1      -5.778 -10.605  18.127  0.00  0.00    -0.297 N 
ATOM     24  C   UNL     1      -7.150 -10.470  17.924  0.00  0.00    +0.216 C 
ATOM     26  C   UNL     1      -4.733 -10.145  17.208  0.00  0.00    +0.136 C 
ATOM     27  C   UNL     1      -5.273 -11.128  19.397  0.00  0.00    +0.136 C 
ATOM     28  C   UNL     1      -3.658 -11.214  17.054  0.00  0.00    +0.179 C 
ATOM     29  C   UNL     1      -4.181 -12.158  19.151  0.00  0.00    +0.179 C 
ENDBRANCH  23  24
ENDBRANCH  13  23
TORSDOF 6
ENDMDL
MODEL 4
REMARK VINA RESULT:      -6.1     30.129     32.847
REMARK  Name = 11883011
REMARK  11 active torsions:
REMARK  status: ('A' for Active; 'I' for Inactive)
REMARK    1  A    between atoms: O_2  and  C_15
REMARK    2  A    between atoms: O_3  and  C_20
REMARK    3  A    between atoms: C_10  and  C_18
REMARK    4  A    between atoms: C_12  and  C_20
REMARK    5  A    between atoms: C_12  and  C_21
REMARK    6  A    between atoms: C_13  and  C_23
REMARK    7  A    between atoms: C_23  and  C_24
REMARK    8  A    between atoms: C_30  and  C_31
REMARK    9  A    between atoms: C_31  and  C_32
REMARK   10  A    between atoms: C_31  and  C_33
REMARK   11  A    between atoms: C_31  and  C_34
REMARK                            x       y       z     vdW  Elec       q    Type
REMARK                         _______ _______ _______ _____ _____    ______ ____
ROOT
ATOM      1  S   UNL     1      -5.648 -10.913  12.603  0.00  0.00    -0.057 S 
ATOM      6  O   UNL     1      -8.876  -8.422  10.387  0.00  0.00    -0.275 OA
ATOM      7  N   UNL     1      -7.840  -9.569  12.889  0.00  0.00    -0.229 NA
ATOM      9  N   UNL     1      -6.938  -9.716  10.659  0.00  0.00    -0.264 N 
ATOM     10  C   UNL     1      -7.911 -10.716  16.570  0.00  0.00    -0.019 C 
ATOM     11  C   UNL     1      -6.322 -10.779  16.663  0.00  0.00    +0.011 C 
ATOM     12  C   UNL     1      -5.705 -11.338  18.002  0.00  0.00    +0.021 C 
ATOM     13  C   UNL     1      -8.296  -9.741  15.365  0.00  0.00    +0.054 C 
ATOM     14  C   UNL     1      -8.481 -10.120  17.883  0.00  0.00    +0.010 C 
ATOM     15  C   UNL     1      -6.419 -10.674  19.213  0.00  0.00    +0.123 C 
ATOM     16  C   UNL     1      -5.700 -11.400  15.378  0.00  0.00    +0.049 C 
ATOM     17  C   UNL     1      -7.939 -10.776  19.144  0.00  0.00    +0.032 C 
ATOM     18  C   UNL     1      -8.553 -12.105  16.334  0.00  0.00    +0.012 C 
ATOM     19  C   UNL     1      -7.482 -10.050  14.135  0.00  0.00    +0.058 A 
ATOM     21  C   UNL     1      -4.204 -10.939  18.075  0.00  0.00    +0.016 C 
ATOM     22  C   UNL     1      -6.311 -10.781  14.166  0.00  0.00    +0.015 A 
ATOM     25  C   UNL     1      -6.950  -9.967  12.006  0.00  0.00    +0.165 A 
ATOM     30  C   UNL     1      -7.879  -8.971   9.923  0.00  0.00    +0.224 C 
ATOM     37  H   UNL     1      -6.150 -10.125  10.166  0.00  0.00    +0.157 HD
ENDROOT
BRANCH  30  31
ATOM     31  C   UNL     1      -7.561  -8.885   8.408  0.00  0.00    +0.039 C 
ATOM     32  C   UNL     1      -6.097  -9.273   8.150  0.00  0.00    +0.020 C 
ATOM     33  C   UNL     1      -7.832  -7.464   7.889  0.00  0.00    +0.020 C 
ATOM     34  C   UNL     1      -8.467  -9.863   7.637  0.00  0.00    +0.020 C 
ENDBRANCH  30  31
BRANCH  15   2
ATOM      2  O   UNL     1      -5.974 -11.253  20.440  0.00  0.00    -0.391 OA
ATOM     35  H   UNL     1      -6.757 -11.523  20.946  0.00  0.00    +0.210 HD
ENDBRANCH  15   2
BRANCH  12  20
ATOM     20  C   UNL     1      -5.732 -12.878  18.125  0.00  0.00    +0.165 C 
BRANCH  20   3
ATOM      3  O   UNL     1      -4.467 -13.297  18.589  0.00  0.00    -0.394 OA
ATOM     36  H   UNL     1      -4.403 -14.258  18.460  0.00  0.00    +0.209 HD
ENDBRANCH  20   3
ENDBRANCH  12  20
BRANCH  13  23
ATOM     23  C   UNL     1      -9.796  -9.683  15.045  0.00  0.00    +0.106 C 
BRANCH  23  24
ATOM      4  O   UNL     1      -9.707  -7.511  15.990  0.00  0.00    -0.276 OA
ATOM      5  O   UNL     1     -13.311  -6.649  12.830  0.00  0.00    -0.377 OA
ATOM      8  N   UNL     1     -11.447  -7.929  14.511  0.00  0.00    -0.297 N 
ATOM     24  C   UNL     1     -10.305  -8.277  15.231  0.00  0.00    +0.216 C 
ATOM     26  C   UNL     1     -11.902  -8.573  13.275  0.00  0.00    +0.136 C 
ATOM     27  C   UNL     1     -12.374  -6.931  15.045  0.00  0.00    +0.136 C 
ATOM     28  C   UNL     1     -12.332  -7.522  12.260  0.00  0.00    +0.179 C 
ATOM     29  C   UNL     1     -12.779  -5.947  13.957  0.00  0.00    +0.179 C 
ENDBRANCH  23  24
ENDBRANCH  13  23
TORSDOF 6
ENDMDL
MODEL 5
REMARK VINA RESULT:      -6.0     23.208     25.966
REMARK  Name = 11883011
REMARK  11 active torsions:
REMARK  status: ('A' for Active; 'I' for Inactive)
REMARK    1  A    between atoms: O_2  and  C_15
REMARK    2  A    between atoms: O_3  and  C_20
REMARK    3  A    between atoms: C_10  and  C_18
REMARK    4  A    between atoms: C_12  and  C_20
REMARK    5  A    between atoms: C_12  and  C_21
REMARK    6  A    between atoms: C_13  and  C_23
REMARK    7  A    between atoms: C_23  and  C_24
REMARK    8  A    between atoms: C_30  and  C_31
REMARK    9  A    between atoms: C_31  and  C_32
REMARK   10  A    between atoms: C_31  and  C_33
REMARK   11  A    between atoms: C_31  and  C_34
REMARK                            x       y       z     vdW  Elec       q    Type
REMARK                         _______ _______ _______ _____ _____    ______ ____
ROOT
ATOM      1  S   UNL     1      -4.221  13.391  33.568  0.00  0.00    -0.057 S 
ATOM      6  O   UNL     1       0.260  12.670  34.540  0.00  0.00    -0.275 OA
ATOM      7  N   UNL     1      -2.570  12.031  35.024  0.00  0.00    -0.229 NA
ATOM      9  N   UNL     1      -1.610  13.620  33.488  0.00  0.00    -0.264 N 
ATOM     10  C   UNL     1      -5.615  10.570  36.884  0.00  0.00    -0.019 C 
ATOM     11  C   UNL     1      -6.546  10.663  35.594  0.00  0.00    +0.011 C 
ATOM     12  C   UNL     1      -8.066  10.283  35.780  0.00  0.00    +0.021 C 
ATOM     13  C   UNL     1      -4.095  10.559  36.394  0.00  0.00    +0.054 C 
ATOM     14  C   UNL     1      -5.898   9.239  37.628  0.00  0.00    +0.010 C 
ATOM     15  C   UNL     1      -8.168   8.955  36.583  0.00  0.00    +0.123 C 
ATOM     16  C   UNL     1      -6.323  11.999  34.826  0.00  0.00    +0.049 C 
ATOM     17  C   UNL     1      -7.375   8.977  37.884  0.00  0.00    +0.032 C 
ATOM     18  C   UNL     1      -5.832  11.746  37.867  0.00  0.00    +0.012 C 
ATOM     19  C   UNL     1      -3.849  11.633  35.364  0.00  0.00    +0.058 A 
ATOM     21  C   UNL     1      -8.700  10.029  34.383  0.00  0.00    +0.016 C 
ATOM     22  C   UNL     1      -4.862  12.252  34.660  0.00  0.00    +0.015 A 
ATOM     25  C   UNL     1      -2.644  12.957  34.093  0.00  0.00    +0.165 A 
ATOM     30  C   UNL     1      -0.233  13.453  33.730  0.00  0.00    +0.224 C 
ATOM     37  H   UNL     1      -1.901  14.300  32.792  0.00  0.00    +0.157 HD
ENDROOT
BRANCH  30  31
ATOM     31  C   UNL     1       0.670  14.370  32.867  0.00  0.00    +0.039 C 
ATOM     32  C   UNL     1      -0.164  15.498  32.240  0.00  0.00    +0.020 C 
ATOM     33  C   UNL     1       1.363  13.550  31.767  0.00  0.00    +0.020 C 
ATOM     34  C   UNL     1       1.757  15.004  33.755  0.00  0.00    +0.020 C 
ENDBRANCH  30  31
BRANCH  15   2
ATOM      2  O   UNL     1      -9.531   8.650  36.879  0.00  0.00    -0.391 OA
ATOM     35  H   UNL     1      -9.617   8.561  37.842  0.00  0.00    +0.210 HD
ENDBRANCH  15   2
BRANCH  12  20
ATOM     20  C   UNL     1      -8.927  11.387  36.432  0.00  0.00    +0.165 C 
BRANCH  20   3
ATOM      3  O   UNL     1     -10.225  11.302  35.886  0.00  0.00    -0.394 OA
ATOM     36  H   UNL     1     -10.702  12.117  36.116  0.00  0.00    +0.209 HD
ENDBRANCH  20   3
ENDBRANCH  12  20
BRANCH  13  23
ATOM     23  C   UNL     1      -3.059  10.619  37.524  0.00  0.00    +0.106 C 
BRANCH  23  24
ATOM      4  O   UNL     1      -1.360   9.311  36.514  0.00  0.00    -0.276 OA
ATOM      5  O   UNL     1      -1.769   6.713  40.614  0.00  0.00    -0.377 OA
ATOM      8  N   UNL     1      -2.274   8.485  38.482  0.00  0.00    -0.297 N 
ATOM     24  C   UNL     1      -2.153   9.417  37.453  0.00  0.00    +0.216 C 
ATOM     26  C   UNL     1      -2.799   8.763  39.823  0.00  0.00    +0.136 C 
ATOM     27  C   UNL     1      -1.988   7.073  38.229  0.00  0.00    +0.136 C 
ATOM     28  C   UNL     1      -1.916   8.110  40.880  0.00  0.00    +0.179 C 
ATOM     29  C   UNL     1      -1.136   6.495  39.349  0.00  0.00    +0.179 C 
ENDBRANCH  23  24
ENDBRANCH  13  23
TORSDOF 6
ENDMDL
MODEL 6
REMARK VINA RESULT:      -5.9     33.915     37.003
REMARK  Name = 11883011
REMARK  11 active torsions:
REMARK  status: ('A' for Active; 'I' for Inactive)
REMARK    1  A    between atoms: O_2  and  C_15
REMARK    2  A    between atoms: O_3  and  C_20
REMARK    3  A    between atoms: C_10  and  C_18
REMARK    4  A    between atoms: C_12  and  C_20
REMARK    5  A    between atoms: C_12  and  C_21
REMARK    6  A    between atoms: C_13  and  C_23
REMARK    7  A    between atoms: C_23  and  C_24
REMARK    8  A    between atoms: C_30  and  C_31
REMARK    9  A    between atoms: C_31  and  C_32
REMARK   10  A    between atoms: C_31  and  C_33
REMARK   11  A    between atoms: C_31  and  C_34
REMARK                            x       y       z     vdW  Elec       q    Type
REMARK                         _______ _______ _______ _____ _____    ______ ____
ROOT
ATOM      1  S   UNL     1      -6.566  -7.190  39.448  0.00  0.00    -0.057 S 
ATOM      6  O   UNL     1     -10.801  -5.291  39.442  0.00  0.00    -0.275 OA
ATOM      7  N   UNL     1      -9.075  -7.630  38.998  0.00  0.00    -0.229 NA
ATOM      9  N   UNL     1      -8.472  -5.407  39.707  0.00  0.00    -0.264 N 
ATOM     10  C   UNL     1      -8.097 -11.130  37.708  0.00  0.00    -0.019 C 
ATOM     11  C   UNL     1      -6.844 -11.227  38.688  0.00  0.00    +0.011 C 
ATOM     12  C   UNL     1      -5.909 -12.487  38.531  0.00  0.00    +0.021 C 
ATOM     13  C   UNL     1      -9.115 -10.059  38.314  0.00  0.00    +0.054 C 
ATOM     14  C   UNL     1      -8.812 -12.505  37.648  0.00  0.00    +0.010 C 
ATOM     15  C   UNL     1      -6.786 -13.769  38.439  0.00  0.00    +0.123 C 
ATOM     16  C   UNL     1      -6.072  -9.877  38.760  0.00  0.00    +0.049 C 
ATOM     17  C   UNL     1      -7.876 -13.675  37.379  0.00  0.00    +0.032 C 
ATOM     18  C   UNL     1      -7.702 -10.710  36.271  0.00  0.00    +0.012 C 
ATOM     19  C   UNL     1      -8.394  -8.806  38.741  0.00  0.00    +0.058 A 
ATOM     21  C   UNL     1      -5.023 -12.623  39.803  0.00  0.00    +0.016 C 
ATOM     22  C   UNL     1      -7.031  -8.751  38.952  0.00  0.00    +0.015 A 
ATOM     25  C   UNL     1      -8.212  -6.710  39.370  0.00  0.00    +0.165 A 
ATOM     30  C   UNL     1      -9.725  -4.767  39.729  0.00  0.00    +0.224 C 
ATOM     37  H   UNL     1      -7.648  -4.872  39.965  0.00  0.00    +0.157 HD
ENDROOT
BRANCH  30  31
ATOM     31  C   UNL     1      -9.660  -3.279  40.158  0.00  0.00    +0.039 C 
ATOM     32  C   UNL     1     -11.074  -2.682  40.224  0.00  0.00    +0.020 C 
ATOM     33  C   UNL     1      -8.793  -2.480  39.172  0.00  0.00    +0.020 C 
ATOM     34  C   UNL     1      -9.022  -3.176  41.556  0.00  0.00    +0.020 C 
ENDBRANCH  30  31
BRANCH  15   2
ATOM      2  O   UNL     1      -5.977 -14.913  38.168  0.00  0.00    -0.391 OA
ATOM     35  H   UNL     1      -5.506 -15.149  38.984  0.00  0.00    +0.210 HD
ENDBRANCH  15   2
BRANCH  12  20
ATOM     20  C   UNL     1      -4.923 -12.409  37.345  0.00  0.00    +0.165 C 
BRANCH  20   3
ATOM      3  O   UNL     1      -3.731 -13.058  37.730  0.00  0.00    -0.394 OA
ATOM     36  H   UNL     1      -3.674 -13.032  38.700  0.00  0.00    +0.209 HD
ENDBRANCH  20   3
ENDBRANCH  12  20
BRANCH  13  23
ATOM     23  C   UNL     1     -10.314  -9.737  37.413  0.00  0.00    +0.106 C 
BRANCH  23  24
ATOM      4  O   UNL     1     -11.992  -9.765  39.088  0.00  0.00    -0.276 OA
ATOM      5  O   UNL     1     -14.105 -12.943  36.061  0.00  0.00    -0.377 OA
ATOM      8  N   UNL     1     -12.218 -11.306  37.366  0.00  0.00    -0.297 N 
ATOM     24  C   UNL     1     -11.581 -10.265  38.038  0.00  0.00    +0.216 C 
ATOM     26  C   UNL     1     -12.086 -11.603  35.936  0.00  0.00    +0.136 C 
ATOM     27  C   UNL     1     -12.998 -12.292  38.114  0.00  0.00    +0.136 C 
ATOM     28  C   UNL     1     -13.452 -11.901  35.331  0.00  0.00    +0.179 C 
ATOM     29  C   UNL     1     -14.326 -12.556  37.421  0.00  0.00    +0.179 C 
ENDBRANCH  23  24
ENDBRANCH  13  23
TORSDOF 6
ENDMDL
MODEL 7
REMARK VINA RESULT:      -5.9     33.829     36.984
REMARK  Name = 11883011
REMARK  11 active torsions:
REMARK  status: ('A' for Active; 'I' for Inactive)
REMARK    1  A    between atoms: O_2  and  C_15
REMARK    2  A    between atoms: O_3  and  C_20
REMARK    3  A    between atoms: C_10  and  C_18
REMARK    4  A    between atoms: C_12  and  C_20
REMARK    5  A    between atoms: C_12  and  C_21
REMARK    6  A    between atoms: C_13  and  C_23
REMARK    7  A    between atoms: C_23  and  C_24
REMARK    8  A    between atoms: C_30  and  C_31
REMARK    9  A    between atoms: C_31  and  C_32
REMARK   10  A    between atoms: C_31  and  C_33
REMARK   11  A    between atoms: C_31  and  C_34
REMARK                            x       y       z     vdW  Elec       q    Type
REMARK                         _______ _______ _______ _____ _____    ______ ____
ROOT
ATOM      1  S   UNL     1     -10.582  -9.546  38.023  0.00  0.00    -0.057 S 
ATOM      6  O   UNL     1      -5.977  -9.712  38.571  0.00  0.00    -0.275 OA
ATOM      7  N   UNL     1      -8.437 -10.878  37.460  0.00  0.00    -0.229 NA
ATOM      9  N   UNL     1      -8.164  -8.893  38.798  0.00  0.00    -0.264 N 
ATOM     10  C   UNL     1     -10.685 -13.572  35.861  0.00  0.00    -0.019 C 
ATOM     11  C   UNL     1     -11.788 -12.507  35.429  0.00  0.00    +0.011 C 
ATOM     12  C   UNL     1     -13.110 -13.070  34.779  0.00  0.00    +0.021 C 
ATOM     13  C   UNL     1      -9.305 -12.796  36.068  0.00  0.00    +0.054 C 
ATOM     14  C   UNL     1     -10.497 -14.610  34.724  0.00  0.00    +0.010 C 
ATOM     15  C   UNL     1     -12.742 -14.126  33.698  0.00  0.00    +0.123 C 
ATOM     16  C   UNL     1     -12.037 -11.458  36.551  0.00  0.00    +0.049 C 
ATOM     17  C   UNL     1     -11.800 -15.208  34.213  0.00  0.00    +0.032 C 
ATOM     18  C   UNL     1     -11.055 -14.323  37.164  0.00  0.00    +0.012 C 
ATOM     19  C   UNL     1      -9.503 -11.544  36.885  0.00  0.00    +0.058 A 
ATOM     21  C   UNL     1     -13.855 -11.911  34.057  0.00  0.00    +0.016 C 
ATOM     22  C   UNL     1     -10.735 -10.951  37.073  0.00  0.00    +0.015 A 
ATOM     25  C   UNL     1      -8.888  -9.816  38.091  0.00  0.00    +0.165 A 
ATOM     30  C   UNL     1      -6.771  -8.879  39.004  0.00  0.00    +0.224 C 
ATOM     37  H   UNL     1      -8.722  -8.148  39.205  0.00  0.00    +0.157 HD
ENDROOT
BRANCH  30  31
ATOM     31  C   UNL     1      -6.277  -7.684  39.858  0.00  0.00    +0.039 C 
ATOM     32  C   UNL     1      -6.471  -6.367  39.091  0.00  0.00    +0.020 C 
ATOM     33  C   UNL     1      -4.796  -7.871  40.226  0.00  0.00    +0.020 C 
ATOM     34  C   UNL     1      -7.094  -7.613  41.162  0.00  0.00    +0.020 C 
ENDBRANCH  30  31
BRANCH  15   2
ATOM      2  O   UNL     1     -13.919 -14.748  33.182  0.00  0.00    -0.391 OA
ATOM     35  H   UNL     1     -14.321 -15.271  33.895  0.00  0.00    +0.210 HD
ENDBRANCH  15   2
BRANCH  12  20
ATOM     20  C   UNL     1     -14.125 -13.648  35.790  0.00  0.00    +0.165 C 
BRANCH  20   3
ATOM      3  O   UNL     1     -15.421 -13.361  35.314  0.00  0.00    -0.394 OA
ATOM     36  H   UNL     1     -15.956 -13.051  36.065  0.00  0.00    +0.209 HD
ENDBRANCH  20   3
ENDBRANCH  12  20
BRANCH  13  23
ATOM     23  C   UNL     1      -8.166 -13.657  36.630  0.00  0.00    +0.106 C 
BRANCH  23  24
ATOM      4  O   UNL     1      -6.996 -13.086  34.649  0.00  0.00    -0.276 OA
ATOM      5  O   UNL     1      -3.123 -13.325  37.593  0.00  0.00    -0.377 OA
ATOM      8  N   UNL     1      -5.702 -13.628  36.500  0.00  0.00    -0.297 N 
ATOM     24  C   UNL     1      -6.909 -13.430  35.831  0.00  0.00    +0.216 C 
ATOM     26  C   UNL     1      -5.512 -13.550  37.951  0.00  0.00    +0.136 C 
ATOM     27  C   UNL     1      -4.520 -14.073  35.762  0.00  0.00    +0.136 C 
ATOM     28  C   UNL     1      -4.247 -12.764  38.276  0.00  0.00    +0.179 C 
ATOM     29  C   UNL     1      -3.301 -13.263  36.175  0.00  0.00    +0.179 C 
ENDBRANCH  23  24
ENDBRANCH  13  23
TORSDOF 6
ENDMDL
MODEL 8
REMARK VINA RESULT:      -5.9     16.050     20.071
REMARK  Name = 11883011
REMARK  11 active torsions:
REMARK  status: ('A' for Active; 'I' for Inactive)
REMARK    1  A    between atoms: O_2  and  C_15
REMARK    2  A    between atoms: O_3  and  C_20
REMARK    3  A    between atoms: C_10  and  C_18
REMARK    4  A    between atoms: C_12  and  C_20
REMARK    5  A    between atoms: C_12  and  C_21
REMARK    6  A    between atoms: C_13  and  C_23
REMARK    7  A    between atoms: C_23  and  C_24
REMARK    8  A    between atoms: C_30  and  C_31
REMARK    9  A    between atoms: C_31  and  C_32
REMARK   10  A    between atoms: C_31  and  C_33
REMARK   11  A    between atoms: C_31  and  C_34
REMARK                            x       y       z     vdW  Elec       q    Type
REMARK                         _______ _______ _______ _____ _____    ______ ____
ROOT
ATOM      1  S   UNL     1      14.313   8.046   6.539  0.00  0.00    -0.057 S 
ATOM      6  O   UNL     1      10.701   5.920   4.546  0.00  0.00    -0.275 OA
ATOM      7  N   UNL     1      13.433   6.988   4.348  0.00  0.00    -0.229 NA
ATOM      9  N   UNL     1      11.939   6.972   6.238  0.00  0.00    -0.264 N 
ATOM     10  C   UNL     1      16.650   8.220   2.615  0.00  0.00    -0.019 C 
ATOM     11  C   UNL     1      17.512   8.089   3.948  0.00  0.00    +0.011 C 
ATOM     12  C   UNL     1      19.003   8.599   3.889  0.00  0.00    +0.021 C 
ATOM     13  C   UNL     1      15.373   7.272   2.759  0.00  0.00    +0.054 C 
ATOM     14  C   UNL     1      17.490   7.729   1.407  0.00  0.00    +0.010 C 
ATOM     15  C   UNL     1      19.681   8.055   2.599  0.00  0.00    +0.123 C 
ATOM     16  C   UNL     1      16.723   8.600   5.189  0.00  0.00    +0.049 C 
ATOM     17  C   UNL     1      18.881   8.342   1.334  0.00  0.00    +0.032 C 
ATOM     18  C   UNL     1      16.186   9.672   2.341  0.00  0.00    +0.012 C 
ATOM     19  C   UNL     1      14.713   7.451   4.102  0.00  0.00    +0.058 A 
ATOM     21  C   UNL     1      19.786   8.021   5.102  0.00  0.00    +0.016 C 
ATOM     22  C   UNL     1      15.343   8.033   5.183  0.00  0.00    +0.015 A 
ATOM     25  C   UNL     1      13.116   7.254   5.597  0.00  0.00    +0.165 A 
ATOM     30  C   UNL     1      10.807   6.332   5.700  0.00  0.00    +0.224 C 
ATOM     37  H   UNL     1      11.912   7.270   7.209  0.00  0.00    +0.157 HD
ENDROOT
BRANCH  30  31
ATOM     31  C   UNL     1       9.640   6.172   6.707  0.00  0.00    +0.039 C 
ATOM     32  C   UNL     1       9.787   4.856   7.486  0.00  0.00    +0.020 C 
ATOM     33  C   UNL     1       8.293   6.203   5.968  0.00  0.00    +0.020 C 
ATOM     34  C   UNL     1       9.667   7.338   7.713  0.00  0.00    +0.020 C 
ENDBRANCH  30  31
BRANCH  15   2
ATOM      2  O   UNL     1      20.991   8.603   2.450  0.00  0.00    -0.391 OA
ATOM     35  H   UNL     1      21.631   7.876   2.517  0.00  0.00    +0.210 HD
ENDBRANCH  15   2
BRANCH  12  20
ATOM     20  C   UNL     1      19.160  10.133   3.987  0.00  0.00    +0.165 C 
BRANCH  20   3
ATOM      3  O   UNL     1      20.340  10.401   4.712  0.00  0.00    -0.394 OA
ATOM     36  H   UNL     1      21.037  10.634   4.076  0.00  0.00    +0.209 HD
ENDBRANCH  20   3
ENDBRANCH  12  20
BRANCH  13  23
ATOM     23  C   UNL     1      14.357   7.391   1.615  0.00  0.00    +0.106 C 
BRANCH  23  24
ATOM      4  O   UNL     1      15.046   5.217   0.965  0.00  0.00    -0.276 OA
ATOM      5  O   UNL     1      10.324   4.705  -0.113  0.00  0.00    -0.377 OA
ATOM      8  N   UNL     1      12.852   5.800   0.479  0.00  0.00    -0.297 N 
ATOM     24  C   UNL     1      14.125   6.038   0.992  0.00  0.00    +0.216 C 
ATOM     26  C   UNL     1      11.625   6.488   0.895  0.00  0.00    +0.136 C 
ATOM     27  C   UNL     1      12.676   4.892  -0.655  0.00  0.00    +0.136 C 
ATOM     28  C   UNL     1      10.493   5.484   1.074  0.00  0.00    +0.179 C 
ATOM     29  C   UNL     1      11.505   3.954  -0.406  0.00  0.00    +0.179 C 
ENDBRANCH  23  24
ENDBRANCH  13  23
TORSDOF 6
ENDMDL
MODEL 9
REMARK VINA RESULT:      -5.8     15.063     18.332
REMARK  Name = 11883011
REMARK  11 active torsions:
REMARK  status: ('A' for Active; 'I' for Inactive)
REMARK    1  A    between atoms: O_2  and  C_15
REMARK    2  A    between atoms: O_3  and  C_20
REMARK    3  A    between atoms: C_10  and  C_18
REMARK    4  A    between atoms: C_12  and  C_20
REMARK    5  A    between atoms: C_12  and  C_21
REMARK    6  A    between atoms: C_13  and  C_23
REMARK    7  A    between atoms: C_23  and  C_24
REMARK    8  A    between atoms: C_30  and  C_31
REMARK    9  A    between atoms: C_31  and  C_32
REMARK   10  A    between atoms: C_31  and  C_33
REMARK   11  A    between atoms: C_31  and  C_34
REMARK                            x       y       z     vdW  Elec       q    Type
REMARK                         _______ _______ _______ _____ _____    ______ ____
ROOT
ATOM      1  S   UNL     1      16.743   7.700   2.156  0.00  0.00    -0.057 S 
ATOM      6  O   UNL     1      17.208   8.997   6.589  0.00  0.00    -0.275 OA
ATOM      7  N   UNL     1      15.546   7.860   4.445  0.00  0.00    -0.229 NA
ATOM      9  N   UNL     1      17.823   8.647   4.351  0.00  0.00    -0.264 N 
ATOM     10  C   UNL     1      12.315   6.701   2.689  0.00  0.00    -0.019 C 
ATOM     11  C   UNL     1      13.114   5.831   1.621  0.00  0.00    +0.011 C 
ATOM     12  C   UNL     1      12.270   5.153   0.474  0.00  0.00    +0.021 C 
ATOM     13  C   UNL     1      13.259   6.910   3.960  0.00  0.00    +0.054 C 
ATOM     14  C   UNL     1      11.050   5.927   3.142  0.00  0.00    +0.010 C 
ATOM     15  C   UNL     1      11.020   4.466   1.094  0.00  0.00    +0.123 C 
ATOM     16  C   UNL     1      14.380   6.579   1.110  0.00  0.00    +0.049 C 
ATOM     17  C   UNL     1      10.209   5.393   1.992  0.00  0.00    +0.032 C 
ATOM     18  C   UNL     1      11.882   8.081   2.136  0.00  0.00    +0.012 C 
ATOM     19  C   UNL     1      14.648   7.322   3.542  0.00  0.00    +0.058 A 
ATOM     21  C   UNL     1      13.125   4.040  -0.196  0.00  0.00    +0.016 C 
ATOM     22  C   UNL     1      15.136   7.147   2.263  0.00  0.00    +0.015 A 
ATOM     25  C   UNL     1      16.680   8.105   3.824  0.00  0.00    +0.165 A 
ATOM     30  C   UNL     1      18.034   9.060   5.680  0.00  0.00    +0.224 C 
ATOM     37  H   UNL     1      18.582   8.747   3.685  0.00  0.00    +0.157 HD
ENDROOT
BRANCH  30  31
ATOM     31  C   UNL     1      19.451   9.633   5.939  0.00  0.00    +0.039 C 
ATOM     32  C   UNL     1      19.353  11.055   6.511  0.00  0.00    +0.020 C 
ATOM     33  C   UNL     1      20.266   9.641   4.636  0.00  0.00    +0.020 C 
ATOM     34  C   UNL     1      20.184   8.746   6.963  0.00  0.00    +0.020 C 
ENDBRANCH  30  31
BRANCH  15   2
ATOM      2  O   UNL     1      10.168   3.953   0.071  0.00  0.00    -0.391 OA
ATOM     35  H   UNL     1      10.636   4.029  -0.776  0.00  0.00    +0.210 HD
ENDBRANCH  15   2
BRANCH  12  20
ATOM     20  C   UNL     1      11.861   6.107  -0.670  0.00  0.00    +0.165 C 
BRANCH  20   3
ATOM      3  O   UNL     1      11.779   5.349  -1.856  0.00  0.00    -0.394 OA
ATOM     36  H   UNL     1      10.841   5.164  -2.031  0.00  0.00    +0.209 HD
ENDBRANCH  20   3
ENDBRANCH  12  20
BRANCH  13  23
ATOM     23  C   UNL     1      12.693   7.855   5.028  0.00  0.00    +0.106 C 
BRANCH  23  24
ATOM      4  O   UNL     1      13.280   6.578   6.938  0.00  0.00    -0.276 OA
ATOM      5  O   UNL     1       8.539   7.043   7.954  0.00  0.00    -0.377 OA
ATOM      8  N   UNL     1      11.016   6.978   6.612  0.00  0.00    -0.297 N 
ATOM     24  C   UNL     1      12.365   7.078   6.278  0.00  0.00    +0.216 C 
ATOM     26  C   UNL     1       9.965   7.909   6.192  0.00  0.00    +0.136 C 
ATOM     27  C   UNL     1      10.526   5.804   7.334  0.00  0.00    +0.136 C 
ATOM     28  C   UNL     1       9.054   8.241   7.367  0.00  0.00    +0.179 C 
ATOM     29  C   UNL     1       9.597   6.225   8.463  0.00  0.00    +0.179 C 
ENDBRANCH  23  24
ENDBRANCH  13  23
TORSDOF 6
ENDMDL
MODEL 10
REMARK VINA RESULT:      -5.7      1.685      2.224
REMARK  Name = 11883011
REMARK  11 active torsions:
REMARK  status: ('A' for Active; 'I' for Inactive)
REMARK    1  A    between atoms: O_2  and  C_15
REMARK    2  A    between atoms: O_3  and  C_20
REMARK    3  A    between atoms: C_10  and  C_18
REMARK    4  A    between atoms: C_12  and  C_20
REMARK    5  A    between atoms: C_12  and  C_21
REMARK    6  A    between atoms: C_13  and  C_23
REMARK    7  A    between atoms: C_23  and  C_24
REMARK    8  A    between atoms: C_30  and  C_31
REMARK    9  A    between atoms: C_31  and  C_32
REMARK   10  A    between atoms: C_31  and  C_33
REMARK   11  A    between atoms: C_31  and  C_34
REMARK                            x       y       z     vdW  Elec       q    Type
REMARK                         _______ _______ _______ _____ _____    ______ ____
ROOT
ATOM      1  S   UNL     1      16.620   6.248  20.796  0.00  0.00    -0.057 S 
ATOM      6  O   UNL     1      20.826   7.907  21.841  0.00  0.00    -0.275 OA
ATOM      7  N   UNL     1      17.929   8.339  21.575  0.00  0.00    -0.229 NA
ATOM      9  N   UNL     1      19.214   6.340  21.169  0.00  0.00    -0.264 N 
ATOM     10  C   UNL     1      14.646  10.341  21.290  0.00  0.00    -0.019 C 
ATOM     11  C   UNL     1      13.751   9.074  21.651  0.00  0.00    +0.011 C 
ATOM     12  C   UNL     1      12.186   9.259  21.575  0.00  0.00    +0.021 C 
ATOM     13  C   UNL     1      16.120  10.077  21.846  0.00  0.00    +0.054 C 
ATOM     14  C   UNL     1      14.074  11.596  21.999  0.00  0.00    +0.010 C 
ATOM     15  C   UNL     1      11.790  10.583  22.290  0.00  0.00    +0.123 C 
ATOM     16  C   UNL     1      14.266   7.791  20.938  0.00  0.00    +0.049 C 
ATOM     17  C   UNL     1      12.578  11.790  21.797  0.00  0.00    +0.032 C 
ATOM     18  C   UNL     1      14.711  10.615  19.768  0.00  0.00    +0.012 C 
ATOM     19  C   UNL     1      16.596   8.692  21.487  0.00  0.00    +0.058 A 
ATOM     21  C   UNL     1      11.500   8.095  22.345  0.00  0.00    +0.016 C 
ATOM     22  C   UNL     1      15.745   7.677  21.099  0.00  0.00    +0.015 A 
ATOM     25  C   UNL     1      18.060   7.077  21.227  0.00  0.00    +0.165 A 
ATOM     30  C   UNL     1      20.518   6.775  21.472  0.00  0.00    +0.224 C 
ATOM     37  H   UNL     1      19.079   5.378  20.873  0.00  0.00    +0.157 HD
ENDROOT
BRANCH  30  31
ATOM     31  C   UNL     1      21.599   5.678  21.298  0.00  0.00    +0.039 C 
ATOM     32  C   UNL     1      22.075   5.180  22.671  0.00  0.00    +0.020 C 
ATOM     33  C   UNL     1      22.787   6.227  20.492  0.00  0.00    +0.020 C 
ATOM     34  C   UNL     1      21.002   4.486  20.528  0.00  0.00    +0.020 C 
ENDBRANCH  30  31
BRANCH  15   2
ATOM      2  O   UNL     1      10.397  10.844  22.128  0.00  0.00    -0.391 OA
ATOM     35  H   UNL     1      10.233  11.768  22.380  0.00  0.00    +0.210 HD
ENDBRANCH  15   2
BRANCH  12  20
ATOM     20  C   UNL     1      11.604   9.211  20.146  0.00  0.00    +0.165 C 
BRANCH  20   3
ATOM      3  O   UNL     1      10.430   8.430  20.182  0.00  0.00    -0.394 OA
ATOM     36  H   UNL     1      10.495   7.757  19.484  0.00  0.00    +0.209 HD
ENDBRANCH  20   3
ENDBRANCH  12  20
BRANCH  13  23
ATOM     23  C   UNL     1      17.151  11.143  21.453  0.00  0.00    +0.106 C 
BRANCH  23  24
ATOM      4  O   UNL     1      16.955  12.002  23.653  0.00  0.00    -0.276 OA
ATOM      5  O   UNL     1      21.785  12.476  23.247  0.00  0.00    -0.377 OA
ATOM      8  N   UNL     1      19.047  12.161  22.660  0.00  0.00    -0.297 N 
ATOM     24  C   UNL     1      17.700  11.807  22.690  0.00  0.00    +0.216 C 
ATOM     26  C   UNL     1      20.069  11.548  21.805  0.00  0.00    +0.136 C 
ATOM     27  C   UNL     1      19.520  13.312  23.429  0.00  0.00    +0.136 C 
ATOM     28  C   UNL     1      21.336  11.279  22.608  0.00  0.00    +0.179 C 
ATOM     29  C   UNL     1      20.805  12.966  24.167  0.00  0.00    +0.179 C 
ENDBRANCH  23  24
ENDBRANCH  13  23
TORSDOF 6
ENDMDL
