REMARK  Name = 56775230
REMARK  5 active torsions:
REMARK  status: ('A' for Active; 'I' for Inactive)
REMARK    1  A    between atoms: O_4  and  C_23
REMARK    2  A    between atoms: O_4  and  C_24
REMARK    3  A    between atoms: N_5  and  C_11
REMARK    4  A    between atoms: C_7  and  C_11
REMARK    5  A    between atoms: C_17  and  C_18
REMARK                            x       y       z     vdW  Elec       q    Type
REMARK                         _______ _______ _______ _____ _____    ______ ____
ROOT
ATOM      1  O   UNL     1       2.284   2.344  -0.912  0.00  0.00    -0.364 OA
ATOM      2  O   UNL     1       3.997  -0.402  -2.392  0.00  0.00    -0.273 OA
ATOM      3  O   UNL     1      -1.940   2.931   1.296  0.00  0.00    -0.270 OA
ATOM      5  N   UNL     1       2.717  -0.363  -0.449  0.00  0.00    -0.292 N 
ATOM      6  N   UNL     1      -0.172   1.579   0.631  0.00  0.00    -0.293 N 
ATOM      8  C   UNL     1       1.874   0.407   0.456  0.00  0.00    +0.124 C 
ATOM     12  C   UNL     1       2.157   1.907   0.439  0.00  0.00    +0.158 C 
ATOM     13  C   UNL     1       0.388   0.342   0.089  0.00  0.00    +0.133 C 
ATOM     14  C   UNL     1       0.884   2.506   1.023  0.00  0.00    +0.141 C 
ATOM     15  C   UNL     1       3.384   0.221  -1.523  0.00  0.00    +0.242 C 
ATOM     16  C   UNL     1       3.397   1.739  -1.530  0.00  0.00    +0.256 C 
ATOM     17  C   UNL     1      -1.511   1.874   0.836  0.00  0.00    +0.247 C 
ENDROOT
BRANCH  17  18
ATOM     18  C   UNL     1      -2.497   0.838   0.489  0.00  0.00    +0.037 A 
ATOM     19  C   UNL     1      -2.890  -0.098   1.444  0.00  0.00    +0.016 A 
ATOM     20  C   UNL     1      -3.037   0.792  -0.797  0.00  0.00    +0.016 A 
ATOM     21  C   UNL     1      -3.824  -1.081   1.115  0.00  0.00    +0.046 A 
ATOM     22  C   UNL     1      -3.970  -0.190  -1.126  0.00  0.00    +0.046 A 
ATOM     23  C   UNL     1      -4.363  -1.127  -0.171  0.00  0.00    +0.120 A 
BRANCH  23   4
ATOM      4  O   UNL     1      -5.274  -2.086  -0.492  0.00  0.00    -0.495 OA
ATOM     24  C   UNL     1      -5.785  -2.075  -1.824  0.00  0.00    +0.277 C 
ENDBRANCH  23   4
ENDBRANCH  17  18
BRANCH   5  11
ATOM     11  C   UNL     1       2.708  -1.810  -0.288  0.00  0.00    +0.111 C 
BRANCH  11   7
ATOM      7  C   UNL     1       3.880  -2.271   0.509  0.00  0.00    +0.006 C 
ATOM      9  C   UNL     1       3.761  -2.363   2.002  0.00  0.00    +0.005 C 
ATOM     10  C   UNL     1       3.832  -3.614   1.176  0.00  0.00    +0.005 C 
ENDBRANCH  11   7
ENDBRANCH   5  11
TORSDOF 4
