REMARK  Name = 38030429
REMARK  13 active torsions:
REMARK  status: ('A' for Active; 'I' for Inactive)
REMARK    1  A    between atoms: N_2  and  C_14
REMARK    2  A    between atoms: N_2  and  C_20
REMARK    3  A    between atoms: N_2  and  C_21
REMARK    4  A    between atoms: C_7  and  C_11
REMARK    5  A    between atoms: C_8  and  C_14
REMARK    6  A    between atoms: C_10  and  C_15
REMARK    7  A    between atoms: C_11  and  C_16
REMARK    8  A    between atoms: C_11  and  C_17
REMARK    9  A    between atoms: C_12  and  C_18
REMARK   10  A    between atoms: C_15  and  C_19
REMARK   11  A    between atoms: C_20  and  C_22
REMARK   12  A    between atoms: C_22  and  C_24
REMARK   13  A    between atoms: C_23  and  C_25
REMARK                            x       y       z     vdW  Elec       q    Type
REMARK                         _______ _______ _______ _____ _____    ______ ____
ROOT
ATOM      7  C   UNL     1       2.934  -0.238  -0.805  0.00  0.00    +0.000 C 
ATOM      8  C   UNL     1       3.010  -0.408   0.730  0.00  0.00    +0.029 C 
ATOM      9  C   UNL     1       1.815   0.742  -1.184  0.00  0.00    +0.012 C 
ATOM     10  C   UNL     1       1.966   2.128  -0.521  0.00  0.00    +0.024 C 
ATOM     12  C   UNL     1       2.447   2.049   0.920  0.00  0.00    -0.073 C 
ATOM     13  C   UNL     1       2.899   0.904   1.464  0.00  0.00    -0.023 C 
ATOM     18  C   UNL     1       2.460   3.324   1.719  0.00  0.00    +0.039 C 
ENDROOT
BRANCH   7  11
ATOM     11  C   UNL     1       4.283   0.209  -1.386  0.00  0.00    -0.013 C 
ATOM     16  C   UNL     1       5.387  -0.758  -0.970  0.00  0.00    +0.007 C 
ATOM     17  C   UNL     1       4.199   0.314  -2.905  0.00  0.00    +0.007 C 
ENDBRANCH   7  11
BRANCH   8  14
ATOM     14  C   UNL     1       1.932  -1.367   1.247  0.00  0.00    +0.092 C 
BRANCH  14   2
ATOM      2  N   UNL     1       2.025  -2.653   0.577  0.00  0.00    -0.304 NA
ATOM     21  C   UNL     1       3.090  -3.470   1.165  0.00  0.00    +0.104 C 
BRANCH   2  20
ATOM     20  C   UNL     1       0.748  -3.368   0.642  0.00  0.00    +0.099 C 
BRANCH  20  22
ATOM     22  C   UNL     1      -0.249  -2.767  -0.345  0.00  0.00    +0.134 C 
BRANCH  22  24
ATOM      5  N   UNL     1      -2.560  -4.016  -0.231  0.00  0.00    -0.197 NA
ATOM     24  C   UNL     1      -1.540  -3.466  -0.281  0.00  0.00    +0.064 C 
ENDBRANCH  22  24
ENDBRANCH  20  22
ENDBRANCH   2  20
ENDBRANCH  14   2
ENDBRANCH   8  14
BRANCH  10  15
ATOM     15  C   UNL     1       0.640   2.887  -0.666  0.00  0.00    +0.105 C 
BRANCH  15  19
ATOM      1  O   UNL     1      -1.554   1.823  -0.582  0.00  0.00    -0.420 OA
ATOM      3  N   UNL     1      -0.532   1.972   1.402  0.00  0.00    -0.112 NA
ATOM      4  N   UNL     1      -1.754   1.355   1.596  0.00  0.00    -0.107 NA
ATOM     19  C   UNL     1      -0.458   2.227   0.117  0.00  0.00    +0.218 A 
ATOM     23  C   UNL     1      -2.316   1.289   0.412  0.00  0.00    +0.250 A 
BRANCH  23  25
ATOM      6  N   UNL     1      -5.452  -0.707   0.490  0.00  0.00    -0.263 NA
ATOM     25  C   UNL     1      -3.583   0.751   0.011  0.00  0.00    +0.057 A 
ATOM     26  C   UNL     1      -4.177   1.130  -1.188  0.00  0.00    +0.016 A 
ATOM     27  C   UNL     1      -4.256  -0.162   0.807  0.00  0.00    +0.124 A 
ATOM     28  C   UNL     1      -5.407   0.591  -1.549  0.00  0.00    +0.020 A 
ATOM     29  C   UNL     1      -5.997  -0.315  -0.683  0.00  0.00    +0.111 A 
ENDBRANCH  23  25
ENDBRANCH  15  19
ENDBRANCH  10  15
TORSDOF 9
