REMARK  Name = 45783826
REMARK  9 active torsions:
REMARK  status: ('A' for Active; 'I' for Inactive)
REMARK    1  A    between atoms: O_5  and  C_21
REMARK    2  A    between atoms: O_5  and  C_29
REMARK    3  A    between atoms: N_6  and  C_15
REMARK    4  A    between atoms: N_10  and  C_28
REMARK    5  A    between atoms: N_10  and  C_30
REMARK    6  A    between atoms: N_10  and  C_31
REMARK    7  A    between atoms: C_11  and  C_16
REMARK    8  A    between atoms: C_15  and  C_17
REMARK    9  A    between atoms: C_20  and  C_23
REMARK                            x       y       z     vdW  Elec       q    Type
REMARK                         _______ _______ _______ _____ _____    ______ ____
ROOT
ATOM      6  N   UNL     1      -3.540  -0.788  -0.818  0.00  0.00    -0.287 NA
ATOM     11  C   UNL     1      -3.014  -2.015  -0.188  0.00  0.00    +0.146 C 
ATOM     12  C   UNL     1      -3.144  -3.099  -1.274  0.00  0.00    +0.030 C 
ATOM     13  C   UNL     1      -3.808  -2.402  -2.453  0.00  0.00    +0.017 C 
ATOM     14  C   UNL     1      -4.515  -1.222  -1.819  0.00  0.00    +0.085 C 
ENDROOT
BRANCH  11  16
ATOM      4  O   UNL     1      -1.381  -2.091   1.629  0.00  0.00    -0.336 OA
ATOM      7  N   UNL     1      -0.517  -1.507  -0.354  0.00  0.00    -0.190 NA
ATOM      8  N   UNL     1      -0.013  -1.879   1.847  0.00  0.00    -0.056 NA
ATOM     16  C   UNL     1      -1.593  -1.852   0.308  0.00  0.00    +0.245 A 
ATOM     20  C   UNL     1       0.426  -1.537   0.632  0.00  0.00    +0.204 A 
BRANCH  20  23
ATOM      9  N   UNL     1       4.057  -0.971   1.200  0.00  0.00    -0.240 NA
ATOM     23  C   UNL     1       1.801  -1.222   0.369  0.00  0.00    +0.041 A 
ATOM     25  C   UNL     1       2.224  -0.872  -0.908  0.00  0.00    +0.016 A 
ATOM     26  C   UNL     1       2.748  -1.256   1.380  0.00  0.00    +0.124 A 
ATOM     27  C   UNL     1       3.563  -0.572  -1.133  0.00  0.00    +0.044 A 
ATOM     28  C   UNL     1       4.432  -0.635  -0.055  0.00  0.00    +0.121 A 
BRANCH  28  10
ATOM     10  N   UNL     1       5.793  -0.327  -0.300  0.00  0.00    -0.321 N 
ATOM     30  C   UNL     1       6.753  -0.366   0.780  0.00  0.00    +0.130 C 
ATOM     31  C   UNL     1       6.229   0.035  -1.630  0.00  0.00    +0.130 C 
ENDBRANCH  28  10
ENDBRANCH  20  23
ENDBRANCH  11  16
BRANCH   6  15
ATOM     15  C   UNL     1      -4.117   0.148   0.139  0.00  0.00    +0.120 C 
BRANCH  15  17
ATOM     17  C   UNL     1      -3.058   0.951   0.846  0.00  0.00    -0.030 A 
ATOM     18  C   UNL     1      -2.176   1.743   0.110  0.00  0.00    +0.051 A 
ATOM     19  C   UNL     1      -2.957   0.904   2.236  0.00  0.00    +0.005 A 
ATOM     21  C   UNL     1      -1.194   2.487   0.764  0.00  0.00    +0.130 A 
ATOM     22  C   UNL     1      -1.975   1.647   2.890  0.00  0.00    +0.004 A 
ATOM     24  C   UNL     1      -1.094   2.440   2.154  0.00  0.00    +0.046 A 
BRANCH  21   5
ATOM      5  O   UNL     1      -0.334   3.259   0.045  0.00  0.00    -0.406 OA
BRANCH   5  29
ATOM      1  F   UNL     1      -0.043   1.500  -1.388  0.00  0.00    -0.133 F 
ATOM      2  F   UNL     1       1.264   3.244  -1.549  0.00  0.00    -0.133 F 
ATOM      3  F   UNL     1      -0.821   3.409  -2.185  0.00  0.00    -0.133 F 
ATOM     29  C   UNL     1       0.001   2.845  -1.275  0.00  0.00    +0.575 C 
ENDBRANCH   5  29
ENDBRANCH  21   5
ENDBRANCH  15  17
ENDBRANCH   6  15
TORSDOF 7
