MODEL 1
REMARK VINA RESULT:      -7.2      0.000      0.000
REMARK  Name = 7144092
REMARK  4 active torsions:
REMARK  status: ('A' for Active; 'I' for Inactive)
REMARK    1  A    between atoms: O_3  and  C_26
REMARK    2  A    between atoms: O_3  and  C_30
REMARK    3  A    between atoms: C_13  and  C_18
REMARK    4  A    between atoms: C_15  and  C_19
REMARK                            x       y       z     vdW  Elec       q    Type
REMARK                         _______ _______ _______ _____ _____    ______ ____
ROOT
ATOM      1  O   UNL     1      10.212   9.516  22.441  0.00  0.00    -0.268 OA
ATOM      2  O   UNL     1      12.477  12.980  19.505  0.00  0.00    -0.270 OA
ATOM      4  N   UNL     1      14.183  11.909  20.692  0.00  0.00    -0.297 N 
ATOM      5  N   UNL     1      12.539   9.713  22.257  0.00  0.00    -0.311 N 
ATOM      6  C   UNL     1      13.785  11.775  23.138  0.00  0.00    +0.027 C 
ATOM      7  C   UNL     1      15.026   9.976  22.009  0.00  0.00    +0.054 C 
ATOM      8  C   UNL     1      14.963  10.822  23.279  0.00  0.00    +0.018 C 
ATOM      9  C   UNL     1      13.969  12.685  21.912  0.00  0.00    +0.113 C 
ATOM     10  C   UNL     1      12.500  10.949  23.051  0.00  0.00    +0.130 C 
ATOM     11  C   UNL     1      15.244  10.895  20.787  0.00  0.00    +0.117 C 
ATOM     12  C   UNL     1      13.753   9.146  21.819  0.00  0.00    +0.034 A 
ATOM     13  C   UNL     1      13.757   7.925  21.225  0.00  0.00    +0.002 A 
ATOM     14  C   UNL     1      11.300   9.074  22.069  0.00  0.00    +0.252 A 
ATOM     15  C   UNL     1      13.364  12.131  19.582  0.00  0.00    +0.247 C 
ATOM     16  C   UNL     1      12.496   7.239  21.010  0.00  0.00    +0.015 A 
ATOM     17  C   UNL     1      11.329   7.763  21.382  0.00  0.00    +0.071 A 
ENDROOT
BRANCH  13  18
ATOM     18  C   UNL     1      15.010   7.282  20.772  0.00  0.00    -0.016 A 
ATOM     20  C   UNL     1      15.988   6.943  21.703  0.00  0.00    +0.012 A 
ATOM     21  C   UNL     1      15.202   7.020  19.419  0.00  0.00    +0.012 A 
ATOM     24  C   UNL     1      17.170   6.339  21.276  0.00  0.00    +0.046 A 
ATOM     25  C   UNL     1      16.384   6.414  18.992  0.00  0.00    +0.046 A 
ATOM     26  C   UNL     1      17.367   6.074  19.921  0.00  0.00    +0.120 A 
BRANCH  26   3
ATOM      3  O   UNL     1      18.521   5.483  19.504  0.00  0.00    -0.495 OA
ATOM     30  C   UNL     1      19.647   5.573  20.375  0.00  0.00    +0.277 C 
ENDBRANCH  26   3
ENDBRANCH  13  18
BRANCH  15  19
ATOM     19  C   UNL     1      13.548  11.280  18.401  0.00  0.00    +0.037 A 
ATOM     22  C   UNL     1      12.897  10.051  18.324  0.00  0.00    +0.013 A 
ATOM     23  C   UNL     1      14.372  11.705  17.362  0.00  0.00    +0.013 A 
ATOM     27  C   UNL     1      13.072   9.242  17.201  0.00  0.00    +0.001 A 
ATOM     28  C   UNL     1      14.548  10.896  16.239  0.00  0.00    +0.001 A 
ATOM     29  C   UNL     1      13.898   9.665  16.159  0.00  0.00    +0.000 A 
ENDBRANCH  15  19
TORSDOF 3
ENDMDL
MODEL 2
REMARK VINA RESULT:      -7.1     13.658     16.719
REMARK  Name = 7144092
REMARK  4 active torsions:
REMARK  status: ('A' for Active; 'I' for Inactive)
REMARK    1  A    between atoms: O_3  and  C_26
REMARK    2  A    between atoms: O_3  and  C_30
REMARK    3  A    between atoms: C_13  and  C_18
REMARK    4  A    between atoms: C_15  and  C_19
REMARK                            x       y       z     vdW  Elec       q    Type
REMARK                         _______ _______ _______ _____ _____    ______ ____
ROOT
ATOM      1  O   UNL     1       7.124   9.268   4.587  0.00  0.00    -0.268 OA
ATOM      2  O   UNL     1      11.272  10.175   7.365  0.00  0.00    -0.270 OA
ATOM      4  N   UNL     1      11.208   7.864   7.015  0.00  0.00    -0.297 N 
ATOM      5  N   UNL     1       8.689   7.611   5.129  0.00  0.00    -0.311 N 
ATOM      6  C   UNL     1       9.021   6.819   7.546  0.00  0.00    +0.027 C 
ATOM      7  C   UNL     1      10.409   5.884   5.742  0.00  0.00    +0.054 C 
ATOM      8  C   UNL     1       9.484   5.520   6.903  0.00  0.00    +0.018 C 
ATOM      9  C   UNL     1      10.225   7.623   8.068  0.00  0.00    +0.113 C 
ATOM     10  C   UNL     1       8.208   7.607   6.518  0.00  0.00    +0.130 C 
ATOM     11  C   UNL     1      11.630   6.662   6.280  0.00  0.00    +0.117 C 
ATOM     12  C   UNL     1       9.683   6.717   4.682  0.00  0.00    +0.034 A 
ATOM     13  C   UNL     1       9.987   6.646   3.360  0.00  0.00    +0.002 A 
ATOM     14  C   UNL     1       8.008   8.477   4.255  0.00  0.00    +0.252 A 
ATOM     15  C   UNL     1      11.625   9.172   6.749  0.00  0.00    +0.247 C 
ATOM     16  C   UNL     1       9.308   7.528   2.430  0.00  0.00    +0.015 A 
ATOM     17  C   UNL     1       8.387   8.407   2.825  0.00  0.00    +0.071 A 
ENDROOT
BRANCH  13  18
ATOM     18  C   UNL     1      11.006   5.705   2.844  0.00  0.00    -0.016 A 
ATOM     20  C   UNL     1      10.686   4.360   2.685  0.00  0.00    +0.012 A 
ATOM     21  C   UNL     1      12.276   6.173   2.522  0.00  0.00    +0.012 A 
ATOM     24  C   UNL     1      11.647   3.473   2.200  0.00  0.00    +0.046 A 
ATOM     25  C   UNL     1      13.237   5.286   2.036  0.00  0.00    +0.046 A 
ATOM     26  C   UNL     1      12.922   3.937   1.876  0.00  0.00    +0.120 A 
BRANCH  26   3
ATOM      3  O   UNL     1      13.860   3.071   1.402  0.00  0.00    -0.495 OA
ATOM     30  C   UNL     1      15.189   3.570   1.255  0.00  0.00    +0.277 C 
ENDBRANCH  26   3
ENDBRANCH  13  18
BRANCH  15  19
ATOM     19  C   UNL     1      12.552   9.391   5.632  0.00  0.00    +0.037 A 
ATOM     22  C   UNL     1      12.052   9.584   4.346  0.00  0.00    +0.013 A 
ATOM     23  C   UNL     1      13.925   9.408   5.863  0.00  0.00    +0.013 A 
ATOM     27  C   UNL     1      12.933   9.792   3.284  0.00  0.00    +0.001 A 
ATOM     28  C   UNL     1      14.805   9.617   4.801  0.00  0.00    +0.001 A 
ATOM     29  C   UNL     1      14.309   9.809   3.512  0.00  0.00    +0.000 A 
ENDBRANCH  15  19
TORSDOF 3
ENDMDL
MODEL 3
REMARK VINA RESULT:      -6.7     13.661     17.056
REMARK  Name = 7144092
REMARK  4 active torsions:
REMARK  status: ('A' for Active; 'I' for Inactive)
REMARK    1  A    between atoms: O_3  and  C_26
REMARK    2  A    between atoms: O_3  and  C_30
REMARK    3  A    between atoms: C_13  and  C_18
REMARK    4  A    between atoms: C_15  and  C_19
REMARK                            x       y       z     vdW  Elec       q    Type
REMARK                         _______ _______ _______ _____ _____    ______ ____
ROOT
ATOM      1  O   UNL     1       8.558  10.772   2.111  0.00  0.00    -0.268 OA
ATOM      2  O   UNL     1      12.831   8.319   0.901  0.00  0.00    -0.270 OA
ATOM      4  N   UNL     1      12.808   8.486   3.234  0.00  0.00    -0.297 N 
ATOM      5  N   UNL     1       9.999   9.849   3.710  0.00  0.00    -0.311 N 
ATOM      6  C   UNL     1      12.362  10.776   4.081  0.00  0.00    +0.027 C 
ATOM      7  C   UNL     1      11.586   8.831   5.372  0.00  0.00    +0.054 C 
ATOM      8  C   UNL     1      12.199  10.225   5.489  0.00  0.00    +0.018 C 
ATOM      9  C   UNL     1      13.283   9.868   3.247  0.00  0.00    +0.113 C 
ATOM     10  C   UNL     1      10.975  10.917   3.451  0.00  0.00    +0.130 C 
ATOM     11  C   UNL     1      12.532   7.917   4.562  0.00  0.00    +0.117 C 
ATOM     12  C   UNL     1      10.207   8.875   4.708  0.00  0.00    +0.034 A 
ATOM     13  C   UNL     1       9.215   8.002   5.021  0.00  0.00    +0.002 A 
ATOM     14  C   UNL     1       8.799   9.936   2.983  0.00  0.00    +0.252 A 
ATOM     15  C   UNL     1      12.600   7.841   2.011  0.00  0.00    +0.247 C 
ATOM     16  C   UNL     1       7.964   8.060   4.288  0.00  0.00    +0.015 A 
ATOM     17  C   UNL     1       7.749   8.947   3.317  0.00  0.00    +0.071 A 
ENDROOT
BRANCH  13  18
ATOM     18  C   UNL     1       9.381   6.980   6.078  0.00  0.00    -0.016 A 
ATOM     20  C   UNL     1       9.172   7.324   7.410  0.00  0.00    +0.012 A 
ATOM     21  C   UNL     1       9.745   5.682   5.732  0.00  0.00    +0.012 A 
ATOM     24  C   UNL     1       9.330   6.361   8.406  0.00  0.00    +0.046 A 
ATOM     25  C   UNL     1       9.902   4.719   6.728  0.00  0.00    +0.046 A 
ATOM     26  C   UNL     1       9.695   5.058   8.065  0.00  0.00    +0.120 A 
BRANCH  26   3
ATOM      3  O   UNL     1       9.848   4.118   9.038  0.00  0.00    -0.495 OA
ATOM     30  C   UNL     1       9.293   4.413  10.319  0.00  0.00    +0.277 C 
ENDBRANCH  26   3
ENDBRANCH  13  18
BRANCH  15  19
ATOM     19  C   UNL     1      12.045   6.483   2.028  0.00  0.00    +0.037 A 
ATOM     22  C   UNL     1      10.664   6.300   2.076  0.00  0.00    +0.013 A 
ATOM     23  C   UNL     1      12.899   5.384   1.993  0.00  0.00    +0.013 A 
ATOM     27  C   UNL     1      10.136   5.009   2.092  0.00  0.00    +0.001 A 
ATOM     28  C   UNL     1      12.370   4.093   2.009  0.00  0.00    +0.001 A 
ATOM     29  C   UNL     1      10.989   3.905   2.058  0.00  0.00    +0.000 A 
ENDBRANCH  15  19
TORSDOF 3
ENDMDL
MODEL 4
REMARK VINA RESULT:      -6.6     27.681     29.735
REMARK  Name = 7144092
REMARK  4 active torsions:
REMARK  status: ('A' for Active; 'I' for Inactive)
REMARK    1  A    between atoms: O_3  and  C_26
REMARK    2  A    between atoms: O_3  and  C_30
REMARK    3  A    between atoms: C_13  and  C_18
REMARK    4  A    between atoms: C_15  and  C_19
REMARK                            x       y       z     vdW  Elec       q    Type
REMARK                         _______ _______ _______ _____ _____    ______ ____
ROOT
ATOM      1  O   UNL     1      -6.795 -15.066  17.067  0.00  0.00    -0.268 OA
ATOM      2  O   UNL     1      -8.279 -10.645  19.068  0.00  0.00    -0.270 OA
ATOM      4  N   UNL     1      -6.324 -10.199  17.865  0.00  0.00    -0.297 N 
ATOM      5  N   UNL     1      -5.745 -13.028  16.588  0.00  0.00    -0.311 N 
ATOM      6  C   UNL     1      -4.444 -11.734  18.381  0.00  0.00    +0.027 C 
ATOM      7  C   UNL     1      -4.668 -10.807  16.114  0.00  0.00    +0.054 C 
ATOM      8  C   UNL     1      -3.662 -11.175  17.203  0.00  0.00    +0.018 C 
ATOM      9  C   UNL     1      -5.436 -10.688  18.917  0.00  0.00    +0.113 C 
ATOM     10  C   UNL     1      -5.150 -13.015  17.932  0.00  0.00    +0.130 C 
ATOM     11  C   UNL     1      -5.639  -9.732  16.650  0.00  0.00    +0.117 C 
ATOM     12  C   UNL     1      -5.454 -12.031  15.635  0.00  0.00    +0.034 A 
ATOM     13  C   UNL     1      -5.898 -12.162  14.358  0.00  0.00    +0.002 A 
ATOM     14  C   UNL     1      -6.521 -14.159  16.280  0.00  0.00    +0.252 A 
ATOM     15  C   UNL     1      -7.708 -10.255  18.050  0.00  0.00    +0.247 C 
ATOM     16  C   UNL     1      -6.707 -13.314  14.006  0.00  0.00    +0.015 A 
ATOM     17  C   UNL     1      -7.026 -14.257  14.891  0.00  0.00    +0.071 A 
ENDROOT
BRANCH  13  18
ATOM     18  C   UNL     1      -5.596 -11.152  13.320  0.00  0.00    -0.016 A 
ATOM     20  C   UNL     1      -6.490 -10.112  13.087  0.00  0.00    +0.012 A 
ATOM     21  C   UNL     1      -4.419 -11.251  12.583  0.00  0.00    +0.012 A 
ATOM     24  C   UNL     1      -6.206  -9.161  12.107  0.00  0.00    +0.046 A 
ATOM     25  C   UNL     1      -4.134 -10.299  11.604  0.00  0.00    +0.046 A 
ATOM     26  C   UNL     1      -5.027  -9.255  11.366  0.00  0.00    +0.120 A 
BRANCH  26   3
ATOM      3  O   UNL     1      -4.749  -8.326  10.410  0.00  0.00    -0.495 OA
ATOM     30  C   UNL     1      -4.171  -8.799   9.195  0.00  0.00    +0.277 C 
ENDBRANCH  26   3
ENDBRANCH  13  18
BRANCH  15  19
ATOM     19  C   UNL     1      -8.575  -9.833  16.944  0.00  0.00    +0.037 A 
ATOM     22  C   UNL     1      -9.031  -8.518  16.884  0.00  0.00    +0.013 A 
ATOM     23  C   UNL     1      -8.936 -10.747  15.958  0.00  0.00    +0.013 A 
ATOM     27  C   UNL     1      -9.855  -8.116  15.832  0.00  0.00    +0.001 A 
ATOM     28  C   UNL     1      -9.760 -10.346  14.907  0.00  0.00    +0.001 A 
ATOM     29  C   UNL     1     -10.219  -9.031  14.844  0.00  0.00    +0.000 A 
ENDBRANCH  15  19
TORSDOF 3
ENDMDL
MODEL 5
REMARK VINA RESULT:      -6.5      2.448      5.715
REMARK  Name = 7144092
REMARK  4 active torsions:
REMARK  status: ('A' for Active; 'I' for Inactive)
REMARK    1  A    between atoms: O_3  and  C_26
REMARK    2  A    between atoms: O_3  and  C_30
REMARK    3  A    between atoms: C_13  and  C_18
REMARK    4  A    between atoms: C_15  and  C_19
REMARK                            x       y       z     vdW  Elec       q    Type
REMARK                         _______ _______ _______ _____ _____    ______ ____
ROOT
ATOM      1  O   UNL     1      11.066  10.926  22.038  0.00  0.00    -0.268 OA
ATOM      2  O   UNL     1      14.697   7.394  22.339  0.00  0.00    -0.270 OA
ATOM      4  N   UNL     1      14.333   7.769  20.060  0.00  0.00    -0.297 N 
ATOM      5  N   UNL     1      12.213  10.107  20.167  0.00  0.00    -0.311 N 
ATOM      6  C   UNL     1      11.946   7.678  19.387  0.00  0.00    +0.027 C 
ATOM      7  C   UNL     1      13.485   9.189  18.203  0.00  0.00    +0.054 C 
ATOM      8  C   UNL     1      12.309   8.232  18.017  0.00  0.00    +0.018 C 
ATOM      9  C   UNL     1      13.140   6.927  20.001  0.00  0.00    +0.113 C 
ATOM     10  C   UNL     1      11.481   8.837  20.271  0.00  0.00    +0.130 C 
ATOM     11  C   UNL     1      14.689   8.420  18.790  0.00  0.00    +0.117 C 
ATOM     12  C   UNL     1      13.118  10.362  19.117  0.00  0.00    +0.034 A 
ATOM     13  C   UNL     1      13.654  11.601  18.969  0.00  0.00    +0.002 A 
ATOM     14  C   UNL     1      11.860  11.088  21.110  0.00  0.00    +0.252 A 
ATOM     15  C   UNL     1      14.997   7.939  21.278  0.00  0.00    +0.247 C 
ATOM     16  C   UNL     1      13.315  12.637  19.927  0.00  0.00    +0.015 A 
ATOM     17  C   UNL     1      12.489  12.419  20.949  0.00  0.00    +0.071 A 
ENDROOT
BRANCH  13  18
ATOM     18  C   UNL     1      14.588  11.920  17.867  0.00  0.00    -0.016 A 
ATOM     20  C   UNL     1      14.143  11.876  16.549  0.00  0.00    +0.012 A 
ATOM     21  C   UNL     1      15.906  12.260  18.157  0.00  0.00    +0.012 A 
ATOM     24  C   UNL     1      15.025  12.175  15.511  0.00  0.00    +0.046 A 
ATOM     25  C   UNL     1      16.788  12.560  17.118  0.00  0.00    +0.046 A 
ATOM     26  C   UNL     1      16.347  12.517  15.796  0.00  0.00    +0.120 A 
BRANCH  26   3
ATOM      3  O   UNL     1      17.207  12.810  14.782  0.00  0.00    -0.495 OA
ATOM     30  C   UNL     1      18.193  11.829  14.464  0.00  0.00    +0.277 C 
ENDBRANCH  26   3
ENDBRANCH  13  18
BRANCH  15  19
ATOM     19  C   UNL     1      16.143   8.855  21.323  0.00  0.00    +0.037 A 
ATOM     22  C   UNL     1      15.932  10.219  21.514  0.00  0.00    +0.013 A 
ATOM     23  C   UNL     1      17.434   8.358  21.175  0.00  0.00    +0.013 A 
ATOM     27  C   UNL     1      17.021  11.090  21.557  0.00  0.00    +0.001 A 
ATOM     28  C   UNL     1      18.523   9.229  21.218  0.00  0.00    +0.001 A 
ATOM     29  C   UNL     1      18.316  10.594  21.409  0.00  0.00    +0.000 A 
ENDBRANCH  15  19
TORSDOF 3
ENDMDL
MODEL 6
REMARK VINA RESULT:      -6.4     25.268     28.047
REMARK  Name = 7144092
REMARK  4 active torsions:
REMARK  status: ('A' for Active; 'I' for Inactive)
REMARK    1  A    between atoms: O_3  and  C_26
REMARK    2  A    between atoms: O_3  and  C_30
REMARK    3  A    between atoms: C_13  and  C_18
REMARK    4  A    between atoms: C_15  and  C_19
REMARK                            x       y       z     vdW  Elec       q    Type
REMARK                         _______ _______ _______ _____ _____    ______ ____
ROOT
ATOM      1  O   UNL     1     -10.832  12.811  18.589  0.00  0.00    -0.268 OA
ATOM      2  O   UNL     1     -14.026  11.108  15.031  0.00  0.00    -0.270 OA
ATOM      4  N   UNL     1     -12.981   9.221  15.934  0.00  0.00    -0.297 N 
ATOM      5  N   UNL     1     -11.233  10.534  18.213  0.00  0.00    -0.311 N 
ATOM      6  C   UNL     1     -10.507   9.385  16.037  0.00  0.00    +0.027 C 
ATOM      7  C   UNL     1     -11.713   8.109  17.760  0.00  0.00    +0.054 C 
ATOM      8  C   UNL     1     -10.457   8.126  16.890  0.00  0.00    +0.018 C 
ATOM      9  C   UNL     1     -11.761   9.386  15.147  0.00  0.00    +0.113 C 
ATOM     10  C   UNL     1     -10.461  10.601  16.964  0.00  0.00    +0.130 C 
ATOM     11  C   UNL     1     -12.966   8.077  16.858  0.00  0.00    +0.117 C 
ATOM     12  C   UNL     1     -11.770   9.322  18.692  0.00  0.00    +0.034 A 
ATOM     13  C   UNL     1     -12.340   9.273  19.924  0.00  0.00    +0.002 A 
ATOM     14  C   UNL     1     -11.295  11.729  18.952  0.00  0.00    +0.252 A 
ATOM     15  C   UNL     1     -14.015  10.152  15.805  0.00  0.00    +0.247 C 
ATOM     16  C   UNL     1     -12.426  10.488  20.713  0.00  0.00    +0.015 A 
ATOM     17  C   UNL     1     -11.957  11.656  20.274  0.00  0.00    +0.071 A 
ENDROOT
BRANCH  13  18
ATOM     18  C   UNL     1     -12.894   8.018  20.478  0.00  0.00    -0.016 A 
ATOM     20  C   UNL     1     -12.043   7.089  21.068  0.00  0.00    +0.012 A 
ATOM     21  C   UNL     1     -14.262   7.775  20.403  0.00  0.00    +0.012 A 
ATOM     24  C   UNL     1     -12.564   5.905  21.589  0.00  0.00    +0.046 A 
ATOM     25  C   UNL     1     -14.784   6.591  20.924  0.00  0.00    +0.046 A 
ATOM     26  C   UNL     1     -13.936   5.656  21.516  0.00  0.00    +0.120 A 
BRANCH  26   3
ATOM      3  O   UNL     1     -14.445   4.501  22.025  0.00  0.00    -0.495 OA
ATOM     30  C   UNL     1     -15.219   4.603  23.219  0.00  0.00    +0.277 C 
ENDBRANCH  26   3
ENDBRANCH  13  18
BRANCH  15  19
ATOM     19  C   UNL     1     -15.193  10.006  16.669  0.00  0.00    +0.037 A 
ATOM     22  C   UNL     1     -15.209  10.606  17.926  0.00  0.00    +0.013 A 
ATOM     23  C   UNL     1     -16.289   9.270  16.227  0.00  0.00    +0.013 A 
ATOM     27  C   UNL     1     -16.328  10.468  18.747  0.00  0.00    +0.001 A 
ATOM     28  C   UNL     1     -17.409   9.131  17.048  0.00  0.00    +0.001 A 
ATOM     29  C   UNL     1     -17.428   9.730  18.308  0.00  0.00    +0.000 A 
ENDBRANCH  15  19
TORSDOF 3
ENDMDL
MODEL 7
REMARK VINA RESULT:      -6.3     26.904     29.627
REMARK  Name = 7144092
REMARK  4 active torsions:
REMARK  status: ('A' for Active; 'I' for Inactive)
REMARK    1  A    between atoms: O_3  and  C_26
REMARK    2  A    between atoms: O_3  and  C_30
REMARK    3  A    between atoms: C_13  and  C_18
REMARK    4  A    between atoms: C_15  and  C_19
REMARK                            x       y       z     vdW  Elec       q    Type
REMARK                         _______ _______ _______ _____ _____    ______ ____
ROOT
ATOM      1  O   UNL     1      -5.956 -11.419  20.841  0.00  0.00    -0.268 OA
ATOM      2  O   UNL     1      -9.105 -13.699  17.579  0.00  0.00    -0.270 OA
ATOM      4  N   UNL     1      -8.101 -11.944  16.405  0.00  0.00    -0.297 N 
ATOM      5  N   UNL     1      -6.085 -10.847  18.573  0.00  0.00    -0.311 N 
ATOM      6  C   UNL     1      -8.186  -9.760  17.580  0.00  0.00    +0.027 C 
ATOM      7  C   UNL     1      -6.269 -10.286  16.130  0.00  0.00    +0.054 C 
ATOM      8  C   UNL     1      -7.222  -9.172  16.560  0.00  0.00    +0.018 C 
ATOM      9  C   UNL     1      -8.983 -10.922  16.964  0.00  0.00    +0.113 C 
ATOM     10  C   UNL     1      -7.384 -10.201  18.806  0.00  0.00    +0.130 C 
ATOM     11  C   UNL     1      -7.075 -11.433  15.483  0.00  0.00    +0.117 C 
ATOM     12  C   UNL     1      -5.456 -10.820  17.312  0.00  0.00    +0.034 A 
ATOM     13  C   UNL     1      -4.188 -11.289  17.176  0.00  0.00    +0.002 A 
ATOM     14  C   UNL     1      -5.461 -11.382  19.714  0.00  0.00    +0.252 A 
ATOM     15  C   UNL     1      -8.246 -13.274  16.808  0.00  0.00    +0.247 C 
ATOM     16  C   UNL     1      -3.515 -11.853  18.331  0.00  0.00    +0.015 A 
ATOM     17  C   UNL     1      -4.095 -11.923  19.529  0.00  0.00    +0.071 A 
ENDROOT
BRANCH  13  18
ATOM     18  C   UNL     1      -3.480 -11.258  15.877  0.00  0.00    -0.016 A 
ATOM     20  C   UNL     1      -2.499 -10.299  15.648  0.00  0.00    +0.012 A 
ATOM     21  C   UNL     1      -3.802 -12.189  14.894  0.00  0.00    +0.012 A 
ATOM     24  C   UNL     1      -1.833 -10.269  14.423  0.00  0.00    +0.046 A 
ATOM     25  C   UNL     1      -3.136 -12.159  13.669  0.00  0.00    +0.046 A 
ATOM     26  C   UNL     1      -2.152 -11.200  13.433  0.00  0.00    +0.120 A 
BRANCH  26   3
ATOM      3  O   UNL     1      -1.501 -11.171  12.238  0.00  0.00    -0.495 OA
ATOM     30  C   UNL     1      -1.458  -9.920  11.553  0.00  0.00    +0.277 C 
ENDBRANCH  26   3
ENDBRANCH  13  18
BRANCH  15  19
ATOM     19  C   UNL     1      -7.293 -14.264  16.293  0.00  0.00    +0.037 A 
ATOM     22  C   UNL     1      -7.625 -15.028  15.175  0.00  0.00    +0.013 A 
ATOM     23  C   UNL     1      -6.063 -14.435  16.921  0.00  0.00    +0.013 A 
ATOM     27  C   UNL     1      -6.719 -15.969  14.685  0.00  0.00    +0.001 A 
ATOM     28  C   UNL     1      -5.157 -15.376  16.431  0.00  0.00    +0.001 A 
ATOM     29  C   UNL     1      -5.485 -16.143  15.314  0.00  0.00    +0.000 A 
ENDBRANCH  15  19
TORSDOF 3
ENDMDL
MODEL 8
REMARK VINA RESULT:      -6.1      2.342      6.099
REMARK  Name = 7144092
REMARK  4 active torsions:
REMARK  status: ('A' for Active; 'I' for Inactive)
REMARK    1  A    between atoms: O_3  and  C_26
REMARK    2  A    between atoms: O_3  and  C_30
REMARK    3  A    between atoms: C_13  and  C_18
REMARK    4  A    between atoms: C_15  and  C_19
REMARK                            x       y       z     vdW  Elec       q    Type
REMARK                         _______ _______ _______ _____ _____    ______ ____
ROOT
ATOM      1  O   UNL     1      10.603   8.813  22.060  0.00  0.00    -0.268 OA
ATOM      2  O   UNL     1      14.880   6.466  20.662  0.00  0.00    -0.270 OA
ATOM      4  N   UNL     1      14.392   8.006  18.971  0.00  0.00    -0.297 N 
ATOM      5  N   UNL     1      11.847   9.435  20.174  0.00  0.00    -0.311 N 
ATOM      6  C   UNL     1      12.058   7.889  18.137  0.00  0.00    +0.027 C 
ATOM      7  C   UNL     1      13.230  10.052  18.169  0.00  0.00    +0.054 C 
ATOM      8  C   UNL     1      12.268   9.181  17.362  0.00  0.00    +0.018 C 
ATOM      9  C   UNL     1      13.393   7.152  18.333  0.00  0.00    +0.113 C 
ATOM     10  C   UNL     1      11.389   8.227  19.471  0.00  0.00    +0.130 C 
ATOM     11  C   UNL     1      14.579   9.317  18.332  0.00  0.00    +0.117 C 
ATOM     12  C   UNL     1      12.656  10.402  19.545  0.00  0.00    +0.034 A 
ATOM     13  C   UNL     1      12.926  11.574  20.175  0.00  0.00    +0.002 A 
ATOM     14  C   UNL     1      11.325   9.617  21.467  0.00  0.00    +0.252 A 
ATOM     15  C   UNL     1      15.037   7.563  20.129  0.00  0.00    +0.247 C 
ATOM     16  C   UNL     1      12.408  11.795  21.512  0.00  0.00    +0.015 A 
ATOM     17  C   UNL     1      11.668  10.887  22.147  0.00  0.00    +0.071 A 
ENDROOT
BRANCH  13  18
ATOM     18  C   UNL     1      13.750  12.627  19.541  0.00  0.00    -0.016 A 
ATOM     20  C   UNL     1      13.146  13.582  18.729  0.00  0.00    +0.012 A 
ATOM     21  C   UNL     1      15.124  12.655  19.762  0.00  0.00    +0.012 A 
ATOM     24  C   UNL     1      13.923  14.574  18.131  0.00  0.00    +0.046 A 
ATOM     25  C   UNL     1      15.901  13.647  19.165  0.00  0.00    +0.046 A 
ATOM     26  C   UNL     1      15.301  14.606  18.349  0.00  0.00    +0.120 A 
BRANCH  26   3
ATOM      3  O   UNL     1      16.060  15.574  17.766  0.00  0.00    -0.495 OA
ATOM     30  C   UNL     1      16.383  15.403  16.387  0.00  0.00    +0.277 C 
ENDBRANCH  26   3
ENDBRANCH  13  18
BRANCH  15  19
ATOM     19  C   UNL     1      15.975   8.476  20.794  0.00  0.00    +0.037 A 
ATOM     22  C   UNL     1      17.346   8.313  20.614  0.00  0.00    +0.013 A 
ATOM     23  C   UNL     1      15.489   9.503  21.600  0.00  0.00    +0.013 A 
ATOM     27  C   UNL     1      18.238   9.180  21.245  0.00  0.00    +0.001 A 
ATOM     28  C   UNL     1      16.381  10.370  22.232  0.00  0.00    +0.001 A 
ATOM     29  C   UNL     1      17.754  10.209  22.054  0.00  0.00    +0.000 A 
ENDBRANCH  15  19
TORSDOF 3
ENDMDL
MODEL 9
REMARK VINA RESULT:      -6.1     12.286     16.041
REMARK  Name = 7144092
REMARK  4 active torsions:
REMARK  status: ('A' for Active; 'I' for Inactive)
REMARK    1  A    between atoms: O_3  and  C_26
REMARK    2  A    between atoms: O_3  and  C_30
REMARK    3  A    between atoms: C_13  and  C_18
REMARK    4  A    between atoms: C_15  and  C_19
REMARK                            x       y       z     vdW  Elec       q    Type
REMARK                         _______ _______ _______ _____ _____    ______ ____
ROOT
ATOM      1  O   UNL     1      19.966  -5.129  21.844  0.00  0.00    -0.268 OA
ATOM      2  O   UNL     1      20.530  -1.031  24.784  0.00  0.00    -0.270 OA
ATOM      4  N   UNL     1      18.319  -1.740  25.062  0.00  0.00    -0.297 N 
ATOM      5  N   UNL     1      18.305  -4.367  23.310  0.00  0.00    -0.311 N 
ATOM      6  C   UNL     1      17.105  -2.132  22.934  0.00  0.00    +0.027 C 
ATOM      7  C   UNL     1      16.569  -3.500  24.907  0.00  0.00    +0.054 C 
ATOM      8  C   UNL     1      15.964  -2.782  23.702  0.00  0.00    +0.018 C 
ATOM      9  C   UNL     1      17.851  -1.123  23.824  0.00  0.00    +0.113 C 
ATOM     10  C   UNL     1      18.031  -3.234  22.416  0.00  0.00    +0.130 C 
ATOM     11  C   UNL     1      17.288  -2.474  25.811  0.00  0.00    +0.117 C 
ATOM     12  C   UNL     1      17.549  -4.595  24.477  0.00  0.00    +0.034 A 
ATOM     13  C   UNL     1      17.730  -5.737  25.191  0.00  0.00    +0.002 A 
ATOM     14  C   UNL     1      19.286  -5.270  22.861  0.00  0.00    +0.252 A 
ATOM     15  C   UNL     1      19.669  -1.645  25.411  0.00  0.00    +0.247 C 
ATOM     16  C   UNL     1      18.737  -6.688  24.760  0.00  0.00    +0.015 A 
ATOM     17  C   UNL     1      19.490  -6.486  23.679  0.00  0.00    +0.071 A 
ENDROOT
BRANCH  13  18
ATOM     18  C   UNL     1      16.941  -6.028  26.408  0.00  0.00    -0.016 A 
ATOM     20  C   UNL     1      15.789  -6.803  26.316  0.00  0.00    +0.012 A 
ATOM     21  C   UNL     1      17.357  -5.525  27.638  0.00  0.00    +0.012 A 
ATOM     24  C   UNL     1      15.044  -7.077  27.463  0.00  0.00    +0.046 A 
ATOM     25  C   UNL     1      16.613  -5.800  28.785  0.00  0.00    +0.046 A 
ATOM     26  C   UNL     1      15.457  -6.575  28.698  0.00  0.00    +0.120 A 
BRANCH  26   3
ATOM      3  O   UNL     1      14.731  -6.843  29.817  0.00  0.00    -0.495 OA
ATOM     30  C   UNL     1      14.288  -5.725  30.587  0.00  0.00    +0.277 C 
ENDBRANCH  26   3
ENDBRANCH  13  18
BRANCH  15  19
ATOM     19  C   UNL     1      20.125  -2.345  26.618  0.00  0.00    +0.037 A 
ATOM     22  C   UNL     1      20.517  -3.680  26.539  0.00  0.00    +0.013 A 
ATOM     23  C   UNL     1      20.165  -1.672  27.836  0.00  0.00    +0.013 A 
ATOM     27  C   UNL     1      20.951  -4.345  27.686  0.00  0.00    +0.001 A 
ATOM     28  C   UNL     1      20.599  -2.338  28.984  0.00  0.00    +0.001 A 
ATOM     29  C   UNL     1      20.991  -3.673  28.908  0.00  0.00    +0.000 A 
ENDBRANCH  15  19
TORSDOF 3
ENDMDL
MODEL 10
REMARK VINA RESULT:      -6.1     25.346     28.360
REMARK  Name = 7144092
REMARK  4 active torsions:
REMARK  status: ('A' for Active; 'I' for Inactive)
REMARK    1  A    between atoms: O_3  and  C_26
REMARK    2  A    between atoms: O_3  and  C_30
REMARK    3  A    between atoms: C_13  and  C_18
REMARK    4  A    between atoms: C_15  and  C_19
REMARK                            x       y       z     vdW  Elec       q    Type
REMARK                         _______ _______ _______ _____ _____    ______ ____
ROOT
ATOM      1  O   UNL     1     -12.694  13.018  19.370  0.00  0.00    -0.268 OA
ATOM      2  O   UNL     1     -12.260  10.044  15.282  0.00  0.00    -0.270 OA
ATOM      4  N   UNL     1     -11.757   8.700  17.128  0.00  0.00    -0.297 N 
ATOM      5  N   UNL     1     -12.290  10.715  19.500  0.00  0.00    -0.311 N 
ATOM      6  C   UNL     1     -10.088   9.689  18.676  0.00  0.00    +0.027 C 
ATOM      7  C   UNL     1     -11.863   8.239  19.569  0.00  0.00    +0.054 C 
ATOM      8  C   UNL     1     -10.384   8.599  19.695  0.00  0.00    +0.018 C 
ATOM      9  C   UNL     1     -10.387   9.194  17.251  0.00  0.00    +0.113 C 
ATOM     10  C   UNL     1     -10.912  10.927  19.037  0.00  0.00    +0.130 C 
ATOM     11  C   UNL     1     -12.147   7.712  18.145  0.00  0.00    +0.117 C 
ATOM     12  C   UNL     1     -12.763   9.440  19.871  0.00  0.00    +0.034 A 
ATOM     13  C   UNL     1     -13.990   9.311  20.441  0.00  0.00    +0.002 A 
ATOM     14  C   UNL     1     -13.060  11.880  19.663  0.00  0.00    +0.252 A 
ATOM     15  C   UNL     1     -12.588   9.217  16.131  0.00  0.00    +0.247 C 
ATOM     16  C   UNL     1     -14.814  10.491  20.620  0.00  0.00    +0.015 A 
ATOM     17  C   UNL     1     -14.409  11.706  20.250  0.00  0.00    +0.071 A 
ENDROOT
BRANCH  13  18
ATOM     18  C   UNL     1     -14.516   7.996  20.868  0.00  0.00    -0.016 A 
ATOM     20  C   UNL     1     -15.322   7.260  20.004  0.00  0.00    +0.012 A 
ATOM     21  C   UNL     1     -14.202   7.504  22.132  0.00  0.00    +0.012 A 
ATOM     24  C   UNL     1     -15.819   6.021  20.407  0.00  0.00    +0.046 A 
ATOM     25  C   UNL     1     -14.699   6.264  22.534  0.00  0.00    +0.046 A 
ATOM     26  C   UNL     1     -15.507   5.524  21.672  0.00  0.00    +0.120 A 
BRANCH  26   3
ATOM      3  O   UNL     1     -15.992   4.314  22.066  0.00  0.00    -0.495 OA
ATOM     30  C   UNL     1     -15.799   3.950  23.432  0.00  0.00    +0.277 C 
ENDBRANCH  26   3
ENDBRANCH  13  18
BRANCH  15  19
ATOM     19  C   UNL     1     -13.983   8.762  16.085  0.00  0.00    +0.037 A 
ATOM     22  C   UNL     1     -14.936   9.365  16.903  0.00  0.00    +0.013 A 
ATOM     23  C   UNL     1     -14.348   7.732  15.223  0.00  0.00    +0.013 A 
ATOM     27  C   UNL     1     -16.261   8.932  16.860  0.00  0.00    +0.001 A 
ATOM     28  C   UNL     1     -15.673   7.299  15.179  0.00  0.00    +0.001 A 
ATOM     29  C   UNL     1     -16.630   7.899  15.997  0.00  0.00    +0.000 A 
ENDBRANCH  15  19
TORSDOF 3
ENDMDL
