MODEL 1
REMARK VINA RESULT:      -7.0      0.000      0.000
REMARK  Name = 45784418
REMARK  10 active torsions:
REMARK  status: ('A' for Active; 'I' for Inactive)
REMARK    1  A    between atoms: O_2  and  C_11
REMARK    2  A    between atoms: N_5  and  C_15
REMARK    3  A    between atoms: N_6  and  C_25
REMARK    4  A    between atoms: C_8  and  C_18
REMARK    5  A    between atoms: C_10  and  C_20
REMARK    6  A    between atoms: C_14  and  C_19
REMARK    7  A    between atoms: C_19  and  C_21
REMARK    8  A    between atoms: C_19  and  C_22
REMARK    9  A    between atoms: C_23  and  C_24
REMARK   10  A    between atoms: C_25  and  C_27
REMARK                            x       y       z     vdW  Elec       q    Type
REMARK                         _______ _______ _______ _____ _____    ______ ____
ROOT
ATOM      8  C   UNL     1     -14.965   7.547  20.590  0.00  0.00    -0.027 C 
ATOM      9  C   UNL     1     -13.742   6.621  20.896  0.00  0.00    +0.028 C 
ATOM     10  C   UNL     1     -13.936   5.872  22.264  0.00  0.00    +0.012 C 
ATOM     11  C   UNL     1     -12.399   7.390  20.741  0.00  0.00    +0.122 C 
ATOM     12  C   UNL     1     -14.795   8.180  19.189  0.00  0.00    +0.007 C 
ATOM     13  C   UNL     1     -16.253   6.691  20.566  0.00  0.00    +0.009 C 
ATOM     14  C   UNL     1     -12.280   8.109  19.377  0.00  0.00    +0.029 C 
ATOM     15  C   UNL     1     -15.271   5.074  22.255  0.00  0.00    +0.076 C 
ATOM     16  C   UNL     1     -13.499   8.968  19.046  0.00  0.00    +0.007 C 
ATOM     17  C   UNL     1     -16.481   5.918  21.858  0.00  0.00    +0.023 C 
ATOM     18  C   UNL     1     -15.127   8.681  21.633  0.00  0.00    +0.011 C 
ATOM     20  C   UNL     1     -12.781   4.920  22.614  0.00  0.00    +0.010 C 
ENDROOT
BRANCH  15   5
ATOM      4  O   UNL     1     -16.484   2.513  22.720  0.00  0.00    -0.269 OA
ATOM      5  N   UNL     1     -15.540   4.465  23.542  0.00  0.00    -0.307 N 
ATOM     23  C   UNL     1     -16.132   3.220  23.661  0.00  0.00    +0.263 C 
ATOM     34  H   UNL     1     -15.336   5.000  24.381  0.00  0.00    +0.149 HD
BRANCH  23  24
ATOM      7  N   UNL     1     -16.551   1.414  25.192  0.00  0.00    -0.250 NA
ATOM     24  C   UNL     1     -16.364   2.747  25.050  0.00  0.00    +0.125 A 
ATOM     26  C   UNL     1     -16.382   3.648  26.102  0.00  0.00    +0.033 A 
ATOM     28  C   UNL     1     -16.604   3.152  27.381  0.00  0.00    +0.004 A 
ATOM     29  C   UNL     1     -16.763   0.969  26.451  0.00  0.00    +0.111 A 
ATOM     31  C   UNL     1     -16.799   1.788  27.568  0.00  0.00    +0.020 A 
ENDBRANCH  23  24
ENDBRANCH  15   5
BRANCH  11   2
ATOM      2  O   UNL     1     -11.310   6.470  20.815  0.00  0.00    -0.391 OA
ATOM     35  H   UNL     1     -11.677   5.579  20.950  0.00  0.00    +0.210 HD
ENDBRANCH  11   2
BRANCH  14  19
ATOM     19  C   UNL     1     -11.011   8.966  19.294  0.00  0.00    +0.077 C 
ATOM     21  C   UNL     1     -11.214  10.277  20.047  0.00  0.00    +0.017 C 
BRANCH  19  22
ATOM      3  O   UNL     1     -10.246  10.303  17.426  0.00  0.00    -0.276 OA
ATOM      6  N   UNL     1     -10.816   8.087  17.045  0.00  0.00    -0.310 N 
ATOM     22  C   UNL     1     -10.645   9.215  17.834  0.00  0.00    +0.216 C 
ATOM     36  H   UNL     1     -11.176   7.234  17.463  0.00  0.00    +0.149 HD
BRANCH   6  25
ATOM     25  C   UNL     1     -10.537   8.077  15.627  0.00  0.00    +0.146 C 
BRANCH  25  27
ATOM      1  S   UNL     1     -11.617   8.600  13.123  0.00  0.00    -0.100 S 
ATOM     27  C   UNL     1     -11.766   8.353  14.811  0.00  0.00    +0.007 A 
ATOM     30  C   UNL     1     -13.074   8.445  15.233  0.00  0.00    +0.013 A 
ATOM     32  C   UNL     1     -13.966   8.722  14.157  0.00  0.00    +0.008 A 
ATOM     33  C   UNL     1     -13.306   8.831  12.953  0.00  0.00    +0.045 A 
ENDBRANCH  25  27
ENDBRANCH   6  25
ENDBRANCH  19  22
ENDBRANCH  14  19
TORSDOF 7
ENDMDL
MODEL 2
REMARK VINA RESULT:      -6.7     18.103     19.442
REMARK  Name = 45784418
REMARK  10 active torsions:
REMARK  status: ('A' for Active; 'I' for Inactive)
REMARK    1  A    between atoms: O_2  and  C_11
REMARK    2  A    between atoms: N_5  and  C_15
REMARK    3  A    between atoms: N_6  and  C_25
REMARK    4  A    between atoms: C_8  and  C_18
REMARK    5  A    between atoms: C_10  and  C_20
REMARK    6  A    between atoms: C_14  and  C_19
REMARK    7  A    between atoms: C_19  and  C_21
REMARK    8  A    between atoms: C_19  and  C_22
REMARK    9  A    between atoms: C_23  and  C_24
REMARK   10  A    between atoms: C_25  and  C_27
REMARK                            x       y       z     vdW  Elec       q    Type
REMARK                         _______ _______ _______ _____ _____    ______ ____
ROOT
ATOM      8  C   UNL     1      -4.768 -11.058  16.925  0.00  0.00    -0.027 C 
ATOM      9  C   UNL     1      -5.547 -10.444  15.715  0.00  0.00    +0.028 C 
ATOM     10  C   UNL     1      -7.099 -10.540  15.942  0.00  0.00    +0.012 C 
ATOM     11  C   UNL     1      -5.034 -11.018  14.363  0.00  0.00    +0.122 C 
ATOM     12  C   UNL     1      -3.250 -10.845  16.722  0.00  0.00    +0.007 C 
ATOM     13  C   UNL     1      -5.178 -10.315  18.218  0.00  0.00    +0.009 C 
ATOM     14  C   UNL     1      -3.500 -10.897  14.211  0.00  0.00    +0.029 C 
ATOM     15  C   UNL     1      -7.491  -9.855  17.282  0.00  0.00    +0.076 C 
ATOM     16  C   UNL     1      -2.736 -11.441  15.418  0.00  0.00    +0.007 C 
ATOM     17  C   UNL     1      -6.678 -10.351  18.478  0.00  0.00    +0.023 C 
ATOM     18  C   UNL     1      -5.040 -12.573  17.100  0.00  0.00    +0.011 C 
ATOM     20  C   UNL     1      -7.928  -9.928  14.801  0.00  0.00    +0.010 C 
ENDROOT
BRANCH  15   5
ATOM      4  O   UNL     1      -9.481  -7.789  17.405  0.00  0.00    -0.269 OA
ATOM      5  N   UNL     1      -8.897 -10.027  17.581  0.00  0.00    -0.307 N 
ATOM     23  C   UNL     1      -9.780  -8.962  17.617  0.00  0.00    +0.263 C 
ATOM     34  H   UNL     1      -9.229 -10.955  17.828  0.00  0.00    +0.149 HD
BRANCH  23  24
ATOM      7  N   UNL     1     -12.115  -8.959  17.044  0.00  0.00    -0.250 NA
ATOM     24  C   UNL     1     -11.184  -9.300  17.964  0.00  0.00    +0.125 A 
ATOM     26  C   UNL     1     -11.476  -9.922  19.168  0.00  0.00    +0.033 A 
ATOM     28  C   UNL     1     -12.806 -10.216  19.443  0.00  0.00    +0.004 A 
ATOM     29  C   UNL     1     -13.398  -9.260  17.347  0.00  0.00    +0.111 A 
ATOM     31  C   UNL     1     -13.792  -9.882  18.521  0.00  0.00    +0.020 A 
ENDBRANCH  23  24
ENDBRANCH  15   5
BRANCH  11   2
ATOM      2  O   UNL     1      -5.611 -10.284  13.283  0.00  0.00    -0.391 OA
ATOM     35  H   UNL     1      -6.578 -10.301  13.390  0.00  0.00    +0.210 HD
ENDBRANCH  11   2
BRANCH  14  19
ATOM     19  C   UNL     1      -2.998 -11.584  12.935  0.00  0.00    +0.077 C 
ATOM     21  C   UNL     1      -1.816 -12.491  13.258  0.00  0.00    +0.017 C 
BRANCH  19  22
ATOM      3  O   UNL     1      -1.544  -9.951  11.894  0.00  0.00    -0.276 OA
ATOM      6  N   UNL     1      -3.634 -10.326  10.963  0.00  0.00    -0.310 N 
ATOM     22  C   UNL     1      -2.625 -10.535  11.892  0.00  0.00    +0.216 C 
ATOM     36  H   UNL     1      -4.509 -10.837  11.053  0.00  0.00    +0.149 HD
BRANCH   6  25
ATOM     25  C   UNL     1      -3.515  -9.379   9.879  0.00  0.00    +0.146 C 
BRANCH  25  27
ATOM      1  S   UNL     1      -5.259  -9.988   7.806  0.00  0.00    -0.100 S 
ATOM     27  C   UNL     1      -4.837  -9.115   9.217  0.00  0.00    +0.007 A 
ATOM     30  C   UNL     1      -5.821  -8.228   9.590  0.00  0.00    +0.013 A 
ATOM     32  C   UNL     1      -6.938  -8.264   8.706  0.00  0.00    +0.008 A 
ATOM     33  C   UNL     1      -6.764  -9.178   7.691  0.00  0.00    +0.045 A 
ENDBRANCH  25  27
ENDBRANCH   6  25
ENDBRANCH  19  22
ENDBRANCH  14  19
TORSDOF 7
ENDMDL
MODEL 3
REMARK VINA RESULT:      -6.7     25.842     30.107
REMARK  Name = 45784418
REMARK  10 active torsions:
REMARK  status: ('A' for Active; 'I' for Inactive)
REMARK    1  A    between atoms: O_2  and  C_11
REMARK    2  A    between atoms: N_5  and  C_15
REMARK    3  A    between atoms: N_6  and  C_25
REMARK    4  A    between atoms: C_8  and  C_18
REMARK    5  A    between atoms: C_10  and  C_20
REMARK    6  A    between atoms: C_14  and  C_19
REMARK    7  A    between atoms: C_19  and  C_21
REMARK    8  A    between atoms: C_19  and  C_22
REMARK    9  A    between atoms: C_23  and  C_24
REMARK   10  A    between atoms: C_25  and  C_27
REMARK                            x       y       z     vdW  Elec       q    Type
REMARK                         _______ _______ _______ _____ _____    ______ ____
ROOT
ATOM      8  C   UNL     1       9.431   6.104   6.179  0.00  0.00    -0.027 C 
ATOM      9  C   UNL     1      10.462   7.194   5.734  0.00  0.00    +0.028 C 
ATOM     10  C   UNL     1       9.985   8.626   6.171  0.00  0.00    +0.012 C 
ATOM     11  C   UNL     1      10.829   7.043   4.230  0.00  0.00    +0.122 C 
ATOM     12  C   UNL     1       9.983   4.701   5.835  0.00  0.00    +0.007 C 
ATOM     13  C   UNL     1       9.252   6.176   7.714  0.00  0.00    +0.009 C 
ATOM     14  C   UNL     1      11.281   5.609   3.870  0.00  0.00    +0.029 C 
ATOM     15  C   UNL     1       9.736   8.666   7.706  0.00  0.00    +0.076 C 
ATOM     16  C   UNL     1      10.306   4.536   4.356  0.00  0.00    +0.007 C 
ATOM     17  C   UNL     1       8.815   7.551   8.200  0.00  0.00    +0.023 C 
ATOM     18  C   UNL     1       8.050   6.278   5.497  0.00  0.00    +0.011 C 
ATOM     20  C   UNL     1      10.967   9.746   5.789  0.00  0.00    +0.010 C 
ENDROOT
BRANCH  15   5
ATOM      4  O   UNL     1      11.069  10.686   9.251  0.00  0.00    -0.269 OA
ATOM      5  N   UNL     1       9.184   9.937   8.127  0.00  0.00    -0.307 N 
ATOM     23  C   UNL     1       9.911  10.847   8.874  0.00  0.00    +0.263 C 
ATOM     34  H   UNL     1       8.211  10.136   7.912  0.00  0.00    +0.149 HD
BRANCH  23  24
ATOM      7  N   UNL     1       8.423  12.015  10.357  0.00  0.00    -0.250 NA
ATOM     24  C   UNL     1       9.194  12.093   9.248  0.00  0.00    +0.125 A 
ATOM     26  C   UNL     1       9.334  13.238   8.480  0.00  0.00    +0.033 A 
ATOM     28  C   UNL     1       8.641  14.376   8.876  0.00  0.00    +0.004 A 
ATOM     29  C   UNL     1       7.764  13.142  10.710  0.00  0.00    +0.111 A 
ATOM     31  C   UNL     1       7.839  14.336  10.011  0.00  0.00    +0.020 A 
ENDBRANCH  23  24
ENDBRANCH  15   5
BRANCH  11   2
ATOM      2  O   UNL     1      11.921   7.907   3.915  0.00  0.00    -0.391 OA
ATOM     35  H   UNL     1      12.361   7.559   3.120  0.00  0.00    +0.210 HD
ENDBRANCH  11   2
BRANCH  14  19
ATOM     19  C   UNL     1      11.512   5.446   2.363  0.00  0.00    +0.077 C 
ATOM     21  C   UNL     1      10.725   4.250   1.838  0.00  0.00    +0.017 C 
BRANCH  19  22
ATOM      3  O   UNL     1      13.785   6.245   2.119  0.00  0.00    -0.276 OA
ATOM      6  N   UNL     1      13.359   3.992   1.773  0.00  0.00    -0.310 N 
ATOM     22  C   UNL     1      13.003   5.298   2.078  0.00  0.00    +0.216 C 
ATOM     36  H   UNL     1      12.641   3.274   1.737  0.00  0.00    +0.149 HD
BRANCH   6  25
ATOM     25  C   UNL     1      14.716   3.604   1.465  0.00  0.00    +0.146 C 
BRANCH  25  27
ATOM      1  S   UNL     1      13.912   4.061  -1.154  0.00  0.00    -0.100 S 
ATOM     27  C   UNL     1      15.108   3.996   0.070  0.00  0.00    +0.007 A 
ATOM     30  C   UNL     1      16.356   4.331  -0.408  0.00  0.00    +0.013 A 
ATOM     32  C   UNL     1      16.330   4.646  -1.798  0.00  0.00    +0.008 A 
ATOM     33  C   UNL     1      15.063   4.540  -2.329  0.00  0.00    +0.045 A 
ENDBRANCH  25  27
ENDBRANCH   6  25
ENDBRANCH  19  22
ENDBRANCH  14  19
TORSDOF 7
ENDMDL
MODEL 4
REMARK VINA RESULT:      -6.6     18.154     19.539
REMARK  Name = 45784418
REMARK  10 active torsions:
REMARK  status: ('A' for Active; 'I' for Inactive)
REMARK    1  A    between atoms: O_2  and  C_11
REMARK    2  A    between atoms: N_5  and  C_15
REMARK    3  A    between atoms: N_6  and  C_25
REMARK    4  A    between atoms: C_8  and  C_18
REMARK    5  A    between atoms: C_10  and  C_20
REMARK    6  A    between atoms: C_14  and  C_19
REMARK    7  A    between atoms: C_19  and  C_21
REMARK    8  A    between atoms: C_19  and  C_22
REMARK    9  A    between atoms: C_23  and  C_24
REMARK   10  A    between atoms: C_25  and  C_27
REMARK                            x       y       z     vdW  Elec       q    Type
REMARK                         _______ _______ _______ _____ _____    ______ ____
ROOT
ATOM      8  C   UNL     1      -4.778 -11.284  17.188  0.00  0.00    -0.027 C 
ATOM      9  C   UNL     1      -5.757 -10.483  16.268  0.00  0.00    +0.028 C 
ATOM     10  C   UNL     1      -7.220 -10.520  16.842  0.00  0.00    +0.012 C 
ATOM     11  C   UNL     1      -5.613 -10.914  14.780  0.00  0.00    +0.122 C 
ATOM     12  C   UNL     1      -3.333 -11.134  16.658  0.00  0.00    +0.007 C 
ATOM     13  C   UNL     1      -4.820 -10.685  18.613  0.00  0.00    +0.009 C 
ATOM     14  C   UNL     1      -4.149 -10.862  14.286  0.00  0.00    +0.029 C 
ATOM     15  C   UNL     1      -7.238  -9.984  18.302  0.00  0.00    +0.076 C 
ATOM     16  C   UNL     1      -3.179 -11.592  15.214  0.00  0.00    +0.007 C 
ATOM     17  C   UNL     1      -6.220 -10.669  19.213  0.00  0.00    +0.023 C 
ATOM     18  C   UNL     1      -5.128 -12.792  17.259  0.00  0.00    +0.011 C 
ATOM     20  C   UNL     1      -8.232  -9.726  16.000  0.00  0.00    +0.010 C 
ENDROOT
BRANCH  15   5
ATOM      4  O   UNL     1      -8.457 -12.402  19.258  0.00  0.00    -0.269 OA
ATOM      5  N   UNL     1      -8.550 -10.112  18.903  0.00  0.00    -0.307 N 
ATOM     23  C   UNL     1      -9.050 -11.329  19.333  0.00  0.00    +0.263 C 
ATOM     34  H   UNL     1      -9.140  -9.287  18.955  0.00  0.00    +0.149 HD
BRANCH  23  24
ATOM      7  N   UNL     1     -10.894 -12.479  20.361  0.00  0.00    -0.250 NA
ATOM     24  C   UNL     1     -10.421 -11.297  19.903  0.00  0.00    +0.125 A 
ATOM     26  C   UNL     1     -11.135 -10.110  19.941  0.00  0.00    +0.033 A 
ATOM     28  C   UNL     1     -12.414 -10.136  20.485  0.00  0.00    +0.004 A 
ATOM     29  C   UNL     1     -12.141 -12.466  20.883  0.00  0.00    +0.111 A 
ATOM     31  C   UNL     1     -12.934 -11.332  20.967  0.00  0.00    +0.020 A 
ENDBRANCH  23  24
ENDBRANCH  15   5
BRANCH  11   2
ATOM      2  O   UNL     1      -6.357 -10.022  13.950  0.00  0.00    -0.391 OA
ATOM     35  H   UNL     1      -7.145 -10.494  13.631  0.00  0.00    +0.210 HD
ENDBRANCH  11   2
BRANCH  14  19
ATOM     19  C   UNL     1      -4.009 -11.413  12.861  0.00  0.00    +0.077 C 
ATOM     21  C   UNL     1      -2.904 -12.463  12.812  0.00  0.00    +0.017 C 
BRANCH  19  22
ATOM      3  O   UNL     1      -2.600  -9.953  11.539  0.00  0.00    -0.276 OA
ATOM      6  N   UNL     1      -4.898  -9.653  11.453  0.00  0.00    -0.310 N 
ATOM     22  C   UNL     1      -3.735 -10.272  11.886  0.00  0.00    +0.216 C 
ATOM     36  H   UNL     1      -5.795  -9.967  11.813  0.00  0.00    +0.149 HD
BRANCH   6  25
ATOM     25  C   UNL     1      -4.894  -8.544  10.527  0.00  0.00    +0.146 C 
BRANCH  25  27
ATOM      1  S   UNL     1      -7.055  -8.351   8.792  0.00  0.00    -0.100 S 
ATOM     27  C   UNL     1      -5.492  -8.919   9.201  0.00  0.00    +0.007 A 
ATOM     30  C   UNL     1      -4.946  -9.694   8.203  0.00  0.00    +0.013 A 
ATOM     32  C   UNL     1      -5.823  -9.824   7.087  0.00  0.00    +0.008 A 
ATOM     33  C   UNL     1      -7.004  -9.143   7.275  0.00  0.00    +0.045 A 
ENDBRANCH  25  27
ENDBRANCH   6  25
ENDBRANCH  19  22
ENDBRANCH  14  19
TORSDOF 7
ENDMDL
MODEL 5
REMARK VINA RESULT:      -6.5     19.761     22.560
REMARK  Name = 45784418
REMARK  10 active torsions:
REMARK  status: ('A' for Active; 'I' for Inactive)
REMARK    1  A    between atoms: O_2  and  C_11
REMARK    2  A    between atoms: N_5  and  C_15
REMARK    3  A    between atoms: N_6  and  C_25
REMARK    4  A    between atoms: C_8  and  C_18
REMARK    5  A    between atoms: C_10  and  C_20
REMARK    6  A    between atoms: C_14  and  C_19
REMARK    7  A    between atoms: C_19  and  C_21
REMARK    8  A    between atoms: C_19  and  C_22
REMARK    9  A    between atoms: C_23  and  C_24
REMARK   10  A    between atoms: C_25  and  C_27
REMARK                            x       y       z     vdW  Elec       q    Type
REMARK                         _______ _______ _______ _____ _____    ______ ____
ROOT
ATOM      8  C   UNL     1      -3.217 -11.451  11.787  0.00  0.00    -0.027 C 
ATOM      9  C   UNL     1      -4.567 -10.950  12.402  0.00  0.00    +0.028 C 
ATOM     10  C   UNL     1      -5.322 -10.006  11.398  0.00  0.00    +0.012 C 
ATOM     11  C   UNL     1      -4.356 -10.373  13.831  0.00  0.00    +0.122 C 
ATOM     12  C   UNL     1      -2.556 -12.464  12.751  0.00  0.00    +0.007 C 
ATOM     13  C   UNL     1      -3.510 -12.188  10.460  0.00  0.00    +0.009 C 
ATOM     14  C   UNL     1      -3.601 -11.351  14.761  0.00  0.00    +0.029 C 
ATOM     15  C   UNL     1      -5.545 -10.732  10.040  0.00  0.00    +0.076 C 
ATOM     16  C   UNL     1      -2.312 -11.889  14.141  0.00  0.00    +0.007 C 
ATOM     17  C   UNL     1      -4.266 -11.330   9.454  0.00  0.00    +0.023 C 
ATOM     18  C   UNL     1      -2.221 -10.295  11.519  0.00  0.00    +0.011 C 
ATOM     20  C   UNL     1      -6.673  -9.498  11.927  0.00  0.00    +0.010 C 
ENDROOT
BRANCH  15   5
ATOM      4  O   UNL     1      -7.690 -11.368   8.241  0.00  0.00    -0.269 OA
ATOM      5  N   UNL     1      -6.134  -9.852   9.053  0.00  0.00    -0.307 N 
ATOM     23  C   UNL     1      -7.170 -10.255   8.228  0.00  0.00    +0.263 C 
ATOM     34  H   UNL     1      -5.730  -8.928   8.927  0.00  0.00    +0.149 HD
BRANCH  23  24
ATOM      7  N   UNL     1      -8.668  -8.461   7.665  0.00  0.00    -0.250 NA
ATOM     24  C   UNL     1      -7.646  -9.244   7.250  0.00  0.00    +0.125 A 
ATOM     26  C   UNL     1      -7.053  -9.147   6.001  0.00  0.00    +0.033 A 
ATOM     28  C   UNL     1      -7.537  -8.183   5.124  0.00  0.00    +0.004 A 
ATOM     29  C   UNL     1      -9.112  -7.536   6.785  0.00  0.00    +0.111 A 
ATOM     31  C   UNL     1      -8.586  -7.358   5.515  0.00  0.00    +0.020 A 
ENDBRANCH  23  24
ENDBRANCH  15   5
BRANCH  11   2
ATOM      2  O   UNL     1      -5.625 -10.128  14.439  0.00  0.00    -0.391 OA
ATOM     35  H   UNL     1      -6.144 -10.950  14.395  0.00  0.00    +0.210 HD
ENDBRANCH  11   2
BRANCH  14  19
ATOM     19  C   UNL     1      -3.289 -10.715  16.122  0.00  0.00    +0.077 C 
ATOM     21  C   UNL     1      -1.782 -10.685  16.352  0.00  0.00    +0.017 C 
BRANCH  19  22
ATOM      3  O   UNL     1      -3.595 -11.511  18.388  0.00  0.00    -0.276 OA
ATOM      6  N   UNL     1      -5.149 -12.122  16.779  0.00  0.00    -0.310 N 
ATOM     22  C   UNL     1      -4.005 -11.480  17.230  0.00  0.00    +0.216 C 
ATOM     36  H   UNL     1      -5.401 -12.063  15.795  0.00  0.00    +0.149 HD
BRANCH   6  25
ATOM     25  C   UNL     1      -5.995 -12.911  17.643  0.00  0.00    +0.146 C 
BRANCH  25  27
ATOM      1  S   UNL     1      -7.953 -12.635  19.593  0.00  0.00    -0.100 S 
ATOM     27  C   UNL     1      -7.156 -12.118  18.169  0.00  0.00    +0.007 A 
ATOM     30  C   UNL     1      -7.714 -10.969  17.654  0.00  0.00    +0.013 A 
ATOM     32  C   UNL     1      -8.810 -10.507  18.438  0.00  0.00    +0.008 A 
ATOM     33  C   UNL     1      -9.049 -11.320  19.523  0.00  0.00    +0.045 A 
ENDBRANCH  25  27
ENDBRANCH   6  25
ENDBRANCH  19  22
ENDBRANCH  14  19
TORSDOF 7
ENDMDL
MODEL 6
REMARK VINA RESULT:      -6.5     18.469     19.907
REMARK  Name = 45784418
REMARK  10 active torsions:
REMARK  status: ('A' for Active; 'I' for Inactive)
REMARK    1  A    between atoms: O_2  and  C_11
REMARK    2  A    between atoms: N_5  and  C_15
REMARK    3  A    between atoms: N_6  and  C_25
REMARK    4  A    between atoms: C_8  and  C_18
REMARK    5  A    between atoms: C_10  and  C_20
REMARK    6  A    between atoms: C_14  and  C_19
REMARK    7  A    between atoms: C_19  and  C_21
REMARK    8  A    between atoms: C_19  and  C_22
REMARK    9  A    between atoms: C_23  and  C_24
REMARK   10  A    between atoms: C_25  and  C_27
REMARK                            x       y       z     vdW  Elec       q    Type
REMARK                         _______ _______ _______ _____ _____    ______ ____
ROOT
ATOM      8  C   UNL     1      -4.455 -10.497  10.947  0.00  0.00    -0.027 C 
ATOM      9  C   UNL     1      -5.848  -9.862  11.266  0.00  0.00    +0.028 C 
ATOM     10  C   UNL     1      -6.457 -10.479  12.577  0.00  0.00    +0.012 C 
ATOM     11  C   UNL     1      -6.780  -9.889  10.020  0.00  0.00    +0.122 C 
ATOM     12  C   UNL     1      -3.834  -9.790   9.719  0.00  0.00    +0.007 C 
ATOM     13  C   UNL     1      -3.508 -10.268  12.149  0.00  0.00    +0.009 C 
ATOM     14  C   UNL     1      -6.114  -9.274   8.768  0.00  0.00    +0.029 C 
ATOM     15  C   UNL     1      -5.465 -10.310  13.763  0.00  0.00    +0.076 C 
ATOM     16  C   UNL     1      -4.727  -9.849   8.486  0.00  0.00    +0.007 C 
ATOM     17  C   UNL     1      -4.059 -10.823  13.456  0.00  0.00    +0.023 C 
ATOM     18  C   UNL     1      -4.547 -12.016  10.653  0.00  0.00    +0.011 C 
ATOM     20  C   UNL     1      -7.818  -9.878  12.967  0.00  0.00    +0.010 C 
ENDROOT
BRANCH  15   5
ATOM      4  O   UNL     1      -5.592  -9.189  16.403  0.00  0.00    -0.269 OA
ATOM      5  N   UNL     1      -5.943 -10.970  14.959  0.00  0.00    -0.307 N 
ATOM     23  C   UNL     1      -5.963 -10.341  16.192  0.00  0.00    +0.263 C 
ATOM     34  H   UNL     1      -6.218 -11.946  14.896  0.00  0.00    +0.149 HD
BRANCH  23  24
ATOM      7  N   UNL     1      -7.190 -12.249  16.990  0.00  0.00    -0.250 NA
ATOM     24  C   UNL     1      -6.458 -11.162  17.327  0.00  0.00    +0.125 A 
ATOM     26  C   UNL     1      -6.165 -10.799  18.632  0.00  0.00    +0.033 A 
ATOM     28  C   UNL     1      -6.652 -11.603  19.656  0.00  0.00    +0.004 A 
ATOM     29  C   UNL     1      -7.647 -13.006  18.013  0.00  0.00    +0.111 A 
ATOM     31  C   UNL     1      -7.408 -12.729  19.350  0.00  0.00    +0.020 A 
ENDBRANCH  23  24
ENDBRANCH  15   5
BRANCH  11   2
ATOM      2  O   UNL     1      -7.951  -9.116  10.282  0.00  0.00    -0.391 OA
ATOM     35  H   UNL     1      -8.061  -8.479   9.555  0.00  0.00    +0.210 HD
ENDBRANCH  11   2
BRANCH  14  19
ATOM     19  C   UNL     1      -6.995  -9.428   7.522  0.00  0.00    +0.077 C 
ATOM     21  C   UNL     1      -6.221 -10.139   6.417  0.00  0.00    +0.017 C 
BRANCH  19  22
ATOM      3  O   UNL     1      -7.712  -7.796   5.883  0.00  0.00    -0.276 OA
ATOM      6  N   UNL     1      -7.650  -7.172   8.115  0.00  0.00    -0.310 N 
ATOM     22  C   UNL     1      -7.489  -8.060   7.062  0.00  0.00    +0.216 C 
ATOM     36  H   UNL     1      -7.417  -7.468   9.059  0.00  0.00    +0.149 HD
BRANCH   6  25
ATOM     25  C   UNL     1      -8.107  -5.814   7.929  0.00  0.00    +0.146 C 
BRANCH  25  27
ATOM      1  S   UNL     1     -10.424  -6.921   8.987  0.00  0.00    -0.100 S 
ATOM     27  C   UNL     1      -9.445  -5.580   8.568  0.00  0.00    +0.007 A 
ATOM     30  C   UNL     1     -10.044  -4.382   8.890  0.00  0.00    +0.013 A 
ATOM     32  C   UNL     1     -11.324  -4.568   9.488  0.00  0.00    +0.008 A 
ATOM     33  C   UNL     1     -11.654  -5.900   9.601  0.00  0.00    +0.045 A 
ENDBRANCH  25  27
ENDBRANCH   6  25
ENDBRANCH  19  22
ENDBRANCH  14  19
TORSDOF 7
ENDMDL
MODEL 7
REMARK VINA RESULT:      -6.4     31.127     34.289
REMARK  Name = 45784418
REMARK  10 active torsions:
REMARK  status: ('A' for Active; 'I' for Inactive)
REMARK    1  A    between atoms: O_2  and  C_11
REMARK    2  A    between atoms: N_5  and  C_15
REMARK    3  A    between atoms: N_6  and  C_25
REMARK    4  A    between atoms: C_8  and  C_18
REMARK    5  A    between atoms: C_10  and  C_20
REMARK    6  A    between atoms: C_14  and  C_19
REMARK    7  A    between atoms: C_19  and  C_21
REMARK    8  A    between atoms: C_19  and  C_22
REMARK    9  A    between atoms: C_23  and  C_24
REMARK   10  A    between atoms: C_25  and  C_27
REMARK                            x       y       z     vdW  Elec       q    Type
REMARK                         _______ _______ _______ _____ _____    ______ ____
ROOT
ATOM      8  C   UNL     1      20.119   7.785  21.809  0.00  0.00    -0.027 C 
ATOM      9  C   UNL     1      19.576   6.791  20.729  0.00  0.00    +0.028 C 
ATOM     10  C   UNL     1      18.010   6.684  20.805  0.00  0.00    +0.012 C 
ATOM     11  C   UNL     1      20.340   5.436  20.774  0.00  0.00    +0.122 C 
ATOM     12  C   UNL     1      21.647   7.952  21.633  0.00  0.00    +0.007 C 
ATOM     13  C   UNL     1      19.467   9.170  21.593  0.00  0.00    +0.009 C 
ATOM     14  C   UNL     1      21.874   5.617  20.703  0.00  0.00    +0.029 C 
ATOM     15  C   UNL     1      17.367   8.093  20.662  0.00  0.00    +0.076 C 
ATOM     16  C   UNL     1      22.403   6.632  21.716  0.00  0.00    +0.007 C 
ATOM     17  C   UNL     1      17.945   9.125  21.629  0.00  0.00    +0.023 C 
ATOM     18  C   UNL     1      19.833   7.306  23.255  0.00  0.00    +0.011 C 
ATOM     20  C   UNL     1      17.405   5.743  19.750  0.00  0.00    +0.010 C 
ENDROOT
BRANCH  15   5
ATOM      4  O   UNL     1      15.395   9.431  19.061  0.00  0.00    -0.269 OA
ATOM      5  N   UNL     1      15.932   8.048  20.843  0.00  0.00    -0.307 N 
ATOM     23  C   UNL     1      15.060   8.732  20.014  0.00  0.00    +0.263 C 
ATOM     34  H   UNL     1      15.561   7.542  21.642  0.00  0.00    +0.149 HD
BRANCH  23  24
ATOM      7  N   UNL     1      13.339   8.301  21.636  0.00  0.00    -0.250 NA
ATOM     24  C   UNL     1      13.618   8.606  20.348  0.00  0.00    +0.125 A 
ATOM     26  C   UNL     1      12.654   8.795  19.370  0.00  0.00    +0.033 A 
ATOM     28  C   UNL     1      11.320   8.664  19.737  0.00  0.00    +0.004 A 
ATOM     29  C   UNL     1      12.030   8.182  21.956  0.00  0.00    +0.111 A 
ATOM     31  C   UNL     1      10.994   8.352  21.053  0.00  0.00    +0.020 A 
ENDBRANCH  23  24
ENDBRANCH  15   5
BRANCH  11   2
ATOM      2  O   UNL     1      19.970   4.642  19.647  0.00  0.00    -0.391 OA
ATOM     35  H   UNL     1      20.619   4.801  18.939  0.00  0.00    +0.210 HD
ENDBRANCH  11   2
BRANCH  14  19
ATOM     19  C   UNL     1      22.613   4.285  20.880  0.00  0.00    +0.077 C 
ATOM     21  C   UNL     1      22.145   3.590  22.154  0.00  0.00    +0.017 C 
BRANCH  19  22
ATOM      3  O   UNL     1      24.773   4.560  21.939  0.00  0.00    -0.276 OA
ATOM      6  N   UNL     1      24.647   4.693  19.627  0.00  0.00    -0.310 N 
ATOM     22  C   UNL     1      24.120   4.524  20.899  0.00  0.00    +0.216 C 
ATOM     36  H   UNL     1      24.027   4.672  18.822  0.00  0.00    +0.149 HD
BRANCH   6  25
ATOM     25  C   UNL     1      26.051   4.935  19.389  0.00  0.00    +0.146 C 
BRANCH  25  27
ATOM      1  S   UNL     1      27.155   6.552  17.420  0.00  0.00    -0.100 S 
ATOM     27  C   UNL     1      26.304   6.327  18.889  0.00  0.00    +0.007 A 
ATOM     30  C   UNL     1      25.936   7.525  19.461  0.00  0.00    +0.013 A 
ATOM     32  C   UNL     1      26.358   8.642  18.683  0.00  0.00    +0.008 A 
ATOM     33  C   UNL     1      27.032   8.255  17.546  0.00  0.00    +0.045 A 
ENDBRANCH  25  27
ENDBRANCH   6  25
ENDBRANCH  19  22
ENDBRANCH  14  19
TORSDOF 7
ENDMDL
MODEL 8
REMARK VINA RESULT:      -6.3     25.963     29.741
REMARK  Name = 45784418
REMARK  10 active torsions:
REMARK  status: ('A' for Active; 'I' for Inactive)
REMARK    1  A    between atoms: O_2  and  C_11
REMARK    2  A    between atoms: N_5  and  C_15
REMARK    3  A    between atoms: N_6  and  C_25
REMARK    4  A    between atoms: C_8  and  C_18
REMARK    5  A    between atoms: C_10  and  C_20
REMARK    6  A    between atoms: C_14  and  C_19
REMARK    7  A    between atoms: C_19  and  C_21
REMARK    8  A    between atoms: C_19  and  C_22
REMARK    9  A    between atoms: C_23  and  C_24
REMARK   10  A    between atoms: C_25  and  C_27
REMARK                            x       y       z     vdW  Elec       q    Type
REMARK                         _______ _______ _______ _____ _____    ______ ____
ROOT
ATOM      8  C   UNL     1       9.489   6.034   6.105  0.00  0.00    -0.027 C 
ATOM      9  C   UNL     1      10.467   7.184   5.691  0.00  0.00    +0.028 C 
ATOM     10  C   UNL     1       9.931   8.577   6.180  0.00  0.00    +0.012 C 
ATOM     11  C   UNL     1      10.828   7.100   4.180  0.00  0.00    +0.122 C 
ATOM     12  C   UNL     1      10.101   4.670   5.710  0.00  0.00    +0.007 C 
ATOM     13  C   UNL     1       9.320   6.046   7.643  0.00  0.00    +0.009 C 
ATOM     14  C   UNL     1      11.341   5.701   3.768  0.00  0.00    +0.029 C 
ATOM     15  C   UNL     1       9.693   8.554   7.717  0.00  0.00    +0.076 C 
ATOM     16  C   UNL     1      10.419   4.570   4.224  0.00  0.00    +0.007 C 
ATOM     17  C   UNL     1       8.827   7.383   8.179  0.00  0.00    +0.023 C 
ATOM     18  C   UNL     1       8.097   6.169   5.439  0.00  0.00    +0.011 C 
ATOM     20  C   UNL     1      10.859   9.752   5.830  0.00  0.00    +0.010 C 
ENDROOT
BRANCH  15   5
ATOM      4  O   UNL     1      10.965  10.604   9.274  0.00  0.00    -0.269 OA
ATOM      5  N   UNL     1       9.089   9.783   8.185  0.00  0.00    -0.307 N 
ATOM     23  C   UNL     1       9.790  10.713   8.933  0.00  0.00    +0.263 C 
ATOM     34  H   UNL     1       8.101   9.936   8.002  0.00  0.00    +0.149 HD
BRANCH  23  24
ATOM      7  N   UNL     1       8.752  12.812   8.387  0.00  0.00    -0.250 NA
ATOM     24  C   UNL     1       9.020  11.910   9.359  0.00  0.00    +0.125 A 
ATOM     26  C   UNL     1       8.624  12.054  10.680  0.00  0.00    +0.033 A 
ATOM     28  C   UNL     1       7.907  13.193  11.024  0.00  0.00    +0.004 A 
ATOM     29  C   UNL     1       8.053  13.908   8.760  0.00  0.00    +0.111 A 
ATOM     31  C   UNL     1       7.611  14.143  10.052  0.00  0.00    +0.020 A 
ENDBRANCH  23  24
ENDBRANCH  15   5
BRANCH  11   2
ATOM      2  O   UNL     1      11.878   8.022   3.888  0.00  0.00    -0.391 OA
ATOM     35  H   UNL     1      12.390   7.669   3.139  0.00  0.00    +0.210 HD
ENDBRANCH  11   2
BRANCH  14  19
ATOM     19  C   UNL     1      11.567   5.600   2.255  0.00  0.00    +0.077 C 
ATOM     21  C   UNL     1      11.585   4.137   1.824  0.00  0.00    +0.017 C 
BRANCH  19  22
ATOM      3  O   UNL     1      12.969   7.003   0.867  0.00  0.00    -0.276 OA
ATOM      6  N   UNL     1      13.884   6.072   2.784  0.00  0.00    -0.310 N 
ATOM     22  C   UNL     1      12.863   6.307   1.874  0.00  0.00    +0.216 C 
ATOM     36  H   UNL     1      13.714   5.461   3.578  0.00  0.00    +0.149 HD
BRANCH   6  25
ATOM     25  C   UNL     1      15.207   6.633   2.637  0.00  0.00    +0.146 C 
BRANCH  25  27
ATOM      1  S   UNL     1      17.046   8.347   3.817  0.00  0.00    -0.100 S 
ATOM     27  C   UNL     1      15.650   7.357   3.875  0.00  0.00    +0.007 A 
ATOM     30  C   UNL     1      15.074   7.348   5.126  0.00  0.00    +0.013 A 
ATOM     32  C   UNL     1      15.788   8.165   6.050  0.00  0.00    +0.008 A 
ATOM     33  C   UNL     1      16.882   8.767   5.470  0.00  0.00    +0.045 A 
ENDBRANCH  25  27
ENDBRANCH   6  25
ENDBRANCH  19  22
ENDBRANCH  14  19
TORSDOF 7
ENDMDL
MODEL 9
REMARK VINA RESULT:      -6.2     19.556     21.086
REMARK  Name = 45784418
REMARK  10 active torsions:
REMARK  status: ('A' for Active; 'I' for Inactive)
REMARK    1  A    between atoms: O_2  and  C_11
REMARK    2  A    between atoms: N_5  and  C_15
REMARK    3  A    between atoms: N_6  and  C_25
REMARK    4  A    between atoms: C_8  and  C_18
REMARK    5  A    between atoms: C_10  and  C_20
REMARK    6  A    between atoms: C_14  and  C_19
REMARK    7  A    between atoms: C_19  and  C_21
REMARK    8  A    between atoms: C_19  and  C_22
REMARK    9  A    between atoms: C_23  and  C_24
REMARK   10  A    between atoms: C_25  and  C_27
REMARK                            x       y       z     vdW  Elec       q    Type
REMARK                         _______ _______ _______ _____ _____    ______ ____
ROOT
ATOM      8  C   UNL     1      -4.908 -11.277  17.817  0.00  0.00    -0.027 C 
ATOM      9  C   UNL     1      -5.656 -12.402  17.028  0.00  0.00    +0.028 C 
ATOM     10  C   UNL     1      -6.515 -13.290  17.999  0.00  0.00    +0.012 C 
ATOM     11  C   UNL     1      -4.682 -13.181  16.097  0.00  0.00    +0.122 C 
ATOM     12  C   UNL     1      -4.164 -10.356  16.822  0.00  0.00    +0.007 C 
ATOM     13  C   UNL     1      -5.947 -10.414  18.571  0.00  0.00    +0.009 C 
ATOM     14  C   UNL     1      -3.864 -12.246  15.177  0.00  0.00    +0.029 C 
ATOM     15  C   UNL     1      -7.505 -12.402  18.806  0.00  0.00    +0.076 C 
ATOM     16  C   UNL     1      -3.181 -11.110  15.936  0.00  0.00    +0.007 C 
ATOM     17  C   UNL     1      -6.829 -11.226  19.509  0.00  0.00    +0.023 C 
ATOM     18  C   UNL     1      -3.884 -11.844  18.833  0.00  0.00    +0.011 C 
ATOM     20  C   UNL     1      -7.301 -14.402  17.284  0.00  0.00    +0.010 C 
ENDROOT
BRANCH  15   5
ATOM      4  O   UNL     1     -10.255 -12.063  19.558  0.00  0.00    -0.269 OA
ATOM      5  N   UNL     1      -8.231 -13.171  19.794  0.00  0.00    -0.307 N 
ATOM     23  C   UNL     1      -9.562 -12.929  20.086  0.00  0.00    +0.263 C 
ATOM     34  H   UNL     1      -7.726 -13.873  20.327  0.00  0.00    +0.149 HD
BRANCH  23  24
ATOM      7  N   UNL     1      -9.353 -14.759  21.631  0.00  0.00    -0.250 NA
ATOM     24  C   UNL     1     -10.157 -13.787  21.143  0.00  0.00    +0.125 A 
ATOM     26  C   UNL     1     -11.458 -13.571  21.570  0.00  0.00    +0.033 A 
ATOM     28  C   UNL     1     -11.965 -14.403  22.561  0.00  0.00    +0.004 A 
ATOM     29  C   UNL     1      -9.881 -15.549  22.594  0.00  0.00    +0.111 A 
ATOM     31  C   UNL     1     -11.168 -15.413  23.088  0.00  0.00    +0.020 A 
ENDBRANCH  23  24
ENDBRANCH  15   5
BRANCH  11   2
ATOM      2  O   UNL     1      -5.428 -14.047  15.242  0.00  0.00    -0.391 OA
ATOM     35  H   UNL     1      -4.800 -14.623  14.773  0.00  0.00    +0.210 HD
ENDBRANCH  11   2
BRANCH  14  19
ATOM     19  C   UNL     1      -2.820 -13.019  14.363  0.00  0.00    +0.077 C 
ATOM     21  C   UNL     1      -1.546 -12.192  14.223  0.00  0.00    +0.017 C 
BRANCH  19  22
ATOM      3  O   UNL     1      -3.986 -14.446  12.792  0.00  0.00    -0.276 OA
ATOM      6  N   UNL     1      -3.167 -12.410  12.043  0.00  0.00    -0.310 N 
ATOM     22  C   UNL     1      -3.393 -13.390  12.998  0.00  0.00    +0.216 C 
ATOM     36  H   UNL     1      -2.644 -11.576  12.297  0.00  0.00    +0.149 HD
BRANCH   6  25
ATOM     25  C   UNL     1      -3.614 -12.534  10.675  0.00  0.00    +0.146 C 
BRANCH  25  27
ATOM      1  S   UNL     1      -4.938 -11.082   8.713  0.00  0.00    -0.100 S 
ATOM     27  C   UNL     1      -3.868 -11.195  10.045  0.00  0.00    +0.007 A 
ATOM     30  C   UNL     1      -3.343  -9.970  10.391  0.00  0.00    +0.013 A 
ATOM     32  C   UNL     1      -3.825  -8.925   9.552  0.00  0.00    +0.008 A 
ATOM     33  C   UNL     1      -4.701  -9.390   8.597  0.00  0.00    +0.045 A 
ENDBRANCH  25  27
ENDBRANCH   6  25
ENDBRANCH  19  22
ENDBRANCH  14  19
TORSDOF 7
ENDMDL
MODEL 10
REMARK VINA RESULT:      -6.1     15.549     16.924
REMARK  Name = 45784418
REMARK  10 active torsions:
REMARK  status: ('A' for Active; 'I' for Inactive)
REMARK    1  A    between atoms: O_2  and  C_11
REMARK    2  A    between atoms: N_5  and  C_15
REMARK    3  A    between atoms: N_6  and  C_25
REMARK    4  A    between atoms: C_8  and  C_18
REMARK    5  A    between atoms: C_10  and  C_20
REMARK    6  A    between atoms: C_14  and  C_19
REMARK    7  A    between atoms: C_19  and  C_21
REMARK    8  A    between atoms: C_19  and  C_22
REMARK    9  A    between atoms: C_23  and  C_24
REMARK   10  A    between atoms: C_25  and  C_27
REMARK                            x       y       z     vdW  Elec       q    Type
REMARK                         _______ _______ _______ _____ _____    ______ ____
ROOT
ATOM      8  C   UNL     1     -11.298  -9.392  13.775  0.00  0.00    -0.027 C 
ATOM      9  C   UNL     1     -11.068  -8.259  14.829  0.00  0.00    +0.028 C 
ATOM     10  C   UNL     1     -10.175  -8.771  16.016  0.00  0.00    +0.012 C 
ATOM     11  C   UNL     1     -12.412  -7.593  15.244  0.00  0.00    +0.122 C 
ATOM     12  C   UNL     1     -12.082  -8.824  12.569  0.00  0.00    +0.007 C 
ATOM     13  C   UNL     1      -9.926  -9.882  13.255  0.00  0.00    +0.009 C 
ATOM     14  C   UNL     1     -13.241  -7.121  14.027  0.00  0.00    +0.029 C 
ATOM     15  C   UNL     1      -8.829  -9.331  15.474  0.00  0.00    +0.076 C 
ATOM     16  C   UNL     1     -13.417  -8.207  12.967  0.00  0.00    +0.007 C 
ATOM     17  C   UNL     1      -9.005 -10.368  14.366  0.00  0.00    +0.023 C 
ATOM     18  C   UNL     1     -12.081 -10.595  14.357  0.00  0.00    +0.011 C 
ATOM     20  C   UNL     1      -9.885  -7.698  17.078  0.00  0.00    +0.010 C 
ENDROOT
BRANCH  15   5
ATOM      4  O   UNL     1      -5.963  -9.475  15.575  0.00  0.00    -0.269 OA
ATOM      5  N   UNL     1      -8.030  -9.919  16.529  0.00  0.00    -0.307 N 
ATOM     23  C   UNL     1      -6.647  -9.939  16.484  0.00  0.00    +0.263 C 
ATOM     34  H   UNL     1      -8.508 -10.380  17.297  0.00  0.00    +0.149 HD
BRANCH  23  24
ATOM      7  N   UNL     1      -4.750 -11.118  17.374  0.00  0.00    -0.250 NA
ATOM     24  C   UNL     1      -5.974 -10.602  17.630  0.00  0.00    +0.125 A 
ATOM     26  C   UNL     1      -6.598 -10.666  18.866  0.00  0.00    +0.033 A 
ATOM     28  C   UNL     1      -5.924 -11.298  19.904  0.00  0.00    +0.004 A 
ATOM     29  C   UNL     1      -4.125 -11.725  18.408  0.00  0.00    +0.111 A 
ATOM     31  C   UNL     1      -4.664 -11.840  19.680  0.00  0.00    +0.020 A 
ENDBRANCH  23  24
ENDBRANCH  15   5
BRANCH  11   2
ATOM      2  O   UNL     1     -12.147  -6.434  16.033  0.00  0.00    -0.391 OA
ATOM     35  H   UNL     1     -11.221  -6.474  16.327  0.00  0.00    +0.210 HD
ENDBRANCH  11   2
BRANCH  14  19
ATOM     19  C   UNL     1     -14.616  -6.588  14.448  0.00  0.00    +0.077 C 
ATOM     21  C   UNL     1     -15.605  -7.740  14.589  0.00  0.00    +0.017 C 
BRANCH  19  22
ATOM      3  O   UNL     1     -16.150  -5.692  12.802  0.00  0.00    -0.276 OA
ATOM      6  N   UNL     1     -14.246  -4.474  13.322  0.00  0.00    -0.310 N 
ATOM     22  C   UNL     1     -15.106  -5.557  13.436  0.00  0.00    +0.216 C 
ATOM     36  H   UNL     1     -13.389  -4.457  13.868  0.00  0.00    +0.149 HD
BRANCH   6  25
ATOM     25  C   UNL     1     -14.496  -3.369  12.426  0.00  0.00    +0.146 C 
BRANCH  25  27
ATOM      1  S   UNL     1     -14.278  -3.232   9.660  0.00  0.00    -0.100 S 
ATOM     27  C   UNL     1     -13.599  -3.410  11.222  0.00  0.00    +0.007 A 
ATOM     30  C   UNL     1     -12.233  -3.578  11.175  0.00  0.00    +0.013 A 
ATOM     32  C   UNL     1     -11.737  -3.560   9.840  0.00  0.00    +0.008 A 
ATOM     33  C   UNL     1     -12.743  -3.379   8.916  0.00  0.00    +0.045 A 
ENDBRANCH  25  27
ENDBRANCH   6  25
ENDBRANCH  19  22
ENDBRANCH  14  19
TORSDOF 7
ENDMDL
