MODEL 1
REMARK VINA RESULT:      -5.7      0.000      0.000
REMARK  Name = 26743187
REMARK  9 active torsions:
REMARK  status: ('A' for Active; 'I' for Inactive)
REMARK    1  A    between atoms: O_3  and  C_27
REMARK    2  A    between atoms: O_3  and  C_31
REMARK    3  A    between atoms: C_7  and  C_10
REMARK    4  A    between atoms: C_8  and  C_14
REMARK    5  A    between atoms: C_10  and  C_19
REMARK    6  A    between atoms: C_12  and  C_20
REMARK    7  A    between atoms: C_14  and  C_21
REMARK    8  A    between atoms: C_20  and  C_22
REMARK    9  A    between atoms: C_24  and  C_27
REMARK                            x       y       z     vdW  Elec       q    Type
REMARK                         _______ _______ _______ _____ _____    ______ ____
ROOT
ATOM      5  N   UNL     1      -7.623 -12.638  20.355  0.00  0.00    -0.316 NA
ATOM      7  C   UNL     1      -7.304 -11.336  17.727  0.00  0.00    +0.004 C 
ATOM      8  C   UNL     1      -6.101 -11.810  18.577  0.00  0.00    +0.012 C 
ATOM      9  C   UNL     1      -8.547 -12.153  18.116  0.00  0.00    +0.019 C 
ATOM     11  C   UNL     1      -6.437 -11.828  20.078  0.00  0.00    +0.085 C 
ATOM     13  C   UNL     1      -8.794 -12.158  19.624  0.00  0.00    +0.081 C 
ATOM     37  H   UNL     1      -7.818 -12.619  21.356  0.00  0.00    +0.122 HD
ENDROOT
BRANCH   7  10
ATOM     10  C   UNL     1      -7.586  -9.832  17.830  0.00  0.00    +0.100 C 
BRANCH  10  19
ATOM      1  O   UNL     1      -9.783  -9.090  17.343  0.00  0.00    -0.276 OA
ATOM      4  N   UNL     1      -8.412  -9.538  15.521  0.00  0.00    -0.301 N 
ATOM     12  C   UNL     1      -8.372 -10.736  12.879  0.00  0.00    -0.004 C 
ATOM     15  C   UNL     1      -7.337 -11.107  13.953  0.00  0.00    +0.023 C 
ATOM     16  C   UNL     1      -9.680 -10.273  13.540  0.00  0.00    +0.023 C 
ATOM     17  C   UNL     1      -7.132  -9.964  14.945  0.00  0.00    +0.108 C 
ATOM     18  C   UNL     1      -9.425  -9.147  14.539  0.00  0.00    +0.108 C 
ATOM     19  C   UNL     1      -8.696  -9.451  16.884  0.00  0.00    +0.216 C 
BRANCH  12  20
ATOM     20  C   UNL     1      -8.625 -11.912  11.938  0.00  0.00    +0.038 C 
BRANCH  20  22
ATOM     22  C   UNL     1      -7.758 -11.837  10.711  0.00  0.00    -0.047 A 
ATOM     25  C   UNL     1      -8.061 -10.929   9.698  0.00  0.00    +0.003 A 
ATOM     26  C   UNL     1      -6.650 -12.676  10.588  0.00  0.00    +0.003 A 
ATOM     28  C   UNL     1      -7.257 -10.860   8.560  0.00  0.00    +0.000 A 
ATOM     29  C   UNL     1      -5.846 -12.606   9.451  0.00  0.00    +0.000 A 
ATOM     30  C   UNL     1      -6.150 -11.698   8.436  0.00  0.00    +0.000 A 
ENDBRANCH  20  22
ENDBRANCH  12  20
ENDBRANCH  10  19
ENDBRANCH   7  10
BRANCH   8  14
ATOM     14  C   UNL     1      -4.829 -11.000  18.321  0.00  0.00    +0.064 C 
BRANCH  14  21
ATOM      2  O   UNL     1      -3.822 -12.349  15.138  0.00  0.00    -0.356 OA
ATOM      6  N   UNL     1      -4.422 -12.460  16.387  0.00  0.00    -0.083 NA
ATOM     21  C   UNL     1      -4.286 -11.254  16.944  0.00  0.00    +0.084 A 
ATOM     23  C   UNL     1      -3.615 -10.350  16.103  0.00  0.00    +0.074 A 
ATOM     24  C   UNL     1      -3.346 -11.089  14.981  0.00  0.00    +0.175 A 
BRANCH  24  27
ATOM     27  C   UNL     1      -2.675 -10.795  13.708  0.00  0.00    +0.306 C 
BRANCH  27   3
ATOM      3  O   UNL     1      -3.455 -11.282  12.613  0.00  0.00    -0.484 OA
BRANCH   3  31
ATOM     31  C   UNL     1      -3.883 -10.351  11.709  0.00  0.00    +0.121 A 
ATOM     32  C   UNL     1      -5.023  -9.593  11.975  0.00  0.00    +0.045 A 
ATOM     33  C   UNL     1      -3.181 -10.161  10.519  0.00  0.00    +0.045 A 
ATOM     34  C   UNL     1      -5.460  -8.643  11.051  0.00  0.00    +0.004 A 
ATOM     35  C   UNL     1      -3.618  -9.212   9.595  0.00  0.00    +0.004 A 
ATOM     36  C   UNL     1      -4.759  -8.453   9.862  0.00  0.00    +0.000 A 
ENDBRANCH   3  31
ENDBRANCH  27   3
ENDBRANCH  24  27
ENDBRANCH  14  21
ENDBRANCH   8  14
TORSDOF 9
ENDMDL
MODEL 2
REMARK VINA RESULT:      -5.6      3.337      6.550
REMARK  Name = 26743187
REMARK  9 active torsions:
REMARK  status: ('A' for Active; 'I' for Inactive)
REMARK    1  A    between atoms: O_3  and  C_27
REMARK    2  A    between atoms: O_3  and  C_31
REMARK    3  A    between atoms: C_7  and  C_10
REMARK    4  A    between atoms: C_8  and  C_14
REMARK    5  A    between atoms: C_10  and  C_19
REMARK    6  A    between atoms: C_12  and  C_20
REMARK    7  A    between atoms: C_14  and  C_21
REMARK    8  A    between atoms: C_20  and  C_22
REMARK    9  A    between atoms: C_24  and  C_27
REMARK                            x       y       z     vdW  Elec       q    Type
REMARK                         _______ _______ _______ _____ _____    ______ ____
ROOT
ATOM      5  N   UNL     1      -7.970 -10.834  19.801  0.00  0.00    -0.316 NA
ATOM      7  C   UNL     1      -6.248 -10.434  17.440  0.00  0.00    +0.004 C 
ATOM      8  C   UNL     1      -7.667  -9.828  17.551  0.00  0.00    +0.012 C 
ATOM      9  C   UNL     1      -5.695 -10.682  18.853  0.00  0.00    +0.019 C 
ATOM     11  C   UNL     1      -8.570 -10.661  18.478  0.00  0.00    +0.085 C 
ATOM     13  C   UNL     1      -6.661 -11.480  19.726  0.00  0.00    +0.081 C 
ATOM     37  H   UNL     1      -8.592 -11.397  20.382  0.00  0.00    +0.122 HD
ENDROOT
BRANCH   7  10
ATOM     10  C   UNL     1      -6.181 -11.713  16.596  0.00  0.00    +0.100 C 
BRANCH  10  19
ATOM      1  O   UNL     1      -3.829 -11.864  16.351  0.00  0.00    -0.276 OA
ATOM      4  N   UNL     1      -5.058 -11.569  14.400  0.00  0.00    -0.301 N 
ATOM     12  C   UNL     1      -5.098 -10.154  11.869  0.00  0.00    -0.004 C 
ATOM     15  C   UNL     1      -6.305 -10.148  12.820  0.00  0.00    +0.023 C 
ATOM     16  C   UNL     1      -3.799 -10.360  12.661  0.00  0.00    +0.023 C 
ATOM     17  C   UNL     1      -6.331 -11.401  13.692  0.00  0.00    +0.108 C 
ATOM     18  C   UNL     1      -3.877 -11.609  13.535  0.00  0.00    +0.108 C 
ATOM     19  C   UNL     1      -4.914 -11.724  15.779  0.00  0.00    +0.216 C 
BRANCH  12  20
ATOM     20  C   UNL     1      -5.040  -8.863  11.055  0.00  0.00    +0.038 C 
BRANCH  20  22
ATOM     22  C   UNL     1      -5.611  -9.049   9.676  0.00  0.00    -0.047 A 
ATOM     25  C   UNL     1      -6.905  -8.616   9.392  0.00  0.00    +0.003 A 
ATOM     26  C   UNL     1      -4.845  -9.656   8.680  0.00  0.00    +0.003 A 
ATOM     28  C   UNL     1      -7.435  -8.790   8.114  0.00  0.00    +0.000 A 
ATOM     29  C   UNL     1      -5.373  -9.828   7.401  0.00  0.00    +0.000 A 
ATOM     30  C   UNL     1      -6.669  -9.395   7.118  0.00  0.00    +0.000 A 
ENDBRANCH  20  22
ENDBRANCH  12  20
ENDBRANCH  10  19
ENDBRANCH   7  10
BRANCH   8  14
ATOM     14  C   UNL     1      -8.339  -9.619  16.194  0.00  0.00    +0.064 C 
BRANCH  14  21
ATOM      2  O   UNL     1     -10.571  -6.946  17.108  0.00  0.00    -0.356 OA
ATOM      6  N   UNL     1      -9.565  -7.860  17.395  0.00  0.00    -0.083 NA
ATOM     21  C   UNL     1      -9.374  -8.533  16.257  0.00  0.00    +0.084 A 
ATOM     23  C   UNL     1     -10.224  -8.093  15.228  0.00  0.00    +0.074 A 
ATOM     24  C   UNL     1     -10.956  -7.095  15.816  0.00  0.00    +0.175 A 
BRANCH  24  27
ATOM     27  C   UNL     1     -12.021  -6.201  15.341  0.00  0.00    +0.306 C 
BRANCH  27   3
ATOM      3  O   UNL     1     -11.664  -5.631  14.079  0.00  0.00    -0.484 OA
BRANCH   3  31
ATOM     31  C   UNL     1     -12.645  -4.944  13.422  0.00  0.00    +0.121 A 
ATOM     32  C   UNL     1     -12.306  -3.942  12.513  0.00  0.00    +0.045 A 
ATOM     33  C   UNL     1     -13.986  -5.243  13.663  0.00  0.00    +0.045 A 
ATOM     34  C   UNL     1     -13.309  -3.240  11.843  0.00  0.00    +0.004 A 
ATOM     35  C   UNL     1     -14.988  -4.541  12.993  0.00  0.00    +0.004 A 
ATOM     36  C   UNL     1     -14.649  -3.539  12.083  0.00  0.00    +0.000 A 
ENDBRANCH   3  31
ENDBRANCH  27   3
ENDBRANCH  24  27
ENDBRANCH  14  21
ENDBRANCH   8  14
TORSDOF 9
ENDMDL
MODEL 3
REMARK VINA RESULT:      -5.6     25.078     28.288
REMARK  Name = 26743187
REMARK  9 active torsions:
REMARK  status: ('A' for Active; 'I' for Inactive)
REMARK    1  A    between atoms: O_3  and  C_27
REMARK    2  A    between atoms: O_3  and  C_31
REMARK    3  A    between atoms: C_7  and  C_10
REMARK    4  A    between atoms: C_8  and  C_14
REMARK    5  A    between atoms: C_10  and  C_19
REMARK    6  A    between atoms: C_12  and  C_20
REMARK    7  A    between atoms: C_14  and  C_21
REMARK    8  A    between atoms: C_20  and  C_22
REMARK    9  A    between atoms: C_24  and  C_27
REMARK                            x       y       z     vdW  Elec       q    Type
REMARK                         _______ _______ _______ _____ _____    ______ ____
ROOT
ATOM      5  N   UNL     1      16.257  10.480   4.433  0.00  0.00    -0.316 NA
ATOM      7  C   UNL     1      14.792   8.096   5.368  0.00  0.00    +0.004 C 
ATOM      8  C   UNL     1      14.373   8.896   4.112  0.00  0.00    +0.012 C 
ATOM      9  C   UNL     1      16.291   8.318   5.628  0.00  0.00    +0.019 C 
ATOM     11  C   UNL     1      14.818  10.366   4.198  0.00  0.00    +0.085 C 
ATOM     13  C   UNL     1      16.664   9.799   5.661  0.00  0.00    +0.081 C 
ATOM     37  H   UNL     1      16.512  11.466   4.493  0.00  0.00    +0.122 HD
ENDROOT
BRANCH   7  10
ATOM     10  C   UNL     1      13.967   8.424   6.619  0.00  0.00    +0.100 C 
BRANCH  10  19
ATOM      1  O   UNL     1      13.832   6.161   7.309  0.00  0.00    -0.276 OA
ATOM      4  N   UNL     1      11.828   7.331   7.194  0.00  0.00    -0.301 N 
ATOM     12  C   UNL     1       9.051   7.113   6.385  0.00  0.00    -0.004 C 
ATOM     15  C   UNL     1       9.941   8.276   5.920  0.00  0.00    +0.023 C 
ATOM     16  C   UNL     1       9.908   5.873   6.681  0.00  0.00    +0.023 C 
ATOM     17  C   UNL     1      11.061   8.552   6.920  0.00  0.00    +0.108 C 
ATOM     18  C   UNL     1      11.028   6.199   7.666  0.00  0.00    +0.108 C 
ATOM     19  C   UNL     1      13.211   7.201   7.072  0.00  0.00    +0.216 C 
BRANCH  12  20
ATOM     20  C   UNL     1       7.980   6.797   5.342  0.00  0.00    +0.038 C 
BRANCH  20  22
ATOM     22  C   UNL     1       8.091   7.699   4.144  0.00  0.00    -0.047 A 
ATOM     25  C   UNL     1       7.410   8.916   4.122  0.00  0.00    +0.003 A 
ATOM     26  C   UNL     1       8.874   7.320   3.054  0.00  0.00    +0.003 A 
ATOM     28  C   UNL     1       7.511   9.753   3.011  0.00  0.00    +0.000 A 
ATOM     29  C   UNL     1       8.977   8.157   1.943  0.00  0.00    +0.000 A 
ATOM     30  C   UNL     1       8.295   9.374   1.922  0.00  0.00    +0.000 A 
ENDBRANCH  20  22
ENDBRANCH  12  20
ENDBRANCH  10  19
ENDBRANCH   7  10
BRANCH   8  14
ATOM     14  C   UNL     1      12.876   8.805   3.814  0.00  0.00    +0.064 C 
BRANCH  14  21
ATOM      2  O   UNL     1      12.200   6.365   1.255  0.00  0.00    -0.356 OA
ATOM      6  N   UNL     1      12.525   7.649   1.675  0.00  0.00    -0.083 NA
ATOM     21  C   UNL     1      12.551   7.580   3.008  0.00  0.00    +0.084 A 
ATOM     23  C   UNL     1      12.253   6.291   3.482  0.00  0.00    +0.074 A 
ATOM     24  C   UNL     1      12.041   5.566   2.340  0.00  0.00    +0.175 A 
BRANCH  24  27
ATOM     27  C   UNL     1      11.692   4.164   2.076  0.00  0.00    +0.306 C 
BRANCH  27   3
ATOM      3  O   UNL     1      12.875   3.364   2.003  0.00  0.00    -0.484 OA
BRANCH   3  31
ATOM     31  C   UNL     1      13.725   3.629   0.967  0.00  0.00    +0.121 A 
ATOM     32  C   UNL     1      13.252   3.618  -0.345  0.00  0.00    +0.045 A 
ATOM     33  C   UNL     1      15.068   3.909   1.222  0.00  0.00    +0.045 A 
ATOM     34  C   UNL     1      14.121   3.888  -1.402  0.00  0.00    +0.004 A 
ATOM     35  C   UNL     1      15.937   4.179   0.165  0.00  0.00    +0.004 A 
ATOM     36  C   UNL     1      15.463   4.168  -1.148  0.00  0.00    +0.000 A 
ENDBRANCH   3  31
ENDBRANCH  27   3
ENDBRANCH  24  27
ENDBRANCH  14  21
ENDBRANCH   8  14
TORSDOF 9
ENDMDL
MODEL 4
REMARK VINA RESULT:      -5.5      2.558      6.555
REMARK  Name = 26743187
REMARK  9 active torsions:
REMARK  status: ('A' for Active; 'I' for Inactive)
REMARK    1  A    between atoms: O_3  and  C_27
REMARK    2  A    between atoms: O_3  and  C_31
REMARK    3  A    between atoms: C_7  and  C_10
REMARK    4  A    between atoms: C_8  and  C_14
REMARK    5  A    between atoms: C_10  and  C_19
REMARK    6  A    between atoms: C_12  and  C_20
REMARK    7  A    between atoms: C_14  and  C_21
REMARK    8  A    between atoms: C_20  and  C_22
REMARK    9  A    between atoms: C_24  and  C_27
REMARK                            x       y       z     vdW  Elec       q    Type
REMARK                         _______ _______ _______ _____ _____    ______ ____
ROOT
ATOM      5  N   UNL     1      -6.240 -12.124  18.720  0.00  0.00    -0.316 NA
ATOM      7  C   UNL     1      -4.509 -11.046  16.589  0.00  0.00    +0.004 C 
ATOM      8  C   UNL     1      -6.002 -10.666  16.724  0.00  0.00    +0.012 C 
ATOM      9  C   UNL     1      -3.977 -11.491  17.961  0.00  0.00    +0.019 C 
ATOM     11  C   UNL     1      -6.810 -11.776  17.418  0.00  0.00    +0.085 C 
ATOM     13  C   UNL     1      -4.851 -12.564  18.606  0.00  0.00    +0.081 C 
ATOM     37  H   UNL     1      -6.796 -12.866  19.144  0.00  0.00    +0.122 HD
ENDROOT
BRANCH   7  10
ATOM     10  C   UNL     1      -4.231 -12.115  15.525  0.00  0.00    +0.100 C 
BRANCH  10  19
ATOM      1  O   UNL     1      -1.912 -11.644  15.396  0.00  0.00    -0.276 OA
ATOM      4  N   UNL     1      -3.086 -11.630  13.390  0.00  0.00    -0.301 N 
ATOM     12  C   UNL     1      -3.379 -10.212  10.877  0.00  0.00    -0.004 C 
ATOM     15  C   UNL     1      -4.588 -10.543  11.767  0.00  0.00    +0.023 C 
ATOM     16  C   UNL     1      -2.108 -10.093  11.731  0.00  0.00    +0.023 C 
ATOM     17  C   UNL     1      -4.326 -11.781  12.621  0.00  0.00    +0.108 C 
ATOM     18  C   UNL     1      -1.897 -11.341  12.585  0.00  0.00    +0.108 C 
ATOM     19  C   UNL     1      -2.969 -11.777  14.772  0.00  0.00    +0.216 C 
BRANCH  12  20
ATOM     20  C   UNL     1      -3.622  -8.930  10.084  0.00  0.00    +0.038 C 
BRANCH  20  22
ATOM     22  C   UNL     1      -4.808  -9.061   9.167  0.00  0.00    -0.047 A 
ATOM     25  C   UNL     1      -4.791  -9.999   8.135  0.00  0.00    +0.003 A 
ATOM     26  C   UNL     1      -5.925  -8.246   9.350  0.00  0.00    +0.003 A 
ATOM     28  C   UNL     1      -5.889 -10.121   7.285  0.00  0.00    +0.000 A 
ATOM     29  C   UNL     1      -7.024  -8.369   8.501  0.00  0.00    +0.000 A 
ATOM     30  C   UNL     1      -7.006  -9.306   7.468  0.00  0.00    +0.000 A 
ENDBRANCH  20  22
ENDBRANCH  12  20
ENDBRANCH  10  19
ENDBRANCH   7  10
BRANCH   8  14
ATOM     14  C   UNL     1      -6.648 -10.286  15.392  0.00  0.00    +0.064 C 
BRANCH  14  21
ATOM      2  O   UNL     1      -9.998  -8.989  15.155  0.00  0.00    -0.356 OA
ATOM      6  N   UNL     1      -8.914  -9.696  14.648  0.00  0.00    -0.083 NA
ATOM     21  C   UNL     1      -7.978  -9.620  15.598  0.00  0.00    +0.084 A 
ATOM     23  C   UNL     1      -8.409  -8.885  16.715  0.00  0.00    +0.074 A 
ATOM     24  C   UNL     1      -9.685  -8.510  16.385  0.00  0.00    +0.175 A 
BRANCH  24  27
ATOM     27  C   UNL     1     -10.725  -7.732  17.070  0.00  0.00    +0.306 C 
BRANCH  27   3
ATOM      3  O   UNL     1     -10.879  -6.454  16.447  0.00  0.00    -0.484 OA
BRANCH   3  31
ATOM     31  C   UNL     1     -11.990  -6.287  15.670  0.00  0.00    +0.121 A 
ATOM     32  C   UNL     1     -13.207  -6.842  16.064  0.00  0.00    +0.045 A 
ATOM     33  C   UNL     1     -11.905  -5.562  14.481  0.00  0.00    +0.045 A 
ATOM     34  C   UNL     1     -14.341  -6.671  15.268  0.00  0.00    +0.004 A 
ATOM     35  C   UNL     1     -13.039  -5.391  13.686  0.00  0.00    +0.004 A 
ATOM     36  C   UNL     1     -14.257  -5.947  14.080  0.00  0.00    +0.000 A 
ENDBRANCH   3  31
ENDBRANCH  27   3
ENDBRANCH  24  27
ENDBRANCH  14  21
ENDBRANCH   8  14
TORSDOF 9
ENDMDL
MODEL 5
REMARK VINA RESULT:      -5.5     28.443     31.219
REMARK  Name = 26743187
REMARK  9 active torsions:
REMARK  status: ('A' for Active; 'I' for Inactive)
REMARK    1  A    between atoms: O_3  and  C_27
REMARK    2  A    between atoms: O_3  and  C_31
REMARK    3  A    between atoms: C_7  and  C_10
REMARK    4  A    between atoms: C_8  and  C_14
REMARK    5  A    between atoms: C_10  and  C_19
REMARK    6  A    between atoms: C_12  and  C_20
REMARK    7  A    between atoms: C_14  and  C_21
REMARK    8  A    between atoms: C_20  and  C_22
REMARK    9  A    between atoms: C_24  and  C_27
REMARK                            x       y       z     vdW  Elec       q    Type
REMARK                         _______ _______ _______ _____ _____    ______ ____
ROOT
ATOM      5  N   UNL     1      12.185   7.109  20.647  0.00  0.00    -0.316 NA
ATOM      7  C   UNL     1      14.534   8.598  19.662  0.00  0.00    +0.004 C 
ATOM      8  C   UNL     1      13.436   8.051  18.720  0.00  0.00    +0.012 C 
ATOM      9  C   UNL     1      13.938   8.798  21.066  0.00  0.00    +0.019 C 
ATOM     11  C   UNL     1      12.731   6.822  19.320  0.00  0.00    +0.085 C 
ATOM     13  C   UNL     1      13.221   7.550  21.579  0.00  0.00    +0.081 C 
ATOM     37  H   UNL     1      11.735   6.271  21.015  0.00  0.00    +0.122 HD
ENDROOT
BRANCH   7  10
ATOM     10  C   UNL     1      15.793   7.725  19.725  0.00  0.00    +0.100 C 
BRANCH  10  19
ATOM      1  O   UNL     1      16.837   9.681  20.561  0.00  0.00    -0.276 OA
ATOM      4  N   UNL     1      17.905   7.665  21.006  0.00  0.00    -0.301 N 
ATOM     12  C   UNL     1      20.506   6.386  21.121  0.00  0.00    -0.004 C 
ATOM     15  C   UNL     1      19.337   5.777  20.330  0.00  0.00    +0.023 C 
ATOM     16  C   UNL     1      20.348   7.911  21.211  0.00  0.00    +0.023 C 
ATOM     17  C   UNL     1      17.991   6.203  20.911  0.00  0.00    +0.108 C 
ATOM     18  C   UNL     1      18.981   8.293  21.774  0.00  0.00    +0.108 C 
ATOM     19  C   UNL     1      16.886   8.451  20.467  0.00  0.00    +0.216 C 
BRANCH  12  20
ATOM     20  C   UNL     1      21.844   6.015  20.486  0.00  0.00    +0.038 C 
BRANCH  20  22
ATOM     22  C   UNL     1      22.432   4.780  21.114  0.00  0.00    -0.047 A 
ATOM     25  C   UNL     1      23.428   4.067  20.448  0.00  0.00    +0.003 A 
ATOM     26  C   UNL     1      21.981   4.349  22.362  0.00  0.00    +0.003 A 
ATOM     28  C   UNL     1      23.973   2.921  21.029  0.00  0.00    +0.000 A 
ATOM     29  C   UNL     1      22.527   3.206  22.944  0.00  0.00    +0.000 A 
ATOM     30  C   UNL     1      23.523   2.491  22.277  0.00  0.00    +0.000 A 
ENDBRANCH  20  22
ENDBRANCH  12  20
ENDBRANCH  10  19
ENDBRANCH   7  10
BRANCH   8  14
ATOM     14  C   UNL     1      13.951   7.740  17.314  0.00  0.00    +0.064 C 
BRANCH  14  21
ATOM      2  O   UNL     1      12.642  10.009  14.845  0.00  0.00    -0.356 OA
ATOM      6  N   UNL     1      12.597   8.829  15.577  0.00  0.00    -0.083 NA
ATOM     21  C   UNL     1      13.674   8.871  16.367  0.00  0.00    +0.084 A 
ATOM     23  C   UNL     1      14.427  10.043  16.180  0.00  0.00    +0.074 A 
ATOM     24  C   UNL     1      13.736  10.723  15.213  0.00  0.00    +0.175 A 
BRANCH  24  27
ATOM     27  C   UNL     1      13.939  12.009  14.533  0.00  0.00    +0.306 C 
BRANCH  27   3
ATOM      3  O   UNL     1      13.768  11.856  13.121  0.00  0.00    -0.484 OA
BRANCH   3  31
ATOM     31  C   UNL     1      14.739  12.398  12.328  0.00  0.00    +0.121 A 
ATOM     32  C   UNL     1      16.010  11.824  12.291  0.00  0.00    +0.045 A 
ATOM     33  C   UNL     1      14.460  13.527  11.557  0.00  0.00    +0.045 A 
ATOM     34  C   UNL     1      17.002  12.379  11.481  0.00  0.00    +0.004 A 
ATOM     35  C   UNL     1      15.452  14.081  10.748  0.00  0.00    +0.004 A 
ATOM     36  C   UNL     1      16.723  13.506  10.711  0.00  0.00    +0.000 A 
ENDBRANCH   3  31
ENDBRANCH  27   3
ENDBRANCH  24  27
ENDBRANCH  14  21
ENDBRANCH   8  14
TORSDOF 9
ENDMDL
MODEL 6
REMARK VINA RESULT:      -5.5      2.967      6.301
REMARK  Name = 26743187
REMARK  9 active torsions:
REMARK  status: ('A' for Active; 'I' for Inactive)
REMARK    1  A    between atoms: O_3  and  C_27
REMARK    2  A    between atoms: O_3  and  C_31
REMARK    3  A    between atoms: C_7  and  C_10
REMARK    4  A    between atoms: C_8  and  C_14
REMARK    5  A    between atoms: C_10  and  C_19
REMARK    6  A    between atoms: C_12  and  C_20
REMARK    7  A    between atoms: C_14  and  C_21
REMARK    8  A    between atoms: C_20  and  C_22
REMARK    9  A    between atoms: C_24  and  C_27
REMARK                            x       y       z     vdW  Elec       q    Type
REMARK                         _______ _______ _______ _____ _____    ______ ____
ROOT
ATOM      5  N   UNL     1      -8.508 -10.736  19.317  0.00  0.00    -0.316 NA
ATOM      7  C   UNL     1      -6.193 -10.243  17.556  0.00  0.00    +0.004 C 
ATOM      8  C   UNL     1      -7.636  -9.838  17.173  0.00  0.00    +0.012 C 
ATOM      9  C   UNL     1      -6.084 -10.323  19.088  0.00  0.00    +0.019 C 
ATOM     11  C   UNL     1      -8.680 -10.732  17.864  0.00  0.00    +0.085 C 
ATOM     13  C   UNL     1      -7.176 -11.194  19.706  0.00  0.00    +0.081 C 
ATOM     37  H   UNL     1      -9.211 -11.344  19.738  0.00  0.00    +0.122 HD
ENDROOT
BRANCH   7  10
ATOM     10  C   UNL     1      -5.718 -11.549  16.908  0.00  0.00    +0.100 C 
BRANCH  10  19
ATOM      1  O   UNL     1      -3.470 -11.243  17.591  0.00  0.00    -0.276 OA
ATOM      4  N   UNL     1      -3.815 -11.713  15.342  0.00  0.00    -0.301 N 
ATOM     12  C   UNL     1      -2.957 -11.012  12.661  0.00  0.00    -0.004 C 
ATOM     15  C   UNL     1      -4.442 -11.032  13.057  0.00  0.00    +0.023 C 
ATOM     16  C   UNL     1      -2.083 -10.728  13.892  0.00  0.00    +0.023 C 
ATOM     17  C   UNL     1      -4.696 -12.006  14.206  0.00  0.00    +0.108 C 
ATOM     18  C   UNL     1      -2.386 -11.709  15.022  0.00  0.00    +0.108 C 
ATOM     19  C   UNL     1      -4.234 -11.487  16.653  0.00  0.00    +0.216 C 
BRANCH  12  20
ATOM     20  C   UNL     1      -2.701  -9.981  11.564  0.00  0.00    +0.038 C 
BRANCH  20  22
ATOM     22  C   UNL     1      -3.512 -10.271  10.330  0.00  0.00    -0.047 A 
ATOM     25  C   UNL     1      -3.714 -11.589   9.922  0.00  0.00    +0.003 A 
ATOM     26  C   UNL     1      -4.064  -9.221   9.595  0.00  0.00    +0.003 A 
ATOM     28  C   UNL     1      -4.465 -11.858   8.778  0.00  0.00    +0.000 A 
ATOM     29  C   UNL     1      -4.817  -9.490   8.453  0.00  0.00    +0.000 A 
ATOM     30  C   UNL     1      -5.017 -10.809   8.044  0.00  0.00    +0.000 A 
ENDBRANCH  20  22
ENDBRANCH  12  20
ENDBRANCH  10  19
ENDBRANCH   7  10
BRANCH   8  14
ATOM     14  C   UNL     1      -7.870  -9.810  15.662  0.00  0.00    +0.064 C 
BRANCH  14  21
ATOM      2  O   UNL     1     -11.112  -8.848  14.428  0.00  0.00    -0.356 OA
ATOM      6  N   UNL     1     -10.053  -9.741  14.537  0.00  0.00    -0.083 NA
ATOM     21  C   UNL     1      -9.162  -9.127  15.320  0.00  0.00    +0.084 A 
ATOM     23  C   UNL     1      -9.600  -7.857  15.732  0.00  0.00    +0.074 A 
ATOM     24  C   UNL     1     -10.830  -7.730  15.143  0.00  0.00    +0.175 A 
BRANCH  24  27
ATOM     27  C   UNL     1     -11.851  -6.673  15.138  0.00  0.00    +0.306 C 
BRANCH  27   3
ATOM      3  O   UNL     1     -12.688  -6.799  13.986  0.00  0.00    -0.484 OA
BRANCH   3  31
ATOM     31  C   UNL     1     -12.524  -5.859  13.009  0.00  0.00    +0.121 A 
ATOM     32  C   UNL     1     -12.447  -4.508  13.346  0.00  0.00    +0.045 A 
ATOM     33  C   UNL     1     -12.434  -6.251  11.673  0.00  0.00    +0.045 A 
ATOM     34  C   UNL     1     -12.279  -3.548  12.347  0.00  0.00    +0.004 A 
ATOM     35  C   UNL     1     -12.266  -5.292  10.674  0.00  0.00    +0.004 A 
ATOM     36  C   UNL     1     -12.189  -3.939  11.012  0.00  0.00    +0.000 A 
ENDBRANCH   3  31
ENDBRANCH  27   3
ENDBRANCH  24  27
ENDBRANCH  14  21
ENDBRANCH   8  14
TORSDOF 9
ENDMDL
MODEL 7
REMARK VINA RESULT:      -5.4     24.508     27.898
REMARK  Name = 26743187
REMARK  9 active torsions:
REMARK  status: ('A' for Active; 'I' for Inactive)
REMARK    1  A    between atoms: O_3  and  C_27
REMARK    2  A    between atoms: O_3  and  C_31
REMARK    3  A    between atoms: C_7  and  C_10
REMARK    4  A    between atoms: C_8  and  C_14
REMARK    5  A    between atoms: C_10  and  C_19
REMARK    6  A    between atoms: C_12  and  C_20
REMARK    7  A    between atoms: C_14  and  C_21
REMARK    8  A    between atoms: C_20  and  C_22
REMARK    9  A    between atoms: C_24  and  C_27
REMARK                            x       y       z     vdW  Elec       q    Type
REMARK                         _______ _______ _______ _____ _____    ______ ____
ROOT
ATOM      5  N   UNL     1      15.955   4.325   0.663  0.00  0.00    -0.316 NA
ATOM      7  C   UNL     1      13.250   4.435  -0.508  0.00  0.00    +0.004 C 
ATOM      8  C   UNL     1      13.510   4.576   1.010  0.00  0.00    +0.012 C 
ATOM      9  C   UNL     1      14.517   4.849  -1.275  0.00  0.00    +0.019 C 
ATOM     11  C   UNL     1      14.803   3.859   1.435  0.00  0.00    +0.085 C 
ATOM     13  C   UNL     1      15.766   4.127  -0.772  0.00  0.00    +0.081 C 
ATOM     37  H   UNL     1      16.790   3.823   0.967  0.00  0.00    +0.122 HD
ENDROOT
BRANCH   7  10
ATOM     10  C   UNL     1      12.788   3.036  -0.935  0.00  0.00    +0.100 C 
BRANCH  10  19
ATOM      1  O   UNL     1      12.653   2.622  -3.264  0.00  0.00    -0.276 OA
ATOM      4  N   UNL     1      10.855   3.737  -2.304  0.00  0.00    -0.301 N 
ATOM     12  C   UNL     1       8.978   5.910  -2.715  0.00  0.00    -0.004 C 
ATOM     15  C   UNL     1       9.794   5.779  -1.420  0.00  0.00    +0.023 C 
ATOM     16  C   UNL     1       9.729   5.255  -3.885  0.00  0.00    +0.023 C 
ATOM     17  C   UNL     1      10.172   4.325  -1.146  0.00  0.00    +0.108 C 
ATOM     18  C   UNL     1      10.106   3.812  -3.560  0.00  0.00    +0.108 C 
ATOM     19  C   UNL     1      12.100   3.108  -2.274  0.00  0.00    +0.216 C 
BRANCH  12  20
ATOM     20  C   UNL     1       8.671   7.375  -3.019  0.00  0.00    +0.038 C 
BRANCH  20  22
ATOM     22  C   UNL     1       7.303   7.767  -2.531  0.00  0.00    -0.047 A 
ATOM     25  C   UNL     1       7.152   8.869  -1.689  0.00  0.00    +0.003 A 
ATOM     26  C   UNL     1       6.184   7.030  -2.922  0.00  0.00    +0.003 A 
ATOM     28  C   UNL     1       5.884   9.232  -1.236  0.00  0.00    +0.000 A 
ATOM     29  C   UNL     1       4.917   7.395  -2.470  0.00  0.00    +0.000 A 
ATOM     30  C   UNL     1       4.766   8.496  -1.627  0.00  0.00    +0.000 A 
ENDBRANCH  20  22
ENDBRANCH  12  20
ENDBRANCH  10  19
ENDBRANCH   7  10
BRANCH   8  14
ATOM     14  C   UNL     1      12.332   4.109   1.866  0.00  0.00    +0.064 C 
BRANCH  14  21
ATOM      2  O   UNL     1      11.373   7.105   3.616  0.00  0.00    -0.356 OA
ATOM      6  N   UNL     1      12.320   6.192   3.169  0.00  0.00    -0.083 NA
ATOM     21  C   UNL     1      11.622   5.269   2.501  0.00  0.00    +0.084 A 
ATOM     23  C   UNL     1      10.244   5.545   2.493  0.00  0.00    +0.074 A 
ATOM     24  C   UNL     1      10.142   6.710   3.208  0.00  0.00    +0.175 A 
BRANCH  24  27
ATOM     27  C   UNL     1       9.014   7.567   3.597  0.00  0.00    +0.306 C 
BRANCH  27   3
ATOM      3  O   UNL     1       8.132   6.860   4.471  0.00  0.00    -0.484 OA
BRANCH   3  31
ATOM     31  C   UNL     1       8.562   6.680   5.755  0.00  0.00    +0.121 A 
ATOM     32  C   UNL     1       9.128   5.464   6.137  0.00  0.00    +0.045 A 
ATOM     33  C   UNL     1       8.433   7.712   6.684  0.00  0.00    +0.045 A 
ATOM     34  C   UNL     1       9.566   5.280   7.449  0.00  0.00    +0.004 A 
ATOM     35  C   UNL     1       8.871   7.529   7.996  0.00  0.00    +0.004 A 
ATOM     36  C   UNL     1       9.438   6.312   8.378  0.00  0.00    +0.000 A 
ENDBRANCH   3  31
ENDBRANCH  27   3
ENDBRANCH  24  27
ENDBRANCH  14  21
ENDBRANCH   8  14
TORSDOF 9
ENDMDL
MODEL 8
REMARK VINA RESULT:      -5.4      2.401      6.291
REMARK  Name = 26743187
REMARK  9 active torsions:
REMARK  status: ('A' for Active; 'I' for Inactive)
REMARK    1  A    between atoms: O_3  and  C_27
REMARK    2  A    between atoms: O_3  and  C_31
REMARK    3  A    between atoms: C_7  and  C_10
REMARK    4  A    between atoms: C_8  and  C_14
REMARK    5  A    between atoms: C_10  and  C_19
REMARK    6  A    between atoms: C_12  and  C_20
REMARK    7  A    between atoms: C_14  and  C_21
REMARK    8  A    between atoms: C_20  and  C_22
REMARK    9  A    between atoms: C_24  and  C_27
REMARK                            x       y       z     vdW  Elec       q    Type
REMARK                         _______ _______ _______ _____ _____    ______ ____
ROOT
ATOM      5  N   UNL     1      -6.753 -13.948  16.513  0.00  0.00    -0.316 NA
ATOM      7  C   UNL     1      -4.446 -12.201  17.086  0.00  0.00    +0.004 C 
ATOM      8  C   UNL     1      -5.722 -12.216  17.962  0.00  0.00    +0.012 C 
ATOM      9  C   UNL     1      -4.321 -13.550  16.359  0.00  0.00    +0.019 C 
ATOM     11  C   UNL     1      -6.959 -12.651  17.157  0.00  0.00    +0.085 C 
ATOM     13  C   UNL     1      -5.599 -13.934  15.616  0.00  0.00    +0.081 C 
ATOM     37  H   UNL     1      -7.589 -14.198  15.984  0.00  0.00    +0.122 HD
ENDROOT
BRANCH   7  10
ATOM     10  C   UNL     1      -4.388 -11.038  16.089  0.00  0.00    +0.100 C 
BRANCH  10  19
ATOM      1  O   UNL     1      -2.023 -11.017  15.939  0.00  0.00    -0.276 OA
ATOM      4  N   UNL     1      -3.187 -11.191  13.935  0.00  0.00    -0.301 N 
ATOM     12  C   UNL     1      -3.238 -10.265  11.187  0.00  0.00    -0.004 C 
ATOM     15  C   UNL     1      -4.481 -10.197  12.088  0.00  0.00    +0.023 C 
ATOM     16  C   UNL     1      -1.961 -10.206  12.038  0.00  0.00    +0.023 C 
ATOM     17  C   UNL     1      -4.439 -11.269  13.174  0.00  0.00    +0.108 C 
ATOM     18  C   UNL     1      -1.971 -11.280  13.124  0.00  0.00    +0.108 C 
ATOM     19  C   UNL     1      -3.090 -11.082  15.322  0.00  0.00    +0.216 C 
BRANCH  12  20
ATOM     20  C   UNL     1      -3.254  -9.142  10.153  0.00  0.00    +0.038 C 
BRANCH  20  22
ATOM     22  C   UNL     1      -4.523  -9.149   9.345  0.00  0.00    -0.047 A 
ATOM     25  C   UNL     1      -5.498  -8.178   9.569  0.00  0.00    +0.003 A 
ATOM     26  C   UNL     1      -4.724 -10.127   8.370  0.00  0.00    +0.003 A 
ATOM     28  C   UNL     1      -6.675  -8.185   8.821  0.00  0.00    +0.000 A 
ATOM     29  C   UNL     1      -5.900 -10.133   7.621  0.00  0.00    +0.000 A 
ATOM     30  C   UNL     1      -6.876  -9.162   7.847  0.00  0.00    +0.000 A 
ENDBRANCH  20  22
ENDBRANCH  12  20
ENDBRANCH  10  19
ENDBRANCH   7  10
BRANCH   8  14
ATOM     14  C   UNL     1      -5.981 -10.884  18.666  0.00  0.00    +0.064 C 
BRANCH  14  21
ATOM      2  O   UNL     1      -9.354 -10.778  19.920  0.00  0.00    -0.356 OA
ATOM      6  N   UNL     1      -8.019 -11.152  20.012  0.00  0.00    -0.083 NA
ATOM     21  C   UNL     1      -7.447 -10.668  18.906  0.00  0.00    +0.084 A 
ATOM     23  C   UNL     1      -8.363  -9.985  18.087  0.00  0.00    +0.074 A 
ATOM     24  C   UNL     1      -9.546 -10.084  18.770  0.00  0.00    +0.175 A 
BRANCH  24  27
ATOM     27  C   UNL     1     -10.912  -9.609  18.511  0.00  0.00    +0.306 C 
BRANCH  27   3
ATOM      3  O   UNL     1     -11.171  -9.589  17.105  0.00  0.00    -0.484 OA
BRANCH   3  31
ATOM     31  C   UNL     1     -11.428  -8.367  16.550  0.00  0.00    +0.121 A 
ATOM     32  C   UNL     1     -10.373  -7.525  16.199  0.00  0.00    +0.045 A 
ATOM     33  C   UNL     1     -12.746  -7.961  16.338  0.00  0.00    +0.045 A 
ATOM     34  C   UNL     1     -10.637  -6.276  15.634  0.00  0.00    +0.004 A 
ATOM     35  C   UNL     1     -13.009  -6.713  15.773  0.00  0.00    +0.004 A 
ATOM     36  C   UNL     1     -11.953  -5.871  15.421  0.00  0.00    +0.000 A 
ENDBRANCH   3  31
ENDBRANCH  27   3
ENDBRANCH  24  27
ENDBRANCH  14  21
ENDBRANCH   8  14
TORSDOF 9
ENDMDL
MODEL 9
REMARK VINA RESULT:      -5.4      3.679      7.006
REMARK  Name = 26743187
REMARK  9 active torsions:
REMARK  status: ('A' for Active; 'I' for Inactive)
REMARK    1  A    between atoms: O_3  and  C_27
REMARK    2  A    between atoms: O_3  and  C_31
REMARK    3  A    between atoms: C_7  and  C_10
REMARK    4  A    between atoms: C_8  and  C_14
REMARK    5  A    between atoms: C_10  and  C_19
REMARK    6  A    between atoms: C_12  and  C_20
REMARK    7  A    between atoms: C_14  and  C_21
REMARK    8  A    between atoms: C_20  and  C_22
REMARK    9  A    between atoms: C_24  and  C_27
REMARK                            x       y       z     vdW  Elec       q    Type
REMARK                         _______ _______ _______ _____ _____    ______ ____
ROOT
ATOM      5  N   UNL     1     -12.237 -11.416  18.706  0.00  0.00    -0.316 NA
ATOM      7  C   UNL     1      -9.398 -11.088  19.438  0.00  0.00    +0.004 C 
ATOM      8  C   UNL     1     -10.121 -10.143  18.450  0.00  0.00    +0.012 C 
ATOM      9  C   UNL     1     -10.438 -11.733  20.369  0.00  0.00    +0.019 C 
ATOM     11  C   UNL     1     -11.293 -10.846  17.744  0.00  0.00    +0.085 C 
ATOM     13  C   UNL     1     -11.591 -12.375  19.599  0.00  0.00    +0.081 C 
ATOM     37  H   UNL     1     -12.993 -11.879  18.202  0.00  0.00    +0.122 HD
ENDROOT
BRANCH   7  10
ATOM     10  C   UNL     1      -8.537 -12.160  18.758  0.00  0.00    +0.100 C 
BRANCH  10  19
ATOM      1  O   UNL     1      -6.889 -11.730  20.406  0.00  0.00    -0.276 OA
ATOM      4  N   UNL     1      -6.115 -12.333  18.299  0.00  0.00    -0.301 N 
ATOM     12  C   UNL     1      -4.089 -11.743  16.309  0.00  0.00    -0.004 C 
ATOM     15  C   UNL     1      -5.583 -11.800  15.952  0.00  0.00    +0.023 C 
ATOM     16  C   UNL     1      -3.910 -11.360  17.786  0.00  0.00    +0.023 C 
ATOM     17  C   UNL     1      -6.346 -12.720  16.903  0.00  0.00    +0.108 C 
ATOM     18  C   UNL     1      -4.707 -12.290  18.698  0.00  0.00    +0.108 C 
ATOM     19  C   UNL     1      -7.111 -12.054  19.236  0.00  0.00    +0.216 C 
BRANCH  12  20
ATOM     20  C   UNL     1      -3.350 -10.763  15.400  0.00  0.00    +0.038 C 
BRANCH  20  22
ATOM     22  C   UNL     1      -3.287 -11.261  13.982  0.00  0.00    -0.047 A 
ATOM     25  C   UNL     1      -3.815 -10.489  12.948  0.00  0.00    +0.003 A 
ATOM     26  C   UNL     1      -2.700 -12.495  13.701  0.00  0.00    +0.003 A 
ATOM     28  C   UNL     1      -3.757 -10.951  11.633  0.00  0.00    +0.000 A 
ATOM     29  C   UNL     1      -2.641 -12.957  12.387  0.00  0.00    +0.000 A 
ATOM     30  C   UNL     1      -3.170 -12.184  11.352  0.00  0.00    +0.000 A 
ENDBRANCH  20  22
ENDBRANCH  12  20
ENDBRANCH  10  19
ENDBRANCH   7  10
BRANCH   8  14
ATOM     14  C   UNL     1      -9.178  -9.512  17.424  0.00  0.00    +0.064 C 
BRANCH  14  21
ATOM      2  O   UNL     1     -10.599  -7.678  14.671  0.00  0.00    -0.356 OA
ATOM      6  N   UNL     1      -9.814  -8.698  15.195  0.00  0.00    -0.083 NA
ATOM     21  C   UNL     1      -9.909  -8.562  16.520  0.00  0.00    +0.084 A 
ATOM     23  C   UNL     1     -10.732  -7.484  16.888  0.00  0.00    +0.074 A 
ATOM     24  C   UNL     1     -11.140  -6.962  15.689  0.00  0.00    +0.175 A 
BRANCH  24  27
ATOM     27  C   UNL     1     -12.005  -5.836  15.312  0.00  0.00    +0.306 C 
BRANCH  27   3
ATOM      3  O   UNL     1     -11.645  -5.347  14.017  0.00  0.00    -0.484 OA
BRANCH   3  31
ATOM     31  C   UNL     1     -12.626  -4.704  13.316  0.00  0.00    +0.121 A 
ATOM     32  C   UNL     1     -12.290  -3.890  12.234  0.00  0.00    +0.045 A 
ATOM     33  C   UNL     1     -13.963  -4.861  13.683  0.00  0.00    +0.045 A 
ATOM     34  C   UNL     1     -13.293  -3.233  11.519  0.00  0.00    +0.004 A 
ATOM     35  C   UNL     1     -14.964  -4.205  12.968  0.00  0.00    +0.004 A 
ATOM     36  C   UNL     1     -14.628  -3.390  11.885  0.00  0.00    +0.000 A 
ENDBRANCH   3  31
ENDBRANCH  27   3
ENDBRANCH  24  27
ENDBRANCH  14  21
ENDBRANCH   8  14
TORSDOF 9
ENDMDL
MODEL 10
REMARK VINA RESULT:      -5.3     25.226     28.186
REMARK  Name = 26743187
REMARK  9 active torsions:
REMARK  status: ('A' for Active; 'I' for Inactive)
REMARK    1  A    between atoms: O_3  and  C_27
REMARK    2  A    between atoms: O_3  and  C_31
REMARK    3  A    between atoms: C_7  and  C_10
REMARK    4  A    between atoms: C_8  and  C_14
REMARK    5  A    between atoms: C_10  and  C_19
REMARK    6  A    between atoms: C_12  and  C_20
REMARK    7  A    between atoms: C_14  and  C_21
REMARK    8  A    between atoms: C_20  and  C_22
REMARK    9  A    between atoms: C_24  and  C_27
REMARK                            x       y       z     vdW  Elec       q    Type
REMARK                         _______ _______ _______ _____ _____    ______ ____
ROOT
ATOM      5  N   UNL     1      16.530  10.173   4.158  0.00  0.00    -0.316 NA
ATOM      7  C   UNL     1      15.197   7.918   5.515  0.00  0.00    +0.004 C 
ATOM      8  C   UNL     1      14.960   8.254   4.024  0.00  0.00    +0.012 C 
ATOM      9  C   UNL     1      16.570   8.464   5.941  0.00  0.00    +0.019 C 
ATOM     11  C   UNL     1      15.197   9.746   3.733  0.00  0.00    +0.085 C 
ATOM     13  C   UNL     1      16.747   9.939   5.584  0.00  0.00    +0.081 C 
ATOM     37  H   UNL     1      16.646  11.166   3.957  0.00  0.00    +0.122 HD
ENDROOT
BRANCH   7  10
ATOM     10  C   UNL     1      14.094   8.426   6.452  0.00  0.00    +0.100 C 
BRANCH  10  19
ATOM      1  O   UNL     1      13.897   6.224   7.307  0.00  0.00    -0.276 OA
ATOM      4  N   UNL     1      11.927   7.440   7.111  0.00  0.00    -0.301 N 
ATOM     12  C   UNL     1       9.140   7.245   6.328  0.00  0.00    -0.004 C 
ATOM     15  C   UNL     1      10.062   8.344   5.776  0.00  0.00    +0.023 C 
ATOM     16  C   UNL     1       9.963   6.006   6.713  0.00  0.00    +0.023 C 
ATOM     17  C   UNL     1      11.195   8.660   6.751  0.00  0.00    +0.108 C 
ATOM     18  C   UNL     1      11.097   6.370   7.668  0.00  0.00    +0.108 C 
ATOM     19  C   UNL     1      13.305   7.262   6.996  0.00  0.00    +0.216 C 
BRANCH  12  20
ATOM     20  C   UNL     1       8.057   6.884   5.314  0.00  0.00    +0.038 C 
BRANCH  20  22
ATOM     22  C   UNL     1       8.311   7.527   3.978  0.00  0.00    -0.047 A 
ATOM     25  C   UNL     1       7.590   8.659   3.600  0.00  0.00    +0.003 A 
ATOM     26  C   UNL     1       9.270   6.991   3.117  0.00  0.00    +0.003 A 
ATOM     28  C   UNL     1       7.825   9.255   2.362  0.00  0.00    +0.000 A 
ATOM     29  C   UNL     1       9.506   7.588   1.879  0.00  0.00    +0.000 A 
ATOM     30  C   UNL     1       8.783   8.720   1.501  0.00  0.00    +0.000 A 
ENDBRANCH  20  22
ENDBRANCH  12  20
ENDBRANCH  10  19
ENDBRANCH   7  10
BRANCH   8  14
ATOM     14  C   UNL     1      13.581   7.822   3.523  0.00  0.00    +0.064 C 
BRANCH  14  21
ATOM      2  O   UNL     1      14.533   4.982   1.527  0.00  0.00    -0.356 OA
ATOM      6  N   UNL     1      14.805   6.193   2.151  0.00  0.00    -0.083 NA
ATOM     21  C   UNL     1      13.659   6.544   2.740  0.00  0.00    +0.084 A 
ATOM     23  C   UNL     1      12.638   5.603   2.524  0.00  0.00    +0.074 A 
ATOM     24  C   UNL     1      13.239   4.641   1.755  0.00  0.00    +0.175 A 
BRANCH  24  27
ATOM     27  C   UNL     1      12.779   3.378   1.163  0.00  0.00    +0.306 C 
BRANCH  27   3
ATOM      3  O   UNL     1      13.202   3.287  -0.200  0.00  0.00    -0.484 OA
BRANCH   3  31
ATOM     31  C   UNL     1      12.222   3.366  -1.148  0.00  0.00    +0.121 A 
ATOM     32  C   UNL     1      11.354   4.457  -1.165  0.00  0.00    +0.045 A 
ATOM     33  C   UNL     1      12.090   2.354  -2.099  0.00  0.00    +0.045 A 
ATOM     34  C   UNL     1      10.353   4.537  -2.134  0.00  0.00    +0.004 A 
ATOM     35  C   UNL     1      11.089   2.434  -3.068  0.00  0.00    +0.004 A 
ATOM     36  C   UNL     1      10.220   3.526  -3.084  0.00  0.00    +0.000 A 
ENDBRANCH   3  31
ENDBRANCH  27   3
ENDBRANCH  24  27
ENDBRANCH  14  21
ENDBRANCH   8  14
TORSDOF 9
ENDMDL
