MODEL 1
REMARK VINA RESULT:      -7.4      0.000      0.000
REMARK  Name = 71693294
REMARK  9 active torsions:
REMARK  status: ('A' for Active; 'I' for Inactive)
REMARK    1  A    between atoms: O_2  and  C_10
REMARK    2  A    between atoms: N_6  and  C_12
REMARK    3  A    between atoms: N_7  and  C_20
REMARK    4  A    between atoms: C_8  and  C_10
REMARK    5  A    between atoms: C_9  and  C_11
REMARK    6  A    between atoms: C_12  and  C_15
REMARK    7  A    between atoms: C_26  and  C_27
REMARK    8  A    between atoms: C_28  and  C_31
REMARK    9  A    between atoms: C_30  and  C_32
REMARK                            x       y       z     vdW  Elec       q    Type
REMARK                         _______ _______ _______ _____ _____    ______ ____
ROOT
ATOM      1  O   UNL     1      11.195   7.594  -1.388  0.00  0.00    -0.361 OA
ATOM      3  O   UNL     1      13.925   6.340  -3.026  0.00  0.00    -0.273 OA
ATOM      6  N   UNL     1      12.132   5.160  -2.112  0.00  0.00    -0.287 N 
ATOM      8  C   UNL     1      10.696   5.181  -1.808  0.00  0.00    +0.135 C 
ATOM      9  C   UNL     1      10.260   6.530  -1.180  0.00  0.00    +0.171 C 
ATOM     13  C   UNL     1      12.769   6.293  -2.611  0.00  0.00    +0.242 C 
ATOM     14  C   UNL     1      11.882   7.516  -2.619  0.00  0.00    +0.256 C 
ENDROOT
BRANCH   9  11
ATOM     11  C   UNL     1      10.059   6.400   0.318  0.00  0.00    -0.017 A 
ATOM     16  C   UNL     1       9.620   7.496   1.061  0.00  0.00    +0.008 A 
ATOM     17  C   UNL     1      10.312   5.183   0.952  0.00  0.00    +0.008 A 
ATOM     18  C   UNL     1       9.435   7.376   2.439  0.00  0.00    +0.023 A 
ATOM     19  C   UNL     1      10.127   5.064   2.329  0.00  0.00    +0.023 A 
ATOM     20  C   UNL     1       9.688   6.160   3.073  0.00  0.00    +0.034 A 
BRANCH  20   7
ATOM      5  O   UNL     1      11.666   6.349   5.317  0.00  0.00    -0.270 OA
ATOM      7  N   UNL     1       9.502   6.039   4.450  0.00  0.00    -0.281 N 
ATOM     26  C   UNL     1      10.467   6.137   5.462  0.00  0.00    +0.252 C 
ATOM     34  H   UNL     1       8.541   5.860   4.730  0.00  0.00    +0.155 HD
BRANCH  26  27
ATOM      4  O   UNL     1       8.953   6.502   8.797  0.00  0.00    -0.464 OA
ATOM     27  C   UNL     1       9.952   5.989   6.849  0.00  0.00    +0.078 A 
ATOM     28  C   UNL     1       9.286   6.960   7.561  0.00  0.00    +0.114 A 
ATOM     29  C   UNL     1      10.033   4.862   7.700  0.00  0.00    +0.057 A 
ATOM     30  C   UNL     1       9.411   5.224   8.873  0.00  0.00    +0.103 A 
ATOM     31  C   UNL     1       8.883   8.341   7.258  0.00  0.00    +0.087 C 
ATOM     32  C   UNL     1       9.159   4.518  10.137  0.00  0.00    +0.086 C 
ENDBRANCH  26  27
ENDBRANCH  20   7
ENDBRANCH   9  11
BRANCH   8  10
ATOM     10  C   UNL     1       9.873   4.861  -3.062  0.00  0.00    +0.181 C 
BRANCH  10   2
ATOM      2  O   UNL     1       9.450   3.516  -2.981  0.00  0.00    -0.393 OA
ATOM     33  H   UNL     1       9.730   3.177  -2.112  0.00  0.00    +0.209 HD
ENDBRANCH  10   2
ENDBRANCH   8  10
BRANCH   6  12
ATOM     12  C   UNL     1      12.835   3.890  -2.005  0.00  0.00    +0.143 C 
BRANCH  12  15
ATOM     15  C   UNL     1      13.597   3.777  -0.715  0.00  0.00    -0.030 A 
ATOM     21  C   UNL     1      12.945   3.358   0.445  0.00  0.00    +0.005 A 
ATOM     22  C   UNL     1      14.955   4.091  -0.678  0.00  0.00    +0.005 A 
ATOM     23  C   UNL     1      13.653   3.253   1.643  0.00  0.00    +0.000 A 
ATOM     24  C   UNL     1      15.662   3.985   0.519  0.00  0.00    +0.000 A 
ATOM     25  C   UNL     1      15.012   3.565   1.680  0.00  0.00    +0.000 A 
ENDBRANCH  12  15
ENDBRANCH   6  12
TORSDOF 7
ENDMDL
MODEL 2
REMARK VINA RESULT:      -7.2      2.786      8.891
REMARK  Name = 71693294
REMARK  9 active torsions:
REMARK  status: ('A' for Active; 'I' for Inactive)
REMARK    1  A    between atoms: O_2  and  C_10
REMARK    2  A    between atoms: N_6  and  C_12
REMARK    3  A    between atoms: N_7  and  C_20
REMARK    4  A    between atoms: C_8  and  C_10
REMARK    5  A    between atoms: C_9  and  C_11
REMARK    6  A    between atoms: C_12  and  C_15
REMARK    7  A    between atoms: C_26  and  C_27
REMARK    8  A    between atoms: C_28  and  C_31
REMARK    9  A    between atoms: C_30  and  C_32
REMARK                            x       y       z     vdW  Elec       q    Type
REMARK                         _______ _______ _______ _____ _____    ______ ____
ROOT
ATOM      1  O   UNL     1      10.020   4.216   6.225  0.00  0.00    -0.361 OA
ATOM      3  O   UNL     1      10.846   5.474   9.298  0.00  0.00    -0.273 OA
ATOM      6  N   UNL     1      10.511   6.647   7.310  0.00  0.00    -0.287 N 
ATOM      8  C   UNL     1       9.773   6.698   6.043  0.00  0.00    +0.135 C 
ATOM      9  C   UNL     1       9.722   5.310   5.351  0.00  0.00    +0.171 C 
ATOM     13  C   UNL     1      10.388   5.552   8.161  0.00  0.00    +0.242 C 
ATOM     14  C   UNL     1       9.594   4.419   7.556  0.00  0.00    +0.256 C 
ENDROOT
BRANCH   9  11
ATOM     11  C   UNL     1      10.701   5.236   4.194  0.00  0.00    -0.017 A 
ATOM     16  C   UNL     1      10.711   4.119   3.359  0.00  0.00    +0.008 A 
ATOM     17  C   UNL     1      11.590   6.286   3.965  0.00  0.00    +0.008 A 
ATOM     18  C   UNL     1      11.611   4.051   2.295  0.00  0.00    +0.023 A 
ATOM     19  C   UNL     1      12.490   6.218   2.902  0.00  0.00    +0.023 A 
ATOM     20  C   UNL     1      12.500   5.101   2.067  0.00  0.00    +0.034 A 
BRANCH  20   7
ATOM      5  O   UNL     1      14.790   3.228   1.582  0.00  0.00    -0.270 OA
ATOM      7  N   UNL     1      13.400   5.033   1.002  0.00  0.00    -0.281 N 
ATOM     26  C   UNL     1      14.458   4.133   0.824  0.00  0.00    +0.252 C 
ATOM     34  H   UNL     1      13.248   5.733   0.280  0.00  0.00    +0.155 HD
BRANCH  26  27
ATOM      4  O   UNL     1      15.673   4.457  -2.635  0.00  0.00    -0.464 OA
ATOM     27  C   UNL     1      15.229   4.297  -0.437  0.00  0.00    +0.078 A 
ATOM     28  C   UNL     1      14.697   4.278  -1.706  0.00  0.00    +0.114 A 
ATOM     29  C   UNL     1      16.620   4.500  -0.596  0.00  0.00    +0.057 A 
ATOM     30  C   UNL     1      16.840   4.592  -1.951  0.00  0.00    +0.103 A 
ATOM     31  C   UNL     1      13.334   4.108  -2.230  0.00  0.00    +0.087 C 
ATOM     32  C   UNL     1      18.047   4.800  -2.762  0.00  0.00    +0.086 C 
ENDBRANCH  26  27
ENDBRANCH  20   7
ENDBRANCH   9  11
BRANCH   8  10
ATOM     10  C   UNL     1       8.363   7.262   6.258  0.00  0.00    +0.181 C 
BRANCH  10   2
ATOM      2  O   UNL     1       7.593   6.973   5.110  0.00  0.00    -0.393 OA
ATOM     33  H   UNL     1       6.818   7.562   5.126  0.00  0.00    +0.209 HD
ENDBRANCH  10   2
ENDBRANCH   8  10
BRANCH   6  12
ATOM     12  C   UNL     1      11.262   7.828   7.711  0.00  0.00    +0.143 C 
BRANCH  12  15
ATOM     15  C   UNL     1      12.513   7.999   6.899  0.00  0.00    -0.030 A 
ATOM     21  C   UNL     1      13.544   7.065   7.001  0.00  0.00    +0.005 A 
ATOM     22  C   UNL     1      12.645   9.093   6.043  0.00  0.00    +0.005 A 
ATOM     23  C   UNL     1      14.707   7.225   6.247  0.00  0.00    +0.000 A 
ATOM     24  C   UNL     1      13.807   9.252   5.289  0.00  0.00    +0.000 A 
ATOM     25  C   UNL     1      14.838   8.318   5.390  0.00  0.00    +0.000 A 
ENDBRANCH  12  15
ENDBRANCH   6  12
TORSDOF 7
ENDMDL
MODEL 3
REMARK VINA RESULT:      -7.0      4.851      8.587
REMARK  Name = 71693294
REMARK  9 active torsions:
REMARK  status: ('A' for Active; 'I' for Inactive)
REMARK    1  A    between atoms: O_2  and  C_10
REMARK    2  A    between atoms: N_6  and  C_12
REMARK    3  A    between atoms: N_7  and  C_20
REMARK    4  A    between atoms: C_8  and  C_10
REMARK    5  A    between atoms: C_9  and  C_11
REMARK    6  A    between atoms: C_12  and  C_15
REMARK    7  A    between atoms: C_26  and  C_27
REMARK    8  A    between atoms: C_28  and  C_31
REMARK    9  A    between atoms: C_30  and  C_32
REMARK                            x       y       z     vdW  Elec       q    Type
REMARK                         _______ _______ _______ _____ _____    ______ ____
ROOT
ATOM      1  O   UNL     1      10.106   8.456   6.821  0.00  0.00    -0.361 OA
ATOM      3  O   UNL     1       7.870   6.918   4.736  0.00  0.00    -0.273 OA
ATOM      6  N   UNL     1       9.687   5.965   5.847  0.00  0.00    -0.287 N 
ATOM      8  C   UNL     1      10.527   6.002   7.050  0.00  0.00    +0.135 C 
ATOM      9  C   UNL     1      10.926   7.452   7.428  0.00  0.00    +0.171 C 
ATOM     13  C   UNL     1       8.713   6.936   5.630  0.00  0.00    +0.242 C 
ATOM     14  C   UNL     1       8.762   8.059   6.638  0.00  0.00    +0.256 C 
ENDROOT
BRANCH   9  11
ATOM     11  C   UNL     1      12.360   7.749   7.033  0.00  0.00    -0.017 A 
ATOM     16  C   UNL     1      13.311   6.728   7.043  0.00  0.00    +0.008 A 
ATOM     17  C   UNL     1      12.728   9.041   6.659  0.00  0.00    +0.008 A 
ATOM     18  C   UNL     1      14.631   7.001   6.680  0.00  0.00    +0.023 A 
ATOM     19  C   UNL     1      14.047   9.313   6.296  0.00  0.00    +0.023 A 
ATOM     20  C   UNL     1      14.998   8.293   6.306  0.00  0.00    +0.034 A 
BRANCH  20   7
ATOM      5  O   UNL     1      16.438   7.791   3.725  0.00  0.00    -0.270 OA
ATOM      7  N   UNL     1      16.317   8.566   5.942  0.00  0.00    -0.281 N 
ATOM     26  C   UNL     1      16.943   8.310   4.715  0.00  0.00    +0.252 C 
ATOM     34  H   UNL     1      16.871   9.006   6.672  0.00  0.00    +0.155 HD
BRANCH  26  27
ATOM      4  O   UNL     1      20.150  10.095   4.437  0.00  0.00    -0.464 OA
ATOM     27  C   UNL     1      18.362   8.744   4.621  0.00  0.00    +0.078 A 
ATOM     28  C   UNL     1      18.792  10.044   4.497  0.00  0.00    +0.114 A 
ATOM     29  C   UNL     1      19.529   7.943   4.639  0.00  0.00    +0.057 A 
ATOM     30  C   UNL     1      20.590   8.812   4.524  0.00  0.00    +0.103 A 
ATOM     31  C   UNL     1      18.097  11.338   4.419  0.00  0.00    +0.087 C 
ATOM     32  C   UNL     1      22.046   8.621   4.482  0.00  0.00    +0.086 C 
ENDBRANCH  26  27
ENDBRANCH  20   7
ENDBRANCH   9  11
BRANCH   8  10
ATOM     10  C   UNL     1       9.830   5.295   8.219  0.00  0.00    +0.181 C 
BRANCH  10   2
ATOM      2  O   UNL     1      10.415   4.019   8.374  0.00  0.00    -0.393 OA
ATOM     33  H   UNL     1      11.105   4.098   9.057  0.00  0.00    +0.209 HD
ENDBRANCH  10   2
ENDBRANCH   8  10
BRANCH   6  12
ATOM     12  C   UNL     1       9.809   4.815   4.963  0.00  0.00    +0.143 C 
BRANCH  12  15
ATOM     15  C   UNL     1      10.854   5.029   3.905  0.00  0.00    -0.030 A 
ATOM     21  C   UNL     1      11.557   6.233   3.853  0.00  0.00    +0.005 A 
ATOM     22  C   UNL     1      11.120   4.025   2.974  0.00  0.00    +0.005 A 
ATOM     23  C   UNL     1      12.527   6.431   2.870  0.00  0.00    +0.000 A 
ATOM     24  C   UNL     1      12.091   4.223   1.993  0.00  0.00    +0.000 A 
ATOM     25  C   UNL     1      12.794   5.426   1.941  0.00  0.00    +0.000 A 
ENDBRANCH  12  15
ENDBRANCH   6  12
TORSDOF 7
ENDMDL
MODEL 4
REMARK VINA RESULT:      -6.9     22.786     25.838
REMARK  Name = 71693294
REMARK  9 active torsions:
REMARK  status: ('A' for Active; 'I' for Inactive)
REMARK    1  A    between atoms: O_2  and  C_10
REMARK    2  A    between atoms: N_6  and  C_12
REMARK    3  A    between atoms: N_7  and  C_20
REMARK    4  A    between atoms: C_8  and  C_10
REMARK    5  A    between atoms: C_9  and  C_11
REMARK    6  A    between atoms: C_12  and  C_15
REMARK    7  A    between atoms: C_26  and  C_27
REMARK    8  A    between atoms: C_28  and  C_31
REMARK    9  A    between atoms: C_30  and  C_32
REMARK                            x       y       z     vdW  Elec       q    Type
REMARK                         _______ _______ _______ _____ _____    ______ ____
ROOT
ATOM      1  O   UNL     1      -1.835 -10.113  13.064  0.00  0.00    -0.361 OA
ATOM      3  O   UNL     1      -3.137 -10.602  16.190  0.00  0.00    -0.273 OA
ATOM      6  N   UNL     1      -3.438 -11.919  14.288  0.00  0.00    -0.287 N 
ATOM      8  C   UNL     1      -2.833 -12.406  13.043  0.00  0.00    +0.135 C 
ATOM      9  C   UNL     1      -2.118 -11.268  12.268  0.00  0.00    +0.171 C 
ATOM     13  C   UNL     1      -2.787 -10.969  15.071  0.00  0.00    +0.242 C 
ATOM     14  C   UNL     1      -1.547 -10.410  14.415  0.00  0.00    +0.256 C 
ENDROOT
BRANCH   9  11
ATOM     11  C   UNL     1      -2.948 -10.803  11.086  0.00  0.00    -0.017 A 
ATOM     16  C   UNL     1      -3.724 -11.719  10.375  0.00  0.00    +0.008 A 
ATOM     17  C   UNL     1      -2.937  -9.459  10.711  0.00  0.00    +0.008 A 
ATOM     18  C   UNL     1      -4.488 -11.291   9.288  0.00  0.00    +0.023 A 
ATOM     19  C   UNL     1      -3.700  -9.032   9.625  0.00  0.00    +0.023 A 
ATOM     20  C   UNL     1      -4.476  -9.948   8.914  0.00  0.00    +0.034 A 
BRANCH  20   7
ATOM      5  O   UNL     1      -7.449  -9.914   8.530  0.00  0.00    -0.270 OA
ATOM      7  N   UNL     1      -5.240  -9.520   7.827  0.00  0.00    -0.281 N 
ATOM     26  C   UNL     1      -6.635  -9.525   7.700  0.00  0.00    +0.252 C 
ATOM     34  H   UNL     1      -4.695  -9.163   7.047  0.00  0.00    +0.155 HD
BRANCH  26  27
ATOM      4  O   UNL     1      -8.201  -7.591   4.989  0.00  0.00    -0.464 OA
ATOM     27  C   UNL     1      -7.160  -8.974   6.422  0.00  0.00    +0.078 A 
ATOM     28  C   UNL     1      -7.873  -7.805   6.290  0.00  0.00    +0.114 A 
ATOM     29  C   UNL     1      -7.042  -9.513   5.119  0.00  0.00    +0.057 A 
ATOM     30  C   UNL     1      -7.692  -8.635   4.283  0.00  0.00    +0.103 A 
ATOM     31  C   UNL     1      -8.331  -6.785   7.245  0.00  0.00    +0.087 C 
ATOM     32  C   UNL     1      -7.927  -8.614   2.832  0.00  0.00    +0.086 C 
ENDBRANCH  26  27
ENDBRANCH  20   7
ENDBRANCH   9  11
BRANCH   8  10
ATOM     10  C   UNL     1      -1.875 -13.570  13.326  0.00  0.00    +0.181 C 
BRANCH  10   2
ATOM      2  O   UNL     1      -1.864 -14.416  12.195  0.00  0.00    -0.393 OA
ATOM     33  H   UNL     1      -1.978 -13.851  11.410  0.00  0.00    +0.209 HD
ENDBRANCH  10   2
ENDBRANCH   8  10
BRANCH   6  12
ATOM     12  C   UNL     1      -4.666 -12.553  14.745  0.00  0.00    +0.143 C 
BRANCH  12  15
ATOM     15  C   UNL     1      -5.756 -12.475  13.714  0.00  0.00    -0.030 A 
ATOM     21  C   UNL     1      -6.149 -11.236  13.208  0.00  0.00    +0.005 A 
ATOM     22  C   UNL     1      -6.375 -13.641  13.264  0.00  0.00    +0.005 A 
ATOM     23  C   UNL     1      -7.161 -11.163  12.251  0.00  0.00    +0.000 A 
ATOM     24  C   UNL     1      -7.386 -13.568  12.306  0.00  0.00    +0.000 A 
ATOM     25  C   UNL     1      -7.779 -12.329  11.800  0.00  0.00    +0.000 A 
ENDBRANCH  12  15
ENDBRANCH   6  12
TORSDOF 7
ENDMDL
MODEL 5
REMARK VINA RESULT:      -6.9     37.827     40.580
REMARK  Name = 71693294
REMARK  9 active torsions:
REMARK  status: ('A' for Active; 'I' for Inactive)
REMARK    1  A    between atoms: O_2  and  C_10
REMARK    2  A    between atoms: N_6  and  C_12
REMARK    3  A    between atoms: N_7  and  C_20
REMARK    4  A    between atoms: C_8  and  C_10
REMARK    5  A    between atoms: C_9  and  C_11
REMARK    6  A    between atoms: C_12  and  C_15
REMARK    7  A    between atoms: C_26  and  C_27
REMARK    8  A    between atoms: C_28  and  C_31
REMARK    9  A    between atoms: C_30  and  C_32
REMARK                            x       y       z     vdW  Elec       q    Type
REMARK                         _______ _______ _______ _____ _____    ______ ____
ROOT
ATOM      1  O   UNL     1     -11.231   7.500  36.952  0.00  0.00    -0.361 OA
ATOM      3  O   UNL     1      -8.982  10.022  36.413  0.00  0.00    -0.273 OA
ATOM      6  N   UNL     1     -11.254   9.989  35.887  0.00  0.00    -0.287 N 
ATOM      8  C   UNL     1     -12.580   9.493  36.273  0.00  0.00    +0.135 C 
ATOM      9  C   UNL     1     -12.543   7.990  36.656  0.00  0.00    +0.171 C 
ATOM     13  C   UNL     1     -10.113   9.566  36.563  0.00  0.00    +0.242 C 
ATOM     14  C   UNL     1     -10.387   8.460  37.554  0.00  0.00    +0.256 C 
ENDROOT
BRANCH   9  11
ATOM     11  C   UNL     1     -13.102   7.125  35.543  0.00  0.00    -0.017 A 
ATOM     16  C   UNL     1     -13.535   5.827  35.817  0.00  0.00    +0.008 A 
ATOM     17  C   UNL     1     -13.184   7.627  34.243  0.00  0.00    +0.008 A 
ATOM     18  C   UNL     1     -14.049   5.031  34.793  0.00  0.00    +0.023 A 
ATOM     19  C   UNL     1     -13.698   6.831  33.220  0.00  0.00    +0.023 A 
ATOM     20  C   UNL     1     -14.130   5.534  33.494  0.00  0.00    +0.034 A 
BRANCH  20   7
ATOM      5  O   UNL     1     -12.766   3.543  31.717  0.00  0.00    -0.270 OA
ATOM      7  N   UNL     1     -14.645   4.738  32.470  0.00  0.00    -0.281 N 
ATOM     26  C   UNL     1     -13.959   3.819  31.666  0.00  0.00    +0.252 C 
ATOM     34  H   UNL     1     -15.641   4.857  32.307  0.00  0.00    +0.155 HD
BRANCH  26  27
ATOM      4  O   UNL     1     -15.917   1.425  29.670  0.00  0.00    -0.464 OA
ATOM     27  C   UNL     1     -14.794   3.097  30.670  0.00  0.00    +0.078 A 
ATOM     28  C   UNL     1     -15.150   1.769  30.738  0.00  0.00    +0.114 A 
ATOM     29  C   UNL     1     -15.380   3.601  29.484  0.00  0.00    +0.057 A 
ATOM     30  C   UNL     1     -16.052   2.545  28.912  0.00  0.00    +0.103 A 
ATOM     31  C   UNL     1     -14.871   0.695  31.703  0.00  0.00    +0.087 C 
ATOM     32  C   UNL     1     -16.856   2.408  27.690  0.00  0.00    +0.086 C 
ENDBRANCH  26  27
ENDBRANCH  20   7
ENDBRANCH   9  11
BRANCH   8  10
ATOM     10  C   UNL     1     -13.167  10.340  37.409  0.00  0.00    +0.181 C 
BRANCH  10   2
ATOM      2  O   UNL     1     -13.179   9.556  38.583  0.00  0.00    -0.393 OA
ATOM     33  H   UNL     1     -13.253  10.166  39.338  0.00  0.00    +0.209 HD
ENDBRANCH  10   2
ENDBRANCH   8  10
BRANCH   6  12
ATOM     12  C   UNL     1     -11.183  11.033  34.875  0.00  0.00    +0.143 C 
BRANCH  12  15
ATOM     15  C   UNL     1     -11.503  10.508  33.504  0.00  0.00    -0.030 A 
ATOM     21  C   UNL     1     -10.658   9.577  32.900  0.00  0.00    +0.005 A 
ATOM     22  C   UNL     1     -12.644  10.953  32.836  0.00  0.00    +0.005 A 
ATOM     23  C   UNL     1     -10.956   9.090  31.626  0.00  0.00    +0.000 A 
ATOM     24  C   UNL     1     -12.941  10.466  31.564  0.00  0.00    +0.000 A 
ATOM     25  C   UNL     1     -12.097   9.534  30.959  0.00  0.00    +0.000 A 
ENDBRANCH  12  15
ENDBRANCH   6  12
TORSDOF 7
ENDMDL
MODEL 6
REMARK VINA RESULT:      -6.7      2.371      9.154
REMARK  Name = 71693294
REMARK  9 active torsions:
REMARK  status: ('A' for Active; 'I' for Inactive)
REMARK    1  A    between atoms: O_2  and  C_10
REMARK    2  A    between atoms: N_6  and  C_12
REMARK    3  A    between atoms: N_7  and  C_20
REMARK    4  A    between atoms: C_8  and  C_10
REMARK    5  A    between atoms: C_9  and  C_11
REMARK    6  A    between atoms: C_12  and  C_15
REMARK    7  A    between atoms: C_26  and  C_27
REMARK    8  A    between atoms: C_28  and  C_31
REMARK    9  A    between atoms: C_30  and  C_32
REMARK                            x       y       z     vdW  Elec       q    Type
REMARK                         _______ _______ _______ _____ _____    ______ ____
ROOT
ATOM      1  O   UNL     1      12.212   7.367   5.811  0.00  0.00    -0.361 OA
ATOM      3  O   UNL     1      10.243   9.853   7.096  0.00  0.00    -0.273 OA
ATOM      6  N   UNL     1       9.586   7.742   6.351  0.00  0.00    -0.287 N 
ATOM      8  C   UNL     1       9.970   6.333   6.210  0.00  0.00    +0.135 C 
ATOM      9  C   UNL     1      11.419   6.183   5.676  0.00  0.00    +0.171 C 
ATOM     13  C   UNL     1      10.500   8.686   6.811  0.00  0.00    +0.242 C 
ATOM     14  C   UNL     1      11.899   8.134   6.955  0.00  0.00    +0.256 C 
ENDROOT
BRANCH   9  11
ATOM     11  C   UNL     1      11.427   5.806   4.206  0.00  0.00    -0.017 A 
ATOM     16  C   UNL     1      10.645   4.743   3.755  0.00  0.00    +0.008 A 
ATOM     17  C   UNL     1      12.216   6.524   3.306  0.00  0.00    +0.008 A 
ATOM     18  C   UNL     1      10.652   4.397   2.403  0.00  0.00    +0.023 A 
ATOM     19  C   UNL     1      12.223   6.177   1.956  0.00  0.00    +0.023 A 
ATOM     20  C   UNL     1      11.441   5.114   1.504  0.00  0.00    +0.034 A 
BRANCH  20   7
ATOM      5  O   UNL     1      12.998   3.003   0.052  0.00  0.00    -0.270 OA
ATOM      7  N   UNL     1      11.447   4.768   0.152  0.00  0.00    -0.281 N 
ATOM     26  C   UNL     1      12.198   3.767  -0.478  0.00  0.00    +0.252 C 
ATOM     34  H   UNL     1      10.822   5.323  -0.426  0.00  0.00    +0.155 HD
BRANCH  26  27
ATOM      4  O   UNL     1      12.344   3.679  -4.154  0.00  0.00    -0.464 OA
ATOM     27  C   UNL     1      11.965   3.620  -1.939  0.00  0.00    +0.078 A 
ATOM     28  C   UNL     1      12.871   3.931  -2.927  0.00  0.00    +0.114 A 
ATOM     29  C   UNL     1      10.808   3.146  -2.601  0.00  0.00    +0.057 A 
ATOM     30  C   UNL     1      11.088   3.202  -3.947  0.00  0.00    +0.103 A 
ATOM     31  C   UNL     1      14.242   4.463  -2.913  0.00  0.00    +0.087 C 
ATOM     32  C   UNL     1      10.318   2.854  -5.149  0.00  0.00    +0.086 C 
ENDBRANCH  26  27
ENDBRANCH  20   7
ENDBRANCH   9  11
BRANCH   8  10
ATOM     10  C   UNL     1       9.789   5.586   7.537  0.00  0.00    +0.181 C 
BRANCH  10   2
ATOM      2  O   UNL     1      11.034   5.030   7.904  0.00  0.00    -0.393 OA
ATOM     33  H   UNL     1      11.212   4.292   7.296  0.00  0.00    +0.209 HD
ENDBRANCH  10   2
ENDBRANCH   8  10
BRANCH   6  12
ATOM     12  C   UNL     1       8.192   8.096   6.128  0.00  0.00    +0.143 C 
BRANCH  12  15
ATOM     15  C   UNL     1       7.949   8.559   4.720  0.00  0.00    -0.030 A 
ATOM     21  C   UNL     1       8.581   7.917   3.655  0.00  0.00    +0.005 A 
ATOM     22  C   UNL     1       7.091   9.632   4.477  0.00  0.00    +0.005 A 
ATOM     23  C   UNL     1       8.355   8.348   2.348  0.00  0.00    +0.000 A 
ATOM     24  C   UNL     1       6.865  10.062   3.170  0.00  0.00    +0.000 A 
ATOM     25  C   UNL     1       7.496   9.420   2.105  0.00  0.00    +0.000 A 
ENDBRANCH  12  15
ENDBRANCH   6  12
TORSDOF 7
ENDMDL
MODEL 7
REMARK VINA RESULT:      -6.6     23.625     27.075
REMARK  Name = 71693294
REMARK  9 active torsions:
REMARK  status: ('A' for Active; 'I' for Inactive)
REMARK    1  A    between atoms: O_2  and  C_10
REMARK    2  A    between atoms: N_6  and  C_12
REMARK    3  A    between atoms: N_7  and  C_20
REMARK    4  A    between atoms: C_8  and  C_10
REMARK    5  A    between atoms: C_9  and  C_11
REMARK    6  A    between atoms: C_12  and  C_15
REMARK    7  A    between atoms: C_26  and  C_27
REMARK    8  A    between atoms: C_28  and  C_31
REMARK    9  A    between atoms: C_30  and  C_32
REMARK                            x       y       z     vdW  Elec       q    Type
REMARK                         _______ _______ _______ _____ _____    ______ ____
ROOT
ATOM      1  O   UNL     1      -3.902 -13.521  15.030  0.00  0.00    -0.361 OA
ATOM      3  O   UNL     1      -2.207 -14.268  12.153  0.00  0.00    -0.273 OA
ATOM      6  N   UNL     1      -2.381 -12.201  13.221  0.00  0.00    -0.287 N 
ATOM      8  C   UNL     1      -2.510 -11.510  14.509  0.00  0.00    +0.135 C 
ATOM      9  C   UNL     1      -3.570 -12.185  15.420  0.00  0.00    +0.171 C 
ATOM     13  C   UNL     1      -2.442 -13.591  13.151  0.00  0.00    +0.242 C 
ATOM     14  C   UNL     1      -2.822 -14.234  14.463  0.00  0.00    +0.256 C 
ENDROOT
BRANCH   9  11
ATOM     11  C   UNL     1      -4.863 -11.391  15.439  0.00  0.00    -0.017 A 
ATOM     16  C   UNL     1      -4.917 -10.163  16.098  0.00  0.00    +0.008 A 
ATOM     17  C   UNL     1      -5.997 -11.890  14.798  0.00  0.00    +0.008 A 
ATOM     18  C   UNL     1      -6.107  -9.433  16.116  0.00  0.00    +0.023 A 
ATOM     19  C   UNL     1      -7.185 -11.160  14.816  0.00  0.00    +0.023 A 
ATOM     20  C   UNL     1      -7.240  -9.932  15.475  0.00  0.00    +0.034 A 
BRANCH  20   7
ATOM      5  O   UNL     1      -8.784  -8.798  17.781  0.00  0.00    -0.270 OA
ATOM      7  N   UNL     1      -8.429  -9.202  15.492  0.00  0.00    -0.281 N 
ATOM     26  C   UNL     1      -9.112  -8.693  16.604  0.00  0.00    +0.252 C 
ATOM     34  H   UNL     1      -8.829  -9.030  14.573  0.00  0.00    +0.155 HD
BRANCH  26  27
ATOM      4  O   UNL     1     -12.505  -7.293  16.338  0.00  0.00    -0.464 OA
ATOM     27  C   UNL     1     -10.348  -7.927  16.297  0.00  0.00    +0.078 A 
ATOM     28  C   UNL     1     -11.594  -8.176  16.826  0.00  0.00    +0.114 A 
ATOM     29  C   UNL     1     -10.504  -6.820  15.429  0.00  0.00    +0.057 A 
ATOM     30  C   UNL     1     -11.833  -6.471  15.489  0.00  0.00    +0.103 A 
ATOM     31  C   UNL     1     -12.109  -9.172  17.777  0.00  0.00    +0.087 C 
ATOM     32  C   UNL     1     -12.628  -5.421  14.837  0.00  0.00    +0.086 C 
ENDBRANCH  26  27
ENDBRANCH  20   7
ENDBRANCH   9  11
BRANCH   8  10
ATOM     10  C   UNL     1      -1.151 -11.418  15.214  0.00  0.00    +0.181 C 
BRANCH  10   2
ATOM      2  O   UNL     1      -1.376 -11.046  16.557  0.00  0.00    -0.393 OA
ATOM     33  H   UNL     1      -0.576 -10.586  16.868  0.00  0.00    +0.209 HD
ENDBRANCH  10   2
ENDBRANCH   8  10
BRANCH   6  12
ATOM     12  C   UNL     1      -2.052 -11.405  12.048  0.00  0.00    +0.143 C 
BRANCH  12  15
ATOM     15  C   UNL     1      -3.247 -10.663  11.520  0.00  0.00    -0.030 A 
ATOM     21  C   UNL     1      -3.070  -9.511  10.754  0.00  0.00    +0.005 A 
ATOM     22  C   UNL     1      -4.534 -11.126  11.797  0.00  0.00    +0.005 A 
ATOM     23  C   UNL     1      -4.180  -8.822  10.265  0.00  0.00    +0.000 A 
ATOM     24  C   UNL     1      -5.642 -10.437  11.307  0.00  0.00    +0.000 A 
ATOM     25  C   UNL     1      -5.466  -9.285  10.540  0.00  0.00    +0.000 A 
ENDBRANCH  12  15
ENDBRANCH   6  12
TORSDOF 7
ENDMDL
MODEL 8
REMARK VINA RESULT:      -6.6     28.435     30.614
REMARK  Name = 71693294
REMARK  9 active torsions:
REMARK  status: ('A' for Active; 'I' for Inactive)
REMARK    1  A    between atoms: O_2  and  C_10
REMARK    2  A    between atoms: N_6  and  C_12
REMARK    3  A    between atoms: N_7  and  C_20
REMARK    4  A    between atoms: C_8  and  C_10
REMARK    5  A    between atoms: C_9  and  C_11
REMARK    6  A    between atoms: C_12  and  C_15
REMARK    7  A    between atoms: C_26  and  C_27
REMARK    8  A    between atoms: C_28  and  C_31
REMARK    9  A    between atoms: C_30  and  C_32
REMARK                            x       y       z     vdW  Elec       q    Type
REMARK                         _______ _______ _______ _____ _____    ______ ____
ROOT
ATOM      1  O   UNL     1      -5.995 -10.043  17.664  0.00  0.00    -0.361 OA
ATOM      3  O   UNL     1      -5.951 -11.334  20.833  0.00  0.00    -0.273 OA
ATOM      6  N   UNL     1      -7.280 -11.994  19.032  0.00  0.00    -0.287 N 
ATOM      8  C   UNL     1      -7.360 -12.136  17.574  0.00  0.00    +0.135 C 
ATOM      9  C   UNL     1      -6.814 -10.881  16.843  0.00  0.00    +0.171 C 
ATOM     13  C   UNL     1      -6.182 -11.378  19.627  0.00  0.00    +0.242 C 
ATOM     14  C   UNL     1      -5.240 -10.751  18.626  0.00  0.00    +0.256 C 
ENDROOT
BRANCH   9  11
ATOM     11  C   UNL     1      -7.945 -10.019  16.313  0.00  0.00    -0.017 A 
ATOM     16  C   UNL     1      -8.255 -10.033  14.954  0.00  0.00    +0.008 A 
ATOM     17  C   UNL     1      -8.675  -9.212  17.187  0.00  0.00    +0.008 A 
ATOM     18  C   UNL     1      -9.294  -9.240  14.466  0.00  0.00    +0.023 A 
ATOM     19  C   UNL     1      -9.713  -8.419  16.700  0.00  0.00    +0.023 A 
ATOM     20  C   UNL     1     -10.024  -8.433  15.340  0.00  0.00    +0.034 A 
BRANCH  20   7
ATOM      5  O   UNL     1     -10.970  -5.728  16.218  0.00  0.00    -0.270 OA
ATOM      7  N   UNL     1     -11.064  -7.641  14.853  0.00  0.00    -0.281 N 
ATOM     26  C   UNL     1     -11.465  -6.376  15.302  0.00  0.00    +0.252 C 
ATOM     34  H   UNL     1     -11.576  -8.051  14.078  0.00  0.00    +0.155 HD
BRANCH  26  27
ATOM      4  O   UNL     1     -14.700  -5.379  13.856  0.00  0.00    -0.464 OA
ATOM     27  C   UNL     1     -12.599  -5.767  14.558  0.00  0.00    +0.078 A 
ATOM     28  C   UNL     1     -13.920  -6.135  14.674  0.00  0.00    +0.114 A 
ATOM     29  C   UNL     1     -12.565  -4.718  13.608  0.00  0.00    +0.057 A 
ATOM     30  C   UNL     1     -13.867  -4.520  13.211  0.00  0.00    +0.103 A 
ATOM     31  C   UNL     1     -14.623  -7.147  15.477  0.00  0.00    +0.087 C 
ATOM     32  C   UNL     1     -14.500  -3.592  12.264  0.00  0.00    +0.086 C 
ENDBRANCH  26  27
ENDBRANCH  20   7
ENDBRANCH   9  11
BRANCH   8  10
ATOM     10  C   UNL     1      -6.635 -13.406  17.112  0.00  0.00    +0.181 C 
BRANCH  10   2
ATOM      2  O   UNL     1      -5.874 -13.087  15.966  0.00  0.00    -0.393 OA
ATOM     33  H   UNL     1      -5.082 -12.608  16.268  0.00  0.00    +0.209 HD
ENDBRANCH  10   2
ENDBRANCH   8  10
BRANCH   6  12
ATOM     12  C   UNL     1      -8.308 -12.634  19.839  0.00  0.00    +0.143 C 
BRANCH  12  15
ATOM     15  C   UNL     1      -9.662 -12.025  19.609  0.00  0.00    -0.030 A 
ATOM     21  C   UNL     1      -9.949 -10.754  20.109  0.00  0.00    +0.005 A 
ATOM     22  C   UNL     1     -10.632 -12.729  18.896  0.00  0.00    +0.005 A 
ATOM     23  C   UNL     1     -11.206 -10.189  19.895  0.00  0.00    +0.000 A 
ATOM     24  C   UNL     1     -11.888 -12.163  18.682  0.00  0.00    +0.000 A 
ATOM     25  C   UNL     1     -12.175 -10.893  19.181  0.00  0.00    +0.000 A 
ENDBRANCH  12  15
ENDBRANCH   6  12
TORSDOF 7
ENDMDL
MODEL 9
REMARK VINA RESULT:      -6.6     23.089     26.045
REMARK  Name = 71693294
REMARK  9 active torsions:
REMARK  status: ('A' for Active; 'I' for Inactive)
REMARK    1  A    between atoms: O_2  and  C_10
REMARK    2  A    between atoms: N_6  and  C_12
REMARK    3  A    between atoms: N_7  and  C_20
REMARK    4  A    between atoms: C_8  and  C_10
REMARK    5  A    between atoms: C_9  and  C_11
REMARK    6  A    between atoms: C_12  and  C_15
REMARK    7  A    between atoms: C_26  and  C_27
REMARK    8  A    between atoms: C_28  and  C_31
REMARK    9  A    between atoms: C_30  and  C_32
REMARK                            x       y       z     vdW  Elec       q    Type
REMARK                         _______ _______ _______ _____ _____    ______ ____
ROOT
ATOM      1  O   UNL     1      -1.665  -9.893  13.754  0.00  0.00    -0.361 OA
ATOM      3  O   UNL     1      -2.288 -10.806  16.992  0.00  0.00    -0.273 OA
ATOM      6  N   UNL     1      -2.997 -11.868  15.040  0.00  0.00    -0.287 N 
ATOM      8  C   UNL     1      -2.672 -12.179  13.643  0.00  0.00    +0.135 C 
ATOM      9  C   UNL     1      -2.122 -10.939  12.890  0.00  0.00    +0.171 C 
ATOM     13  C   UNL     1      -2.185 -11.018  15.786  0.00  0.00    +0.242 C 
ATOM     14  C   UNL     1      -1.104 -10.358  14.964  0.00  0.00    +0.256 C 
ENDROOT
BRANCH   9  11
ATOM     11  C   UNL     1      -3.176 -10.337  11.980  0.00  0.00    -0.017 A 
ATOM     16  C   UNL     1      -4.511 -10.302  12.386  0.00  0.00    +0.008 A 
ATOM     17  C   UNL     1      -2.812  -9.819  10.737  0.00  0.00    +0.008 A 
ATOM     18  C   UNL     1      -5.481  -9.748  11.549  0.00  0.00    +0.023 A 
ATOM     19  C   UNL     1      -3.781  -9.266   9.901  0.00  0.00    +0.023 A 
ATOM     20  C   UNL     1      -5.115  -9.230  10.307  0.00  0.00    +0.034 A 
BRANCH  20   7
ATOM      5  O   UNL     1      -6.815 -10.514   8.197  0.00  0.00    -0.270 OA
ATOM      7  N   UNL     1      -6.085  -8.676   9.470  0.00  0.00    -0.281 N 
ATOM     26  C   UNL     1      -6.855  -9.325   8.496  0.00  0.00    +0.252 C 
ATOM     34  H   UNL     1      -6.233  -7.680   9.604  0.00  0.00    +0.155 HD
BRANCH  26  27
ATOM      4  O   UNL     1      -8.853  -7.375   6.098  0.00  0.00    -0.464 OA
ATOM     27  C   UNL     1      -7.832  -8.464   7.780  0.00  0.00    +0.078 A 
ATOM     28  C   UNL     1      -7.822  -8.196   6.430  0.00  0.00    +0.114 A 
ATOM     29  C   UNL     1      -8.941  -7.763   8.311  0.00  0.00    +0.057 A 
ATOM     30  C   UNL     1      -9.529  -7.116   7.248  0.00  0.00    +0.103 A 
ATOM     31  C   UNL     1      -6.946  -8.608   5.323  0.00  0.00    +0.087 C 
ATOM     32  C   UNL     1     -10.701  -6.238   7.129  0.00  0.00    +0.086 C 
ENDBRANCH  26  27
ENDBRANCH  20   7
ENDBRANCH   9  11
BRANCH   8  10
ATOM     10  C   UNL     1      -1.690 -13.355  13.565  0.00  0.00    +0.181 C 
BRANCH  10   2
ATOM      2  O   UNL     1      -1.924 -14.044  12.354  0.00  0.00    -0.393 OA
ATOM     33  H   UNL     1      -1.299 -14.789  12.320  0.00  0.00    +0.209 HD
ENDBRANCH  10   2
ENDBRANCH   8  10
BRANCH   6  12
ATOM     12  C   UNL     1      -4.109 -12.576  15.657  0.00  0.00    +0.143 C 
BRANCH  12  15
ATOM     15  C   UNL     1      -5.415 -11.868  15.440  0.00  0.00    -0.030 A 
ATOM     21  C   UNL     1      -5.642 -10.625  16.032  0.00  0.00    +0.005 A 
ATOM     22  C   UNL     1      -6.402 -12.453  14.646  0.00  0.00    +0.005 A 
ATOM     23  C   UNL     1      -6.856  -9.968  15.830  0.00  0.00    +0.000 A 
ATOM     24  C   UNL     1      -7.615 -11.795  14.444  0.00  0.00    +0.000 A 
ATOM     25  C   UNL     1      -7.842 -10.552  15.036  0.00  0.00    +0.000 A 
ENDBRANCH  12  15
ENDBRANCH   6  12
TORSDOF 7
ENDMDL
MODEL 10
REMARK VINA RESULT:      -6.5      2.599      8.632
REMARK  Name = 71693294
REMARK  9 active torsions:
REMARK  status: ('A' for Active; 'I' for Inactive)
REMARK    1  A    between atoms: O_2  and  C_10
REMARK    2  A    between atoms: N_6  and  C_12
REMARK    3  A    between atoms: N_7  and  C_20
REMARK    4  A    between atoms: C_8  and  C_10
REMARK    5  A    between atoms: C_9  and  C_11
REMARK    6  A    between atoms: C_12  and  C_15
REMARK    7  A    between atoms: C_26  and  C_27
REMARK    8  A    between atoms: C_28  and  C_31
REMARK    9  A    between atoms: C_30  and  C_32
REMARK                            x       y       z     vdW  Elec       q    Type
REMARK                         _______ _______ _______ _____ _____    ______ ____
ROOT
ATOM      1  O   UNL     1       9.777   4.548   6.254  0.00  0.00    -0.361 OA
ATOM      3  O   UNL     1      11.616   5.845   8.833  0.00  0.00    -0.273 OA
ATOM      6  N   UNL     1      10.833   6.948   6.931  0.00  0.00    -0.287 N 
ATOM      8  C   UNL     1       9.761   7.028   5.933  0.00  0.00    +0.135 C 
ATOM      9  C   UNL     1       9.354   5.625   5.411  0.00  0.00    +0.171 C 
ATOM     13  C   UNL     1      10.850   5.923   7.875  0.00  0.00    +0.242 C 
ATOM     14  C   UNL     1       9.792   4.874   7.628  0.00  0.00    +0.256 C 
ENDROOT
BRANCH   9  11
ATOM     11  C   UNL     1       9.928   5.363   4.031  0.00  0.00    -0.017 A 
ATOM     16  C   UNL     1       9.778   6.314   3.022  0.00  0.00    +0.008 A 
ATOM     17  C   UNL     1      10.608   4.173   3.773  0.00  0.00    +0.008 A 
ATOM     18  C   UNL     1      10.306   6.074   1.752  0.00  0.00    +0.023 A 
ATOM     19  C   UNL     1      11.136   3.933   2.505  0.00  0.00    +0.023 A 
ATOM     20  C   UNL     1      10.985   4.883   1.495  0.00  0.00    +0.034 A 
BRANCH  20   7
ATOM      5  O   UNL     1      13.350   3.239   0.662  0.00  0.00    -0.270 OA
ATOM      7  N   UNL     1      11.515   4.643   0.226  0.00  0.00    -0.281 N 
ATOM     26  C   UNL     1      12.628   3.861  -0.109  0.00  0.00    +0.252 C 
ATOM     34  H   UNL     1      11.013   5.100  -0.531  0.00  0.00    +0.155 HD
BRANCH  26  27
ATOM      4  O   UNL     1      13.982   4.094  -3.524  0.00  0.00    -0.464 OA
ATOM     27  C   UNL     1      12.930   3.774  -1.563  0.00  0.00    +0.078 A 
ATOM     28  C   UNL     1      13.996   4.373  -2.193  0.00  0.00    +0.114 A 
ATOM     29  C   UNL     1      12.215   3.083  -2.569  0.00  0.00    +0.057 A 
ATOM     30  C   UNL     1      12.895   3.309  -3.744  0.00  0.00    +0.103 A 
ATOM     31  C   UNL     1      15.102   5.223  -1.726  0.00  0.00    +0.087 C 
ATOM     32  C   UNL     1      12.676   2.877  -5.131  0.00  0.00    +0.086 C 
ENDBRANCH  26  27
ENDBRANCH  20   7
ENDBRANCH   9  11
BRANCH   8  10
ATOM     10  C   UNL     1       8.550   7.782   6.496  0.00  0.00    +0.181 C 
BRANCH  10   2
ATOM      2  O   UNL     1       7.537   7.788   5.513  0.00  0.00    -0.393 OA
ATOM     33  H   UNL     1       6.812   8.343   5.848  0.00  0.00    +0.209 HD
ENDBRANCH  10   2
ENDBRANCH   8  10
BRANCH   6  12
ATOM     12  C   UNL     1      11.795   8.038   6.992  0.00  0.00    +0.143 C 
BRANCH  12  15
ATOM     15  C   UNL     1      12.975   7.796   6.095  0.00  0.00    -0.030 A 
ATOM     21  C   UNL     1      12.781   7.573   4.732  0.00  0.00    +0.005 A 
ATOM     22  C   UNL     1      14.265   7.794   6.626  0.00  0.00    +0.005 A 
ATOM     23  C   UNL     1      13.878   7.348   3.899  0.00  0.00    +0.000 A 
ATOM     24  C   UNL     1      15.361   7.571   5.794  0.00  0.00    +0.000 A 
ATOM     25  C   UNL     1      15.168   7.348   4.430  0.00  0.00    +0.000 A 
ENDBRANCH  12  15
ENDBRANCH   6  12
TORSDOF 7
ENDMDL
