REMARK  Name = 11912476
REMARK  8 active torsions:
REMARK  status: ('A' for Active; 'I' for Inactive)
REMARK    1  A    between atoms: O_3  and  C_12
REMARK    2  A    between atoms: O_3  and  C_21
REMARK    3  A    between atoms: N_5  and  C_11
REMARK    4  A    between atoms: N_6  and  C_15
REMARK    5  A    between atoms: C_23  and  C_24
REMARK    6  A    between atoms: C_23  and  C_27
REMARK    7  A    between atoms: C_23  and  C_28
REMARK    8  A    between atoms: C_23  and  C_29
REMARK                            x       y       z     vdW  Elec       q    Type
REMARK                         _______ _______ _______ _____ _____    ______ ____
ROOT
ATOM      1  O   UNL     1       0.957   0.287  -1.138  0.00  0.00    -0.368 OA
ATOM      2  O   UNL     1      -0.741  -2.192  -0.520  0.00  0.00    -0.368 OA
ATOM      9  C   UNL     1      -0.860  -0.820  -0.090  0.00  0.00    +0.173 C 
ATOM     10  C   UNL     1       0.550  -0.299   0.109  0.00  0.00    +0.192 C 
ATOM     11  C   UNL     1      -1.407   0.029  -1.213  0.00  0.00    +0.130 C 
ATOM     12  C   UNL     1       1.324  -1.559   0.414  0.00  0.00    +0.235 C 
ATOM     13  C   UNL     1      -0.164   0.320  -2.035  0.00  0.00    +0.185 C 
ATOM     14  C   UNL     1       0.641  -2.575  -0.474  0.00  0.00    +0.207 C 
ENDROOT
BRANCH  11   5
ATOM      5  N   UNL     1      -1.963   1.258  -0.689  0.00  0.00    -0.306 N 
ATOM      7  N   UNL     1      -4.040   0.261  -0.246  0.00  0.00    -0.219 NA
ATOM      8  N   UNL     1      -3.652   2.586   0.254  0.00  0.00    -0.223 NA
ATOM     22  C   UNL     1      -3.257   1.372  -0.212  0.00  0.00    +0.216 A 
ATOM     24  C   UNL     1      -5.295   0.407   0.226  0.00  0.00    +0.052 A 
ATOM     25  C   UNL     1      -5.794   1.594   0.722  0.00  0.00    +0.043 A 
ATOM     26  C   UNL     1      -4.919   2.661   0.711  0.00  0.00    +0.116 A 
ATOM     30  H   UNL     1      -1.372   2.078  -0.611  0.00  0.00    +0.149 HD
BRANCH  24  23
ATOM     23  C   UNL     1      -6.168  -0.802   0.197  0.00  0.00    +0.005 C 
ATOM     27  C   UNL     1      -5.505  -2.095  -0.383  0.00  0.00    +0.017 C 
ATOM     28  C   UNL     1      -6.647  -1.188   1.631  0.00  0.00    +0.017 C 
ATOM     29  C   UNL     1      -7.439  -0.561  -0.675  0.00  0.00    +0.017 C 
ENDBRANCH  24  23
ENDBRANCH  11   5
BRANCH  12   3
ATOM      3  O   UNL     1       2.703  -1.454   0.136  0.00  0.00    -0.442 OA
BRANCH   3  21
ATOM      4  O   UNL     1       2.909   0.197   1.720  0.00  0.00    -0.226 OA
ATOM      6  N   UNL     1       4.738  -0.528   0.491  0.00  0.00    -0.278 N 
ATOM     21  C   UNL     1       3.410  -0.524   0.864  0.00  0.00    +0.401 C 
ATOM     31  H   UNL     1       5.009  -1.147  -0.266  0.00  0.00    +0.152 HD
BRANCH   6  15
ATOM     15  C   UNL     1       5.738   0.338   1.075  0.00  0.00    +0.076 C 
ATOM     16  C   UNL     1       5.805   1.679   0.337  0.00  0.00    +0.022 C 
ATOM     17  C   UNL     1       7.109  -0.347   1.109  0.00  0.00    +0.022 C 
ATOM     18  C   UNL     1       6.433   1.551  -1.052  0.00  0.00    +0.002 C 
ATOM     19  C   UNL     1       7.734  -0.472  -0.281  0.00  0.00    +0.002 C 
ATOM     20  C   UNL     1       7.800   0.877  -0.991  0.00  0.00    +0.000 C 
ENDBRANCH   6  15
ENDBRANCH   3  21
ENDBRANCH  12   3
TORSDOF 5
