REMARK  Name = 40777506
REMARK  11 active torsions:
REMARK  status: ('A' for Active; 'I' for Inactive)
REMARK    1  A    between atoms: O_3  and  C_27
REMARK    2  A    between atoms: O_3  and  C_28
REMARK    3  A    between atoms: N_5  and  C_16
REMARK    4  A    between atoms: C_7  and  C_11
REMARK    5  A    between atoms: C_8  and  C_13
REMARK    6  A    between atoms: C_11  and  C_14
REMARK    7  A    between atoms: C_13  and  C_15
REMARK    8  A    between atoms: C_16  and  C_18
REMARK    9  A    between atoms: C_16  and  C_19
REMARK   10  A    between atoms: C_16  and  C_20
REMARK   11  A    between atoms: C_21  and  C_22
REMARK                            x       y       z     vdW  Elec       q    Type
REMARK                         _______ _______ _______ _____ _____    ______ ____
ROOT
ATOM      4  N   UNL     1       1.288  -3.244  -0.333  0.00  0.00    -0.316 NA
ATOM      7  C   UNL     1       2.745  -0.916   0.747  0.00  0.00    +0.004 C 
ATOM      8  C   UNL     1       1.217  -0.906   0.502  0.00  0.00    +0.012 C 
ATOM      9  C   UNL     1       3.212  -2.368   0.944  0.00  0.00    +0.019 C 
ATOM     10  C   UNL     1       0.814  -1.888  -0.611  0.00  0.00    +0.085 C 
ATOM     12  C   UNL     1       2.740  -3.291  -0.178  0.00  0.00    +0.081 C 
ATOM     29  H   UNL     1       1.010  -3.862  -1.094  0.00  0.00    +0.122 HD
ENDROOT
BRANCH   7  11
ATOM     11  C   UNL     1       3.557  -0.227  -0.356  0.00  0.00    +0.099 C 
BRANCH  11  14
ATOM      1  O   UNL     1       5.333   0.017   1.268  0.00  0.00    -0.276 OA
ATOM      5  N   UNL     1       5.654   0.796  -0.898  0.00  0.00    -0.311 N 
ATOM     14  C   UNL     1       4.931   0.194   0.122  0.00  0.00    +0.214 C 
ATOM     30  H   UNL     1       5.220   0.891  -1.812  0.00  0.00    +0.149 HD
BRANCH   5  16
ATOM     16  C   UNL     1       6.997   1.297  -0.723  0.00  0.00    +0.026 C 
ATOM     18  C   UNL     1       7.491   1.896  -2.045  0.00  0.00    +0.031 C 
ATOM     19  C   UNL     1       6.992   2.376   0.365  0.00  0.00    +0.031 C 
ATOM     20  C   UNL     1       7.918   0.144  -0.305  0.00  0.00    +0.031 C 
ENDBRANCH   5  16
ENDBRANCH  11  14
ENDBRANCH   7  11
BRANCH   8  13
ATOM     13  C   UNL     1       0.665   0.490   0.213  0.00  0.00    +0.064 C 
BRANCH  13  15
ATOM      2  O   UNL     1      -2.611   0.895   1.650  0.00  0.00    -0.354 OA
ATOM      6  N   UNL     1      -1.224   0.922   1.724  0.00  0.00    -0.083 NA
ATOM     15  C   UNL     1      -0.805   0.569   0.506  0.00  0.00    +0.085 A 
ATOM     17  C   UNL     1      -1.873   0.309  -0.371  0.00  0.00    +0.076 A 
ATOM     21  C   UNL     1      -2.986   0.528   0.398  0.00  0.00    +0.167 A 
BRANCH  21  22
ATOM     22  C   UNL     1      -4.399   0.456   0.168  0.00  0.00    +0.020 A 
ATOM     23  C   UNL     1      -4.884   0.088  -1.087  0.00  0.00    +0.015 A 
ATOM     24  C   UNL     1      -5.289   0.752   1.201  0.00  0.00    +0.015 A 
ATOM     25  C   UNL     1      -6.259   0.017  -1.310  0.00  0.00    +0.046 A 
ATOM     26  C   UNL     1      -6.664   0.681   0.978  0.00  0.00    +0.046 A 
ATOM     27  C   UNL     1      -7.149   0.313  -0.277  0.00  0.00    +0.120 A 
BRANCH  27   3
ATOM      3  O   UNL     1      -8.491   0.241  -0.494  0.00  0.00    -0.495 OA
ATOM     28  C   UNL     1      -8.918  -0.144  -1.800  0.00  0.00    +0.277 C 
ENDBRANCH  27   3
ENDBRANCH  21  22
ENDBRANCH  13  15
ENDBRANCH   8  13
TORSDOF 7
