REMARK  Name = 45361543
REMARK  10 active torsions:
REMARK  status: ('A' for Active; 'I' for Inactive)
REMARK    1  A    between atoms: O_1  and  C_12
REMARK    2  A    between atoms: N_5  and  C_16
REMARK    3  A    between atoms: N_6  and  C_26
REMARK    4  A    between atoms: C_9  and  C_19
REMARK    5  A    between atoms: C_11  and  C_21
REMARK    6  A    between atoms: C_15  and  C_20
REMARK    7  A    between atoms: C_20  and  C_22
REMARK    8  A    between atoms: C_20  and  C_23
REMARK    9  A    between atoms: C_24  and  C_25
REMARK   10  A    between atoms: C_26  and  C_28
REMARK                            x       y       z     vdW  Elec       q    Type
REMARK                         _______ _______ _______ _____ _____    ______ ____
ROOT
ATOM      9  C   UNL     1       0.036  -0.171  -1.526  0.00  0.00    -0.027 C 
ATOM     10  C   UNL     1      -0.178   0.314  -0.054  0.00  0.00    +0.028 C 
ATOM     11  C   UNL     1      -1.681   0.700   0.194  0.00  0.00    +0.012 C 
ATOM     12  C   UNL     1       0.864   1.400   0.340  0.00  0.00    +0.122 C 
ATOM     13  C   UNL     1       1.497  -0.649  -1.704  0.00  0.00    +0.007 C 
ATOM     14  C   UNL     1      -0.890  -1.378  -1.800  0.00  0.00    +0.009 C 
ATOM     15  C   UNL     1       2.319   0.956   0.062  0.00  0.00    +0.029 C 
ATOM     16  C   UNL     1      -2.609  -0.497  -0.156  0.00  0.00    +0.076 C 
ATOM     17  C   UNL     1       2.520   0.424  -1.357  0.00  0.00    +0.007 C 
ATOM     18  C   UNL     1      -2.360  -1.072  -1.550  0.00  0.00    +0.023 C 
ATOM     19  C   UNL     1      -0.254   0.940  -2.566  0.00  0.00    +0.011 C 
ATOM     21  C   UNL     1      -1.970   1.159   1.633  0.00  0.00    +0.010 C 
ENDROOT
BRANCH  16   5
ATOM      3  O   UNL     1      -4.768  -2.229   0.610  0.00  0.00    -0.268 OA
ATOM      5  N   UNL     1      -4.008  -0.140  -0.050  0.00  0.00    -0.307 N 
ATOM     24  C   UNL     1      -4.978  -1.052   0.329  0.00  0.00    +0.264 C 
ATOM     34  H   UNL     1      -4.288   0.799  -0.320  0.00  0.00    +0.149 HD
BRANCH  24  25
ATOM      7  N   UNL     1      -6.544   0.758   0.027  0.00  0.00    -0.247 NA
ATOM      8  N   UNL     1      -8.694  -0.885   0.762  0.00  0.00    -0.259 NA
ATOM     25  C   UNL     1      -6.371  -0.535   0.364  0.00  0.00    +0.143 A 
ATOM     27  C   UNL     1      -7.427  -1.342   0.725  0.00  0.00    +0.143 A 
ATOM     29  C   UNL     1      -7.811   1.216   0.065  0.00  0.00    +0.131 A 
ATOM     31  C   UNL     1      -8.867   0.409   0.426  0.00  0.00    +0.130 A 
ENDBRANCH  24  25
ENDBRANCH  16   5
BRANCH  12   1
ATOM      1  O   UNL     1       0.777   1.659   1.742  0.00  0.00    -0.391 OA
ATOM     35  H   UNL     1       0.961   0.829   2.214  0.00  0.00    +0.210 HD
ENDBRANCH  12   1
BRANCH  15  20
ATOM     20  C   UNL     1       3.321   2.085   0.333  0.00  0.00    +0.077 C 
ATOM     22  C   UNL     1       3.006   3.288  -0.550  0.00  0.00    +0.017 C 
BRANCH  20  23
ATOM      2  O   UNL     1       5.315   1.679  -0.979  0.00  0.00    -0.276 OA
ATOM      6  N   UNL     1       5.298   1.021   1.245  0.00  0.00    -0.308 N 
ATOM     23  C   UNL     1       4.743   1.584   0.105  0.00  0.00    +0.217 C 
ATOM     36  H   UNL     1       4.741   0.958   2.093  0.00  0.00    +0.149 HD
BRANCH   6  26
ATOM     26  C   UNL     1       6.635   0.475   1.276  0.00  0.00    +0.178 C 
BRANCH  26  28
ATOM      4  O   UNL     1       6.199  -1.253  -0.377  0.00  0.00    -0.466 OA
ATOM     28  C   UNL     1       6.661  -0.970   0.869  0.00  0.00    +0.122 A 
ATOM     30  C   UNL     1       7.067  -2.119   1.507  0.00  0.00    +0.046 A 
ATOM     32  C   UNL     1       6.840  -3.176   0.593  0.00  0.00    +0.041 A 
ATOM     33  C   UNL     1       6.312  -2.598  -0.537  0.00  0.00    +0.195 A 
ENDBRANCH  26  28
ENDBRANCH   6  26
ENDBRANCH  20  23
ENDBRANCH  15  20
TORSDOF 7
