MODEL 1
REMARK VINA RESULT:      -6.7      0.000      0.000
REMARK  Name = 7113084
REMARK  7 active torsions:
REMARK  status: ('A' for Active; 'I' for Inactive)
REMARK    1  A    between atoms: N_6  and  C_12
REMARK    2  A    between atoms: N_8  and  C_25
REMARK    3  A    between atoms: N_9  and  C_29
REMARK    4  A    between atoms: C_18  and  C_23
REMARK    5  A    between atoms: C_25  and  C_26
REMARK    6  A    between atoms: C_25  and  C_27
REMARK    7  A    between atoms: C_26  and  C_28
REMARK                            x       y       z     vdW  Elec       q    Type
REMARK                         _______ _______ _______ _____ _____    ______ ____
ROOT
ATOM      1  O   UNL     1     -10.260  -9.784  13.243  0.00  0.00    -0.253 OA
ATOM      3  O   UNL     1      -4.219  -9.801   9.133  0.00  0.00    -0.252 OA
ATOM      5  N   UNL     1      -8.119  -9.722  12.338  0.00  0.00    -0.271 N 
ATOM      6  N   UNL     1      -8.488  -9.364  14.646  0.00  0.00    -0.296 N 
ATOM      7  N   UNL     1      -6.309 -10.096  10.083  0.00  0.00    -0.282 N 
ATOM      9  N   UNL     1      -5.659 -11.389   8.224  0.00  0.00    -0.269 N 
ATOM     18  C   UNL     1      -6.694  -9.376  12.439  0.00  0.00    +0.181 C 
ATOM     19  C   UNL     1      -6.063  -9.051  11.084  0.00  0.00    +0.141 C 
ATOM     20  C   UNL     1      -8.629 -10.008  10.994  0.00  0.00    +0.129 C 
ATOM     21  C   UNL     1      -7.619 -10.756  10.133  0.00  0.00    +0.128 C 
ATOM     22  C   UNL     1      -9.044  -9.632  13.399  0.00  0.00    +0.303 C 
ATOM     24  C   UNL     1      -5.305 -10.387   9.129  0.00  0.00    +0.307 C 
ATOM     39  H   UNL     1      -7.483  -9.361  14.760  0.00  0.00    +0.151 HD
ATOM     41  H   UNL     1      -6.559 -11.842   8.328  0.00  0.00    +0.156 HD
ENDROOT
BRANCH   6  12
ATOM     12  C   UNL     1      -9.298  -9.244  15.839  0.00  0.00    +0.074 C 
ATOM     13  C   UNL     1      -9.829 -10.611  16.284  0.00  0.00    +0.022 C 
ATOM     14  C   UNL     1      -8.519  -8.557  16.966  0.00  0.00    +0.022 C 
ATOM     15  C   UNL     1      -8.733 -11.502  16.870  0.00  0.00    +0.002 C 
ATOM     16  C   UNL     1      -7.426  -9.451  17.551  0.00  0.00    +0.002 C 
ATOM     17  C   UNL     1      -7.980 -10.800  17.997  0.00  0.00    +0.000 C 
ENDBRANCH   6  12
BRANCH   9  29
ATOM     29  C   UNL     1      -4.883 -11.907   7.156  0.00  0.00    +0.035 A 
ATOM     32  C   UNL     1      -4.020 -12.980   7.379  0.00  0.00    +0.023 A 
ATOM     33  C   UNL     1      -4.982 -11.343   5.884  0.00  0.00    +0.023 A 
ATOM     35  C   UNL     1      -3.256 -13.490   6.329  0.00  0.00    +0.002 A 
ATOM     36  C   UNL     1      -4.218 -11.853   4.834  0.00  0.00    +0.002 A 
ATOM     37  C   UNL     1      -3.355 -12.927   5.056  0.00  0.00    +0.000 A 
ENDBRANCH   9  29
BRANCH  18  23
ATOM      2  O   UNL     1      -6.597 -11.537  13.458  0.00  0.00    -0.274 OA
ATOM      8  N   UNL     1      -4.618 -10.354  13.134  0.00  0.00    -0.302 N 
ATOM     23  C   UNL     1      -5.986 -10.548  13.059  0.00  0.00    +0.236 C 
ATOM     40  H   UNL     1      -4.215  -9.490  12.787  0.00  0.00    +0.150 HD
BRANCH   8  25
ATOM     25  C   UNL     1      -3.713 -11.323  13.709  0.00  0.00    +0.163 C 
BRANCH  25  27
ATOM      4  O   UNL     1      -1.654 -12.312  12.881  0.00  0.00    -0.274 OA
ATOM     10  N   UNL     1      -2.664 -10.670  11.632  0.00  0.00    -0.328 N 
ATOM     27  C   UNL     1      -2.559 -11.495  12.731  0.00  0.00    +0.231 C 
ATOM     42  H   UNL     1      -3.430 -10.016  11.510  0.00  0.00    +0.145 HD
ATOM     43  H   UNL     1      -1.967 -10.694  10.896  0.00  0.00    +0.145 HD
ENDBRANCH  25  27
BRANCH  25  26
ATOM     26  C   UNL     1      -3.187 -10.883  15.081  0.00  0.00    +0.068 C 
BRANCH  26  28
ATOM     11  N   UNL     1      -5.171 -13.481  16.996  0.00  0.00    -0.263 NA
ATOM     28  C   UNL     1      -3.865 -11.599  16.223  0.00  0.00    -0.027 A 
ATOM     30  C   UNL     1      -3.829 -11.085  17.514  0.00  0.00    +0.006 A 
ATOM     31  C   UNL     1      -4.543 -12.790  16.019  0.00  0.00    +0.114 A 
ATOM     34  C   UNL     1      -4.463 -11.766  18.547  0.00  0.00    +0.020 A 
ATOM     38  C   UNL     1      -5.115 -12.950  18.238  0.00  0.00    +0.111 A 
ENDBRANCH  26  28
ENDBRANCH  25  26
ENDBRANCH   8  25
ENDBRANCH  18  23
TORSDOF 7
ENDMDL
MODEL 2
REMARK VINA RESULT:      -6.5      3.749      5.639
REMARK  Name = 7113084
REMARK  7 active torsions:
REMARK  status: ('A' for Active; 'I' for Inactive)
REMARK    1  A    between atoms: N_6  and  C_12
REMARK    2  A    between atoms: N_8  and  C_25
REMARK    3  A    between atoms: N_9  and  C_29
REMARK    4  A    between atoms: C_18  and  C_23
REMARK    5  A    between atoms: C_25  and  C_26
REMARK    6  A    between atoms: C_25  and  C_27
REMARK    7  A    between atoms: C_26  and  C_28
REMARK                            x       y       z     vdW  Elec       q    Type
REMARK                         _______ _______ _______ _____ _____    ______ ____
ROOT
ATOM      1  O   UNL     1      -9.247  -9.827  12.633  0.00  0.00    -0.253 OA
ATOM      3  O   UNL     1      -2.798 -12.079  15.227  0.00  0.00    -0.252 OA
ATOM      5  N   UNL     1      -7.329 -10.331  13.847  0.00  0.00    -0.271 N 
ATOM      6  N   UNL     1      -9.053  -9.000  14.768  0.00  0.00    -0.296 N 
ATOM      7  N   UNL     1      -4.809 -11.771  14.123  0.00  0.00    -0.282 N 
ATOM      9  N   UNL     1      -3.604 -13.778  13.854  0.00  0.00    -0.269 N 
ATOM     18  C   UNL     1      -6.436 -10.093  14.991  0.00  0.00    +0.181 C 
ATOM     19  C   UNL     1      -4.974 -10.425  14.684  0.00  0.00    +0.141 C 
ATOM     20  C   UNL     1      -6.777 -11.115  12.739  0.00  0.00    +0.129 C 
ATOM     21  C   UNL     1      -5.864 -12.238  13.215  0.00  0.00    +0.128 C 
ATOM     22  C   UNL     1      -8.591  -9.724  13.674  0.00  0.00    +0.303 C 
ATOM     24  C   UNL     1      -3.655 -12.520  14.457  0.00  0.00    +0.307 C 
ATOM     39  H   UNL     1      -8.548  -9.033  15.645  0.00  0.00    +0.151 HD
ATOM     41  H   UNL     1      -4.380 -14.068  13.269  0.00  0.00    +0.156 HD
ENDROOT
BRANCH   6  12
ATOM     12  C   UNL     1     -10.330  -8.321  14.757  0.00  0.00    +0.074 C 
ATOM     13  C   UNL     1     -11.476  -9.297  15.043  0.00  0.00    +0.022 C 
ATOM     14  C   UNL     1     -10.339  -7.149  15.744  0.00  0.00    +0.022 C 
ATOM     15  C   UNL     1     -11.503  -9.757  16.501  0.00  0.00    +0.002 C 
ATOM     16  C   UNL     1     -10.369  -7.612  17.201  0.00  0.00    +0.002 C 
ATOM     17  C   UNL     1     -11.523  -8.573  17.463  0.00  0.00    +0.000 C 
ENDBRANCH   6  12
BRANCH   9  29
ATOM     29  C   UNL     1      -2.591 -14.761  13.983  0.00  0.00    +0.035 A 
ATOM     32  C   UNL     1      -2.744 -15.805  14.896  0.00  0.00    +0.023 A 
ATOM     33  C   UNL     1      -1.440 -14.684  13.199  0.00  0.00    +0.023 A 
ATOM     35  C   UNL     1      -1.748 -16.771  15.024  0.00  0.00    +0.002 A 
ATOM     36  C   UNL     1      -0.443 -15.652  13.326  0.00  0.00    +0.002 A 
ATOM     37  C   UNL     1      -0.597 -16.695  14.238  0.00  0.00    +0.000 A 
ENDBRANCH   9  29
BRANCH  18  23
ATOM      2  O   UNL     1      -8.043 -11.447  16.130  0.00  0.00    -0.274 OA
ATOM      8  N   UNL     1      -5.979 -11.063  17.135  0.00  0.00    -0.302 N 
ATOM     23  C   UNL     1      -6.922 -10.946  16.129  0.00  0.00    +0.236 C 
ATOM     40  H   UNL     1      -5.084 -10.594  17.040  0.00  0.00    +0.150 HD
BRANCH   8  25
ATOM     25  C   UNL     1      -6.207 -11.812  18.350  0.00  0.00    +0.163 C 
BRANCH  25  27
ATOM      4  O   UNL     1      -4.446 -11.886  20.021  0.00  0.00    -0.274 OA
ATOM     10  N   UNL     1      -4.117 -12.982  18.030  0.00  0.00    -0.328 N 
ATOM     27  C   UNL     1      -4.843 -12.199  18.902  0.00  0.00    +0.231 C 
ATOM     42  H   UNL     1      -4.468 -13.252  17.116  0.00  0.00    +0.145 HD
ATOM     43  H   UNL     1      -3.194 -13.321  18.280  0.00  0.00    +0.145 HD
ENDBRANCH  25  27
BRANCH  25  26
ATOM     26  C   UNL     1      -6.994 -11.005  19.389  0.00  0.00    +0.068 C 
BRANCH  26  28
ATOM     11  N   UNL     1      -9.663 -13.551  20.254  0.00  0.00    -0.263 NA
ATOM     28  C   UNL     1      -8.346 -11.603  19.692  0.00  0.00    -0.027 A 
ATOM     30  C   UNL     1      -9.493 -10.818  19.695  0.00  0.00    +0.006 A 
ATOM     31  C   UNL     1      -8.483 -12.952  19.976  0.00  0.00    +0.114 A 
ATOM     34  C   UNL     1     -10.725 -11.396  19.977  0.00  0.00    +0.020 A 
ATOM     38  C   UNL     1     -10.756 -12.755  20.247  0.00  0.00    +0.111 A 
ENDBRANCH  26  28
ENDBRANCH  25  26
ENDBRANCH   8  25
ENDBRANCH  18  23
TORSDOF 7
ENDMDL
MODEL 3
REMARK VINA RESULT:      -6.4      2.234      3.567
REMARK  Name = 7113084
REMARK  7 active torsions:
REMARK  status: ('A' for Active; 'I' for Inactive)
REMARK    1  A    between atoms: N_6  and  C_12
REMARK    2  A    between atoms: N_8  and  C_25
REMARK    3  A    between atoms: N_9  and  C_29
REMARK    4  A    between atoms: C_18  and  C_23
REMARK    5  A    between atoms: C_25  and  C_26
REMARK    6  A    between atoms: C_25  and  C_27
REMARK    7  A    between atoms: C_26  and  C_28
REMARK                            x       y       z     vdW  Elec       q    Type
REMARK                         _______ _______ _______ _____ _____    ______ ____
ROOT
ATOM      1  O   UNL     1      -9.093 -10.676  15.800  0.00  0.00    -0.253 OA
ATOM      3  O   UNL     1      -5.502  -8.458   9.835  0.00  0.00    -0.252 OA
ATOM      5  N   UNL     1      -7.586 -10.176  14.101  0.00  0.00    -0.271 N 
ATOM      6  N   UNL     1      -6.896 -11.299  16.064  0.00  0.00    -0.296 N 
ATOM      7  N   UNL     1      -7.030  -9.171  11.421  0.00  0.00    -0.282 N 
ATOM      9  N   UNL     1      -7.640  -9.073   9.147  0.00  0.00    -0.269 N 
ATOM     18  C   UNL     1      -6.207 -10.039  13.609  0.00  0.00    +0.181 C 
ATOM     19  C   UNL     1      -6.069  -8.979  12.514  0.00  0.00    +0.141 C 
ATOM     20  C   UNL     1      -8.634  -9.547  13.293  0.00  0.00    +0.129 C 
ATOM     21  C   UNL     1      -8.364  -9.654  11.798  0.00  0.00    +0.128 C 
ATOM     22  C   UNL     1      -7.940 -10.714  15.356  0.00  0.00    +0.303 C 
ATOM     24  C   UNL     1      -6.638  -8.861  10.097  0.00  0.00    +0.307 C 
ATOM     39  H   UNL     1      -5.993 -11.419  15.624  0.00  0.00    +0.151 HD
ATOM     41  H   UNL     1      -8.530  -9.448   9.455  0.00  0.00    +0.156 HD
ENDROOT
BRANCH   6  12
ATOM     12  C   UNL     1      -7.091 -11.900  17.366  0.00  0.00    +0.074 C 
ATOM     13  C   UNL     1      -6.308 -13.212  17.490  0.00  0.00    +0.022 C 
ATOM     14  C   UNL     1      -6.718 -10.923  18.485  0.00  0.00    +0.022 C 
ATOM     15  C   UNL     1      -4.800 -12.985  17.594  0.00  0.00    +0.002 C 
ATOM     16  C   UNL     1      -5.209 -10.700  18.588  0.00  0.00    +0.002 C 
ATOM     17  C   UNL     1      -4.453 -12.018  18.722  0.00  0.00    +0.000 C 
ENDBRANCH   6  12
BRANCH   9  29
ATOM     29  C   UNL     1      -7.566  -8.861   7.747  0.00  0.00    +0.035 A 
ATOM     32  C   UNL     1      -6.780  -9.698   6.956  0.00  0.00    +0.023 A 
ATOM     33  C   UNL     1      -8.279  -7.815   7.162  0.00  0.00    +0.023 A 
ATOM     35  C   UNL     1      -6.707  -9.490   5.579  0.00  0.00    +0.002 A 
ATOM     36  C   UNL     1      -8.207  -7.606   5.784  0.00  0.00    +0.002 A 
ATOM     37  C   UNL     1      -7.421  -8.444   4.993  0.00  0.00    +0.000 A 
ENDBRANCH   9  29
BRANCH  18  23
ATOM      2  O   UNL     1      -6.447 -12.392  13.264  0.00  0.00    -0.274 OA
ATOM      8  N   UNL     1      -4.578 -11.311  12.394  0.00  0.00    -0.302 N 
ATOM     23  C   UNL     1      -5.781 -11.378  13.075  0.00  0.00    +0.236 C 
ATOM     40  H   UNL     1      -4.100 -10.420  12.308  0.00  0.00    +0.150 HD
BRANCH   8  25
ATOM     25  C   UNL     1      -3.940 -12.464  11.803  0.00  0.00    +0.163 C 
BRANCH  25  27
ATOM      4  O   UNL     1      -3.794 -13.033   9.446  0.00  0.00    -0.274 OA
ATOM     10  N   UNL     1      -3.622 -10.826  10.055  0.00  0.00    -0.328 N 
ATOM     27  C   UNL     1      -3.766 -12.171  10.320  0.00  0.00    +0.231 C 
ATOM     42  H   UNL     1      -3.624 -10.122  10.786  0.00  0.00    +0.145 HD
ATOM     43  H   UNL     1      -3.511 -10.492   9.104  0.00  0.00    +0.145 HD
ENDBRANCH  25  27
BRANCH  25  26
ATOM     26  C   UNL     1      -2.583 -12.771  12.449  0.00  0.00    +0.068 C 
BRANCH  26  28
ATOM     11  N   UNL     1      -1.225  -9.606  14.028  0.00  0.00    -0.263 NA
ATOM     28  C   UNL     1      -2.192 -11.757  13.496  0.00  0.00    -0.027 A 
ATOM     30  C   UNL     1      -2.415 -11.999  14.846  0.00  0.00    +0.006 A 
ATOM     31  C   UNL     1      -1.600 -10.555  13.142  0.00  0.00    +0.114 A 
ATOM     34  C   UNL     1      -2.044 -11.047  15.789  0.00  0.00    +0.020 A 
ATOM     38  C   UNL     1      -1.457  -9.877  15.332  0.00  0.00    +0.111 A 
ENDBRANCH  26  28
ENDBRANCH  25  26
ENDBRANCH   8  25
ENDBRANCH  18  23
TORSDOF 7
ENDMDL
MODEL 4
REMARK VINA RESULT:      -6.2      2.633      8.310
REMARK  Name = 7113084
REMARK  7 active torsions:
REMARK  status: ('A' for Active; 'I' for Inactive)
REMARK    1  A    between atoms: N_6  and  C_12
REMARK    2  A    between atoms: N_8  and  C_25
REMARK    3  A    between atoms: N_9  and  C_29
REMARK    4  A    between atoms: C_18  and  C_23
REMARK    5  A    between atoms: C_25  and  C_26
REMARK    6  A    between atoms: C_25  and  C_27
REMARK    7  A    between atoms: C_26  and  C_28
REMARK                            x       y       z     vdW  Elec       q    Type
REMARK                         _______ _______ _______ _____ _____    ______ ____
ROOT
ATOM      1  O   UNL     1      -8.886  -8.902  10.031  0.00  0.00    -0.253 OA
ATOM      3  O   UNL     1     -10.010 -11.954  16.574  0.00  0.00    -0.252 OA
ATOM      5  N   UNL     1      -8.806 -10.018  12.069  0.00  0.00    -0.271 N 
ATOM      6  N   UNL     1      -6.972 -10.052  10.577  0.00  0.00    -0.296 N 
ATOM      7  N   UNL     1      -9.986 -10.656  14.658  0.00  0.00    -0.282 N 
ATOM      9  N   UNL     1     -11.134  -9.915  16.578  0.00  0.00    -0.269 N 
ATOM     18  C   UNL     1      -8.181 -10.997  12.972  0.00  0.00    +0.181 C 
ATOM     19  C   UNL     1      -9.182 -11.645  13.931  0.00  0.00    +0.141 C 
ATOM     20  C   UNL     1     -10.163  -9.586  12.413  0.00  0.00    +0.129 C 
ATOM     21  C   UNL     1     -10.371  -9.449  13.916  0.00  0.00    +0.128 C 
ATOM     22  C   UNL     1      -8.265  -9.608  10.833  0.00  0.00    +0.303 C 
ATOM     24  C   UNL     1     -10.361 -10.923  15.997  0.00  0.00    +0.307 C 
ATOM     39  H   UNL     1      -6.449 -10.528  11.301  0.00  0.00    +0.151 HD
ATOM     41  H   UNL     1     -11.335  -9.083  16.036  0.00  0.00    +0.156 HD
ENDROOT
BRANCH   6  12
ATOM     12  C   UNL     1      -6.271  -9.716   9.356  0.00  0.00    +0.074 C 
ATOM     13  C   UNL     1      -5.563  -8.363   9.481  0.00  0.00    +0.022 C 
ATOM     14  C   UNL     1      -5.287 -10.823   8.965  0.00  0.00    +0.022 C 
ATOM     15  C   UNL     1      -4.347  -8.422  10.405  0.00  0.00    +0.002 C 
ATOM     16  C   UNL     1      -4.070 -10.878   9.889  0.00  0.00    +0.002 C 
ATOM     17  C   UNL     1      -3.377  -9.524   9.988  0.00  0.00    +0.000 C 
ENDBRANCH   6  12
BRANCH   9  29
ATOM     29  C   UNL     1     -11.664  -9.879  17.893  0.00  0.00    +0.035 A 
ATOM     32  C   UNL     1     -10.809  -9.957  18.992  0.00  0.00    +0.023 A 
ATOM     33  C   UNL     1     -13.041  -9.766  18.086  0.00  0.00    +0.023 A 
ATOM     35  C   UNL     1     -11.330  -9.922  20.285  0.00  0.00    +0.002 A 
ATOM     36  C   UNL     1     -13.563  -9.730  19.379  0.00  0.00    +0.002 A 
ATOM     37  C   UNL     1     -12.707  -9.808  20.479  0.00  0.00    +0.000 A 
ENDBRANCH   9  29
BRANCH  18  23
ATOM      2  O   UNL     1      -6.520  -9.310  13.297  0.00  0.00    -0.274 OA
ATOM      8  N   UNL     1      -6.913 -10.846  15.001  0.00  0.00    -0.302 N 
ATOM     23  C   UNL     1      -7.120 -10.277  13.756  0.00  0.00    +0.236 C 
ATOM     40  H   UNL     1      -7.456 -11.657  15.278  0.00  0.00    +0.150 HD
BRANCH   8  25
ATOM     25  C   UNL     1      -5.931 -10.355  15.940  0.00  0.00    +0.163 C 
BRANCH  25  27
ATOM      4  O   UNL     1      -7.536  -9.229  17.374  0.00  0.00    -0.274 OA
ATOM     10  N   UNL     1      -6.265 -10.921  18.266  0.00  0.00    -0.328 N 
ATOM     27  C   UNL     1      -6.659 -10.080  17.248  0.00  0.00    +0.231 C 
ATOM     42  H   UNL     1      -5.555 -11.636  18.140  0.00  0.00    +0.145 HD
ATOM     43  H   UNL     1      -6.681 -10.853  19.188  0.00  0.00    +0.145 HD
ENDBRANCH  25  27
BRANCH  25  26
ATOM     26  C   UNL     1      -4.792 -11.357  16.165  0.00  0.00    +0.068 C 
BRANCH  26  28
ATOM     11  N   UNL     1      -1.176 -10.266  15.855  0.00  0.00    -0.263 NA
ATOM     28  C   UNL     1      -3.489 -10.906  15.552  0.00  0.00    -0.027 A 
ATOM     30  C   UNL     1      -3.370 -10.713  14.181  0.00  0.00    +0.006 A 
ATOM     31  C   UNL     1      -2.372 -10.672  16.339  0.00  0.00    +0.114 A 
ATOM     34  C   UNL     1      -2.156 -10.297  13.645  0.00  0.00    +0.020 A 
ATOM     38  C   UNL     1      -1.100 -10.089  14.517  0.00  0.00    +0.111 A 
ENDBRANCH  26  28
ENDBRANCH  25  26
ENDBRANCH   8  25
ENDBRANCH  18  23
TORSDOF 7
ENDMDL
MODEL 5
REMARK VINA RESULT:      -6.2      2.680      9.182
REMARK  Name = 7113084
REMARK  7 active torsions:
REMARK  status: ('A' for Active; 'I' for Inactive)
REMARK    1  A    between atoms: N_6  and  C_12
REMARK    2  A    between atoms: N_8  and  C_25
REMARK    3  A    between atoms: N_9  and  C_29
REMARK    4  A    between atoms: C_18  and  C_23
REMARK    5  A    between atoms: C_25  and  C_26
REMARK    6  A    between atoms: C_25  and  C_27
REMARK    7  A    between atoms: C_26  and  C_28
REMARK                            x       y       z     vdW  Elec       q    Type
REMARK                         _______ _______ _______ _____ _____    ______ ____
ROOT
ATOM      1  O   UNL     1      -3.774 -12.195  17.918  0.00  0.00    -0.253 OA
ATOM      3  O   UNL     1      -9.900  -8.261  17.300  0.00  0.00    -0.252 OA
ATOM      5  N   UNL     1      -5.563 -10.846  17.298  0.00  0.00    -0.271 N 
ATOM      6  N   UNL     1      -3.710 -11.166  15.864  0.00  0.00    -0.296 N 
ATOM      7  N   UNL     1      -8.232  -9.785  17.802  0.00  0.00    -0.282 N 
ATOM      9  N   UNL     1     -10.444 -10.172  18.513  0.00  0.00    -0.269 N 
ATOM     18  C   UNL     1      -6.155  -9.823  16.423  0.00  0.00    +0.181 C 
ATOM     19  C   UNL     1      -7.210  -8.971  17.132  0.00  0.00    +0.141 C 
ATOM     20  C   UNL     1      -6.258 -11.106  18.561  0.00  0.00    +0.129 C 
ATOM     21  C   UNL     1      -7.773 -11.034  18.421  0.00  0.00    +0.128 C 
ATOM     22  C   UNL     1      -4.308 -11.454  17.087  0.00  0.00    +0.303 C 
ATOM     24  C   UNL     1      -9.568  -9.320  17.838  0.00  0.00    +0.307 C 
ATOM     39  H   UNL     1      -4.224 -10.652  15.160  0.00  0.00    +0.151 HD
ATOM     41  H   UNL     1     -10.085 -11.043  18.885  0.00  0.00    +0.156 HD
ENDROOT
BRANCH   6  12
ATOM     12  C   UNL     1      -2.425 -11.713  15.488  0.00  0.00    +0.074 C 
ATOM     13  C   UNL     1      -2.577 -12.778  14.397  0.00  0.00    +0.022 C 
ATOM     14  C   UNL     1      -1.461 -10.605  15.053  0.00  0.00    +0.022 C 
ATOM     15  C   UNL     1      -2.946 -12.176  13.041  0.00  0.00    +0.002 C 
ATOM     16  C   UNL     1      -1.831 -10.007  13.695  0.00  0.00    +0.002 C 
ATOM     17  C   UNL     1      -1.966 -11.084  12.624  0.00  0.00    +0.000 C 
ENDBRANCH   6  12
BRANCH   9  29
ATOM     29  C   UNL     1     -11.835  -9.995  18.724  0.00  0.00    +0.035 A 
ATOM     32  C   UNL     1     -12.340  -9.923  20.022  0.00  0.00    +0.023 A 
ATOM     33  C   UNL     1     -12.698  -9.895  17.633  0.00  0.00    +0.023 A 
ATOM     35  C   UNL     1     -13.708  -9.749  20.230  0.00  0.00    +0.002 A 
ATOM     36  C   UNL     1     -14.067  -9.720  17.840  0.00  0.00    +0.002 A 
ATOM     37  C   UNL     1     -14.572  -9.647  19.138  0.00  0.00    +0.000 A 
ENDBRANCH   9  29
BRANCH  18  23
ATOM      2  O   UNL     1      -6.854 -11.757  15.206  0.00  0.00    -0.274 OA
ATOM      8  N   UNL     1      -7.211  -9.653  14.277  0.00  0.00    -0.302 N 
ATOM     23  C   UNL     1      -6.777 -10.533  15.254  0.00  0.00    +0.236 C 
ATOM     40  H   UNL     1      -7.085  -8.655  14.411  0.00  0.00    +0.150 HD
BRANCH   8  25
ATOM     25  C   UNL     1      -7.825 -10.083  13.042  0.00  0.00    +0.163 C 
BRANCH  25  27
ATOM      4  O   UNL     1     -10.105 -10.844  12.692  0.00  0.00    -0.274 OA
ATOM     10  N   UNL     1      -9.728  -9.171  14.219  0.00  0.00    -0.328 N 
ATOM     27  C   UNL     1      -9.330 -10.083  13.266  0.00  0.00    +0.231 C 
ATOM     42  H   UNL     1      -9.073  -8.565  14.703  0.00  0.00    +0.145 HD
ATOM     43  H   UNL     1     -10.705  -9.078  14.474  0.00  0.00    +0.145 HD
ENDBRANCH  25  27
BRANCH  25  26
ATOM     26  C   UNL     1      -7.461  -9.171  11.865  0.00  0.00    +0.068 C 
BRANCH  26  28
ATOM     11  N   UNL     1      -5.072 -11.460  10.018  0.00  0.00    -0.263 NA
ATOM     28  C   UNL     1      -6.245  -9.649  11.110  0.00  0.00    -0.027 A 
ATOM     30  C   UNL     1      -5.201  -8.782  10.808  0.00  0.00    +0.006 A 
ATOM     31  C   UNL     1      -6.133 -10.967  10.696  0.00  0.00    +0.114 A 
ATOM     34  C   UNL     1      -4.093  -9.251  10.111  0.00  0.00    +0.020 A 
ATOM     38  C   UNL     1      -4.077 -10.587   9.743  0.00  0.00    +0.111 A 
ENDBRANCH  26  28
ENDBRANCH  25  26
ENDBRANCH   8  25
ENDBRANCH  18  23
TORSDOF 7
ENDMDL
MODEL 6
REMARK VINA RESULT:      -6.1     25.134     27.925
REMARK  Name = 7113084
REMARK  7 active torsions:
REMARK  status: ('A' for Active; 'I' for Inactive)
REMARK    1  A    between atoms: N_6  and  C_12
REMARK    2  A    between atoms: N_8  and  C_25
REMARK    3  A    between atoms: N_9  and  C_29
REMARK    4  A    between atoms: C_18  and  C_23
REMARK    5  A    between atoms: C_25  and  C_26
REMARK    6  A    between atoms: C_25  and  C_27
REMARK    7  A    between atoms: C_26  and  C_28
REMARK                            x       y       z     vdW  Elec       q    Type
REMARK                         _______ _______ _______ _____ _____    ______ ____
ROOT
ATOM      1  O   UNL     1      17.091   8.430   1.313  0.00  0.00    -0.253 OA
ATOM      3  O   UNL     1      12.615   2.998  -0.650  0.00  0.00    -0.252 OA
ATOM      5  N   UNL     1      15.553   6.695   1.137  0.00  0.00    -0.271 N 
ATOM      6  N   UNL     1      16.077   7.665   3.229  0.00  0.00    -0.296 N 
ATOM      7  N   UNL     1      13.958   4.876  -0.491  0.00  0.00    -0.282 N 
ATOM      9  N   UNL     1      12.596   4.549  -2.386  0.00  0.00    -0.269 N 
ATOM     18  C   UNL     1      14.738   5.636   1.752  0.00  0.00    +0.181 C 
ATOM     19  C   UNL     1      14.488   4.456   0.811  0.00  0.00    +0.141 C 
ATOM     20  C   UNL     1      15.729   6.623  -0.316  0.00  0.00    +0.129 C 
ATOM     21  C   UNL     1      14.476   6.138  -1.034  0.00  0.00    +0.128 C 
ATOM     22  C   UNL     1      16.299   7.652   1.855  0.00  0.00    +0.303 C 
ATOM     24  C   UNL     1      13.017   4.050  -1.152  0.00  0.00    +0.307 C 
ATOM     39  H   UNL     1      15.338   7.098   3.626  0.00  0.00    +0.151 HD
ATOM     41  H   UNL     1      12.953   5.446  -2.695  0.00  0.00    +0.156 HD
ENDROOT
BRANCH   6  12
ATOM     12  C   UNL     1      16.759   8.589   4.109  0.00  0.00    +0.074 C 
ATOM     13  C   UNL     1      16.083   9.964   4.095  0.00  0.00    +0.022 C 
ATOM     14  C   UNL     1      16.847   8.029   5.532  0.00  0.00    +0.022 C 
ATOM     15  C   UNL     1      14.732   9.960   4.811  0.00  0.00    +0.002 C 
ATOM     16  C   UNL     1      15.496   8.028   6.246  0.00  0.00    +0.002 C 
ATOM     17  C   UNL     1      14.849   9.409   6.229  0.00  0.00    +0.000 C 
ENDBRANCH   6  12
BRANCH   9  29
ATOM     29  C   UNL     1      11.670   3.965  -3.287  0.00  0.00    +0.035 A 
ATOM     32  C   UNL     1      12.108   3.473  -4.517  0.00  0.00    +0.023 A 
ATOM     33  C   UNL     1      10.321   3.882  -2.943  0.00  0.00    +0.023 A 
ATOM     35  C   UNL     1      11.197   2.899  -5.402  0.00  0.00    +0.002 A 
ATOM     36  C   UNL     1       9.409   3.307  -3.829  0.00  0.00    +0.002 A 
ATOM     37  C   UNL     1       9.847   2.815  -5.058  0.00  0.00    +0.000 A 
ENDBRANCH   9  29
BRANCH  18  23
ATOM      2  O   UNL     1      13.284   7.466   2.253  0.00  0.00    -0.274 OA
ATOM      8  N   UNL     1      12.456   5.296   2.405  0.00  0.00    -0.302 N 
ATOM     23  C   UNL     1      13.426   6.251   2.154  0.00  0.00    +0.236 C 
ATOM     40  H   UNL     1      12.684   4.312   2.307  0.00  0.00    +0.150 HD
BRANCH   8  25
ATOM     25  C   UNL     1      11.115   5.625   2.830  0.00  0.00    +0.163 C 
BRANCH  25  27
ATOM      4  O   UNL     1       9.702   6.621   1.122  0.00  0.00    -0.274 OA
ATOM     10  N   UNL     1      10.141   4.370   1.008  0.00  0.00    -0.328 N 
ATOM     27  C   UNL     1      10.236   5.617   1.587  0.00  0.00    +0.231 C 
ATOM     42  H   UNL     1      10.607   3.553   1.391  0.00  0.00    +0.145 HD
ATOM     43  H   UNL     1       9.596   4.228   0.165  0.00  0.00    +0.145 HD
ENDBRANCH  25  27
BRANCH  25  26
ATOM     26  C   UNL     1      10.576   4.636   3.870  0.00  0.00    +0.068 C 
BRANCH  26  28
ATOM     11  N   UNL     1      11.314   6.882   6.832  0.00  0.00    -0.263 NA
ATOM     28  C   UNL     1      10.529   5.219   5.261  0.00  0.00    -0.027 A 
ATOM     30  C   UNL     1       9.703   4.676   6.238  0.00  0.00    +0.006 A 
ATOM     31  C   UNL     1      11.308   6.312   5.605  0.00  0.00    +0.114 A 
ATOM     34  C   UNL     1       9.681   5.234   7.512  0.00  0.00    +0.020 A 
ATOM     38  C   UNL     1      10.498   6.326   7.755  0.00  0.00    +0.111 A 
ENDBRANCH  26  28
ENDBRANCH  25  26
ENDBRANCH   8  25
ENDBRANCH  18  23
TORSDOF 7
ENDMDL
MODEL 7
REMARK VINA RESULT:      -5.8     26.959     30.343
REMARK  Name = 7113084
REMARK  7 active torsions:
REMARK  status: ('A' for Active; 'I' for Inactive)
REMARK    1  A    between atoms: N_6  and  C_12
REMARK    2  A    between atoms: N_8  and  C_25
REMARK    3  A    between atoms: N_9  and  C_29
REMARK    4  A    between atoms: C_18  and  C_23
REMARK    5  A    between atoms: C_25  and  C_26
REMARK    6  A    between atoms: C_25  and  C_27
REMARK    7  A    between atoms: C_26  and  C_28
REMARK                            x       y       z     vdW  Elec       q    Type
REMARK                         _______ _______ _______ _____ _____    ______ ____
ROOT
ATOM      1  O   UNL     1     -12.400   7.731  36.079  0.00  0.00    -0.253 OA
ATOM      3  O   UNL     1     -11.759  12.227  30.355  0.00  0.00    -0.252 OA
ATOM      5  N   UNL     1     -11.904   9.395  34.532  0.00  0.00    -0.271 N 
ATOM      6  N   UNL     1     -11.010   9.446  36.720  0.00  0.00    -0.296 N 
ATOM      7  N   UNL     1     -12.050  10.461  31.822  0.00  0.00    -0.282 N 
ATOM      9  N   UNL     1     -11.935  10.068  29.502  0.00  0.00    -0.269 N 
ATOM     18  C   UNL     1     -11.375  10.727  34.207  0.00  0.00    +0.181 C 
ATOM     19  C   UNL     1     -12.050  11.355  32.986  0.00  0.00    +0.141 C 
ATOM     20  C   UNL     1     -12.730   8.752  33.506  0.00  0.00    +0.129 C 
ATOM     21  C   UNL     1     -12.230   9.030  32.094  0.00  0.00    +0.128 C 
ATOM     22  C   UNL     1     -11.815   8.783  35.800  0.00  0.00    +0.303 C 
ATOM     24  C   UNL     1     -11.907  11.015  30.527  0.00  0.00    +0.307 C 
ATOM     39  H   UNL     1     -10.453  10.238  36.425  0.00  0.00    +0.151 HD
ATOM     41  H   UNL     1     -12.018   9.088  29.747  0.00  0.00    +0.156 HD
ENDROOT
BRANCH   6  12
ATOM     12  C   UNL     1     -10.808   8.949  38.064  0.00  0.00    +0.074 C 
ATOM     13  C   UNL     1      -9.575   8.042  38.137  0.00  0.00    +0.022 C 
ATOM     14  C   UNL     1     -10.709  10.102  39.068  0.00  0.00    +0.022 C 
ATOM     15  C   UNL     1      -8.267   8.822  38.009  0.00  0.00    +0.002 C 
ATOM     16  C   UNL     1      -9.399  10.879  38.940  0.00  0.00    +0.002 C 
ATOM     17  C   UNL     1      -8.187   9.957  39.027  0.00  0.00    +0.000 C 
ENDBRANCH   6  12
BRANCH   9  29
ATOM     29  C   UNL     1     -11.818  10.297  28.107  0.00  0.00    +0.035 A 
ATOM     32  C   UNL     1     -10.558  10.333  27.510  0.00  0.00    +0.023 A 
ATOM     33  C   UNL     1     -12.963  10.487  27.334  0.00  0.00    +0.023 A 
ATOM     35  C   UNL     1     -10.443  10.558  26.138  0.00  0.00    +0.002 A 
ATOM     36  C   UNL     1     -12.849  10.711  25.961  0.00  0.00    +0.002 A 
ATOM     37  C   UNL     1     -11.589  10.747  25.364  0.00  0.00    +0.000 A 
ENDBRANCH   9  29
BRANCH  18  23
ATOM      2  O   UNL     1      -9.323   9.506  34.097  0.00  0.00    -0.274 OA
ATOM      8  N   UNL     1      -9.313  11.773  33.569  0.00  0.00    -0.302 N 
ATOM     23  C   UNL     1      -9.901  10.579  33.952  0.00  0.00    +0.236 C 
ATOM     40  H   UNL     1      -9.883  12.610  33.493  0.00  0.00    +0.150 HD
BRANCH   8  25
ATOM     25  C   UNL     1      -7.903  11.904  33.286  0.00  0.00    +0.163 C 
BRANCH  25  27
ATOM      4  O   UNL     1      -8.657  13.059  31.286  0.00  0.00    -0.274 OA
ATOM     10  N   UNL     1      -6.549  12.146  31.298  0.00  0.00    -0.328 N 
ATOM     27  C   UNL     1      -7.777  12.423  31.861  0.00  0.00    +0.231 C 
ATOM     42  H   UNL     1      -5.823  11.640  31.794  0.00  0.00    +0.145 HD
ATOM     43  H   UNL     1      -6.329  12.448  30.356  0.00  0.00    +0.145 HD
ENDBRANCH  25  27
BRANCH  25  26
ATOM     26  C   UNL     1      -7.201  12.854  34.263  0.00  0.00    +0.068 C 
BRANCH  26  28
ATOM     11  N   UNL     1      -3.657  11.858  35.160  0.00  0.00    -0.263 NA
ATOM     28  C   UNL     1      -6.043  12.204  34.980  0.00  0.00    -0.027 A 
ATOM     30  C   UNL     1      -6.252  11.380  36.079  0.00  0.00    +0.006 A 
ATOM     31  C   UNL     1      -4.738  12.410  34.564  0.00  0.00    +0.114 A 
ATOM     34  C   UNL     1      -5.166  10.794  36.720  0.00  0.00    +0.020 A 
ATOM     38  C   UNL     1      -3.900  11.062  36.225  0.00  0.00    +0.111 A 
ENDBRANCH  26  28
ENDBRANCH  25  26
ENDBRANCH   8  25
ENDBRANCH  18  23
TORSDOF 7
ENDMDL
MODEL 8
REMARK VINA RESULT:      -5.8      2.267      5.358
REMARK  Name = 7113084
REMARK  7 active torsions:
REMARK  status: ('A' for Active; 'I' for Inactive)
REMARK    1  A    between atoms: N_6  and  C_12
REMARK    2  A    between atoms: N_8  and  C_25
REMARK    3  A    between atoms: N_9  and  C_29
REMARK    4  A    between atoms: C_18  and  C_23
REMARK    5  A    between atoms: C_25  and  C_26
REMARK    6  A    between atoms: C_25  and  C_27
REMARK    7  A    between atoms: C_26  and  C_28
REMARK                            x       y       z     vdW  Elec       q    Type
REMARK                         _______ _______ _______ _____ _____    ______ ____
ROOT
ATOM      1  O   UNL     1      -2.943 -10.531  14.419  0.00  0.00    -0.253 OA
ATOM      3  O   UNL     1      -7.608 -11.282   8.846  0.00  0.00    -0.252 OA
ATOM      5  N   UNL     1      -4.715 -10.936  12.969  0.00  0.00    -0.271 N 
ATOM      6  N   UNL     1      -4.847 -11.507  15.259  0.00  0.00    -0.296 N 
ATOM      7  N   UNL     1      -5.953 -10.669  10.342  0.00  0.00    -0.282 N 
ATOM      9  N   UNL     1      -6.422  -9.313   8.473  0.00  0.00    -0.269 N 
ATOM     18  C   UNL     1      -5.993 -11.593  12.657  0.00  0.00    +0.181 C 
ATOM     19  C   UNL     1      -6.174 -11.865  11.162  0.00  0.00    +0.141 C 
ATOM     20  C   UNL     1      -3.978 -10.371  11.835  0.00  0.00    +0.129 C 
ATOM     21  C   UNL     1      -4.896  -9.753  10.789  0.00  0.00    +0.128 C 
ATOM     22  C   UNL     1      -4.085 -10.962  14.231  0.00  0.00    +0.303 C 
ATOM     24  C   UNL     1      -6.732 -10.479   9.176  0.00  0.00    +0.307 C 
ATOM     39  H   UNL     1      -5.818 -11.743  15.098  0.00  0.00    +0.151 HD
ATOM     41  H   UNL     1      -5.713  -8.693   8.848  0.00  0.00    +0.156 HD
ENDROOT
BRANCH   6  12
ATOM     12  C   UNL     1      -4.350 -11.605  16.615  0.00  0.00    +0.074 C 
ATOM     13  C   UNL     1      -4.728 -10.365  17.431  0.00  0.00    +0.022 C 
ATOM     14  C   UNL     1      -4.847 -12.887  17.292  0.00  0.00    +0.022 C 
ATOM     15  C   UNL     1      -6.219 -10.314  17.763  0.00  0.00    +0.002 C 
ATOM     16  C   UNL     1      -6.338 -12.833  17.625  0.00  0.00    +0.002 C 
ATOM     17  C   UNL     1      -6.687 -11.596  18.446  0.00  0.00    +0.000 C 
ENDBRANCH   6  12
BRANCH   9  29
ATOM     29  C   UNL     1      -7.015  -8.839   7.275  0.00  0.00    +0.035 A 
ATOM     32  C   UNL     1      -7.979  -7.832   7.326  0.00  0.00    +0.023 A 
ATOM     33  C   UNL     1      -6.635  -9.380   6.047  0.00  0.00    +0.023 A 
ATOM     35  C   UNL     1      -8.563  -7.366   6.148  0.00  0.00    +0.002 A 
ATOM     36  C   UNL     1      -7.218  -8.914   4.869  0.00  0.00    +0.002 A 
ATOM     37  C   UNL     1      -8.182  -7.907   4.919  0.00  0.00    +0.000 A 
ENDBRANCH   9  29
BRANCH  18  23
ATOM      2  O   UNL     1      -6.882  -9.778  13.935  0.00  0.00    -0.274 OA
ATOM      8  N   UNL     1      -8.327 -11.046  12.622  0.00  0.00    -0.302 N 
ATOM     23  C   UNL     1      -7.095 -10.695  13.146  0.00  0.00    +0.236 C 
ATOM     40  H   UNL     1      -8.395 -11.834  11.986  0.00  0.00    +0.150 HD
BRANCH   8  25
ATOM     25  C   UNL     1      -9.552 -10.353  12.952  0.00  0.00    +0.163 C 
BRANCH  25  27
ATOM      4  O   UNL     1     -11.624 -10.048  11.721  0.00  0.00    -0.274 OA
ATOM     10  N   UNL     1     -10.004 -11.405  10.823  0.00  0.00    -0.328 N 
ATOM     27  C   UNL     1     -10.519 -10.579  11.799  0.00  0.00    +0.231 C 
ATOM     42  H   UNL     1      -9.079 -11.818  10.889  0.00  0.00    +0.145 HD
ATOM     43  H   UNL     1     -10.541 -11.627   9.992  0.00  0.00    +0.145 HD
ENDBRANCH  25  27
BRANCH  25  26
ATOM     26  C   UNL     1     -10.164 -10.851  14.266  0.00  0.00    +0.068 C 
BRANCH  26  28
ATOM     11  N   UNL     1      -9.962  -7.532  16.083  0.00  0.00    -0.263 NA
ATOM     28  C   UNL     1     -10.042  -9.846  15.385  0.00  0.00    -0.027 A 
ATOM     30  C   UNL     1      -9.902 -10.256  16.705  0.00  0.00    +0.006 A 
ATOM     31  C   UNL     1     -10.067  -8.485  15.128  0.00  0.00    +0.114 A 
ATOM     34  C   UNL     1      -9.792  -9.307  17.716  0.00  0.00    +0.020 A 
ATOM     38  C   UNL     1      -9.827  -7.970  17.355  0.00  0.00    +0.111 A 
ENDBRANCH  26  28
ENDBRANCH  25  26
ENDBRANCH   8  25
ENDBRANCH  18  23
TORSDOF 7
ENDMDL
MODEL 9
REMARK VINA RESULT:      -5.8     26.339     28.666
REMARK  Name = 7113084
REMARK  7 active torsions:
REMARK  status: ('A' for Active; 'I' for Inactive)
REMARK    1  A    between atoms: N_6  and  C_12
REMARK    2  A    between atoms: N_8  and  C_25
REMARK    3  A    between atoms: N_9  and  C_29
REMARK    4  A    between atoms: C_18  and  C_23
REMARK    5  A    between atoms: C_25  and  C_26
REMARK    6  A    between atoms: C_25  and  C_27
REMARK    7  A    between atoms: C_26  and  C_28
REMARK                            x       y       z     vdW  Elec       q    Type
REMARK                         _______ _______ _______ _____ _____    ______ ____
ROOT
ATOM      1  O   UNL     1      11.727   5.847   1.654  0.00  0.00    -0.253 OA
ATOM      3  O   UNL     1      17.186   9.898   4.334  0.00  0.00    -0.252 OA
ATOM      5  N   UNL     1      13.126   7.364   2.726  0.00  0.00    -0.271 N 
ATOM      6  N   UNL     1      10.775   7.494   2.945  0.00  0.00    -0.296 N 
ATOM      7  N   UNL     1      15.800   8.258   3.472  0.00  0.00    -0.282 N 
ATOM      9  N   UNL     1      17.964   7.706   4.222  0.00  0.00    -0.269 N 
ATOM     18  C   UNL     1      13.334   8.630   3.444  0.00  0.00    +0.181 C 
ATOM     19  C   UNL     1      14.726   9.224   3.212  0.00  0.00    +0.141 C 
ATOM     20  C   UNL     1      14.323   6.718   2.181  0.00  0.00    +0.129 C 
ATOM     21  C   UNL     1      15.534   6.864   3.093  0.00  0.00    +0.128 C 
ATOM     22  C   UNL     1      11.865   6.832   2.387  0.00  0.00    +0.303 C 
ATOM     24  C   UNL     1      17.016   8.714   4.034  0.00  0.00    +0.307 C 
ATOM     39  H   UNL     1      10.925   8.221   3.632  0.00  0.00    +0.151 HD
ATOM     41  H   UNL     1      17.714   6.753   3.984  0.00  0.00    +0.156 HD
ENDROOT
BRANCH   6  12
ATOM     12  C   UNL     1       9.413   7.073   2.701  0.00  0.00    +0.074 C 
ATOM     13  C   UNL     1       8.637   6.928   4.015  0.00  0.00    +0.022 C 
ATOM     14  C   UNL     1       8.703   8.033   1.741  0.00  0.00    +0.022 C 
ATOM     15  C   UNL     1       8.322   8.278   4.659  0.00  0.00    +0.002 C 
ATOM     16  C   UNL     1       8.386   9.381   2.389  0.00  0.00    +0.002 C 
ATOM     17  C   UNL     1       7.606   9.211   3.687  0.00  0.00    +0.000 C 
ENDBRANCH   6  12
BRANCH   9  29
ATOM     29  C   UNL     1      19.270   7.834   4.760  0.00  0.00    +0.035 A 
ATOM     32  C   UNL     1      20.368   7.355   4.045  0.00  0.00    +0.023 A 
ATOM     33  C   UNL     1      19.456   8.438   6.003  0.00  0.00    +0.023 A 
ATOM     35  C   UNL     1      21.652   7.480   4.574  0.00  0.00    +0.002 A 
ATOM     36  C   UNL     1      20.741   8.564   6.532  0.00  0.00    +0.002 A 
ATOM     37  C   UNL     1      21.839   8.085   5.817  0.00  0.00    +0.000 A 
ENDBRANCH   9  29
BRANCH  18  23
ATOM      2  O   UNL     1      13.568   7.341   5.442  0.00  0.00    -0.274 OA
ATOM      8  N   UNL     1      12.414   9.360   5.534  0.00  0.00    -0.302 N 
ATOM     23  C   UNL     1      13.137   8.358   4.909  0.00  0.00    +0.236 C 
ATOM     40  H   UNL     1      12.090  10.155   4.994  0.00  0.00    +0.150 HD
BRANCH   8  25
ATOM     25  C   UNL     1      12.069   9.327   6.937  0.00  0.00    +0.163 C 
BRANCH  25  27
ATOM      4  O   UNL     1      13.037  11.554   6.894  0.00  0.00    -0.274 OA
ATOM     10  N   UNL     1      12.085  10.808   8.846  0.00  0.00    -0.328 N 
ATOM     27  C   UNL     1      12.470  10.670   7.530  0.00  0.00    +0.231 C 
ATOM     42  H   UNL     1      11.596  10.077   9.352  0.00  0.00    +0.145 HD
ATOM     43  H   UNL     1      12.279  11.662   9.358  0.00  0.00    +0.145 HD
ENDBRANCH  25  27
BRANCH  25  26
ATOM     26  C   UNL     1      10.574   9.070   7.160  0.00  0.00    +0.068 C 
BRANCH  26  28
ATOM     11  N   UNL     1      11.087   5.461   8.195  0.00  0.00    -0.263 NA
ATOM     28  C   UNL     1      10.293   7.693   7.710  0.00  0.00    -0.027 A 
ATOM     30  C   UNL     1       9.043   7.367   8.224  0.00  0.00    +0.006 A 
ATOM     31  C   UNL     1      11.272   6.713   7.719  0.00  0.00    +0.114 A 
ATOM     34  C   UNL     1       8.813   6.091   8.724  0.00  0.00    +0.020 A 
ATOM     38  C   UNL     1       9.859   5.182   8.686  0.00  0.00    +0.111 A 
ENDBRANCH  26  28
ENDBRANCH  25  26
ENDBRANCH   8  25
ENDBRANCH  18  23
TORSDOF 7
ENDMDL
MODEL 10
REMARK VINA RESULT:      -5.7     22.610     25.528
REMARK  Name = 7113084
REMARK  7 active torsions:
REMARK  status: ('A' for Active; 'I' for Inactive)
REMARK    1  A    between atoms: N_6  and  C_12
REMARK    2  A    between atoms: N_8  and  C_25
REMARK    3  A    between atoms: N_9  and  C_29
REMARK    4  A    between atoms: C_18  and  C_23
REMARK    5  A    between atoms: C_25  and  C_26
REMARK    6  A    between atoms: C_25  and  C_27
REMARK    7  A    between atoms: C_26  and  C_28
REMARK                            x       y       z     vdW  Elec       q    Type
REMARK                         _______ _______ _______ _____ _____    ______ ____
ROOT
ATOM      1  O   UNL     1       1.885  10.352  -0.208  0.00  0.00    -0.253 OA
ATOM      3  O   UNL     1       1.016  14.004   6.061  0.00  0.00    -0.252 OA
ATOM      5  N   UNL     1       1.163  11.396   1.741  0.00  0.00    -0.271 N 
ATOM      6  N   UNL     1      -0.360  10.322   0.285  0.00  0.00    -0.296 N 
ATOM      7  N   UNL     1       1.746  12.761   4.251  0.00  0.00    -0.282 N 
ATOM      9  N   UNL     1       3.063  12.903   6.199  0.00  0.00    -0.269 N 
ATOM     18  C   UNL     1       0.086  11.945   2.578  0.00  0.00    +0.181 C 
ATOM     19  C   UNL     1       0.553  13.101   3.465  0.00  0.00    +0.141 C 
ATOM     20  C   UNL     1       2.530  11.793   2.090  0.00  0.00    +0.129 C 
ATOM     21  C   UNL     1       2.740  11.903   3.595  0.00  0.00    +0.128 C 
ATOM     22  C   UNL     1       0.962  10.668   0.549  0.00  0.00    +0.303 C 
ATOM     24  C   UNL     1       1.884  13.287   5.557  0.00  0.00    +0.307 C 
ATOM     39  H   UNL     1      -1.075  10.492   0.981  0.00  0.00    +0.151 HD
ATOM     41  H   UNL     1       3.696  12.275   5.718  0.00  0.00    +0.156 HD
ENDROOT
BRANCH   6  12
ATOM     12  C   UNL     1      -0.737   9.571  -0.893  0.00  0.00    +0.074 C 
ATOM     13  C   UNL     1      -1.985   8.722  -0.629  0.00  0.00    +0.022 C 
ATOM     14  C   UNL     1      -0.941  10.499  -2.095  0.00  0.00    +0.022 C 
ATOM     15  C   UNL     1      -3.253   9.567  -0.510  0.00  0.00    +0.002 C 
ATOM     16  C   UNL     1      -2.212  11.341  -1.975  0.00  0.00    +0.002 C 
ATOM     17  C   UNL     1      -3.440  10.474  -1.723  0.00  0.00    +0.000 C 
ENDBRANCH   6  12
BRANCH   9  29
ATOM     29  C   UNL     1       3.495  13.258   7.502  0.00  0.00    +0.035 A 
ATOM     32  C   UNL     1       2.755  12.857   8.615  0.00  0.00    +0.023 A 
ATOM     33  C   UNL     1       4.660  14.006   7.671  0.00  0.00    +0.023 A 
ATOM     35  C   UNL     1       3.180  13.206   9.897  0.00  0.00    +0.002 A 
ATOM     36  C   UNL     1       5.086  14.354   8.953  0.00  0.00    +0.002 A 
ATOM     37  C   UNL     1       4.346  13.954  10.066  0.00  0.00    +0.000 A 
ENDBRANCH   9  29
BRANCH  18  23
ATOM      2  O   UNL     1      -0.260   9.648   3.140  0.00  0.00    -0.274 OA
ATOM      8  N   UNL     1      -1.131  11.293   4.537  0.00  0.00    -0.302 N 
ATOM     23  C   UNL     1      -0.437  10.827   3.435  0.00  0.00    +0.236 C 
ATOM     40  H   UNL     1      -1.232  12.293   4.680  0.00  0.00    +0.150 HD
BRANCH   8  25
ATOM     25  C   UNL     1      -1.753  10.421   5.506  0.00  0.00    +0.163 C 
BRANCH  25  27
ATOM      4  O   UNL     1      -1.319  12.004   7.297  0.00  0.00    -0.274 OA
ATOM     10  N   UNL     1      -0.780   9.797   7.629  0.00  0.00    -0.328 N 
ATOM     27  C   UNL     1      -1.259  10.851   6.880  0.00  0.00    +0.231 C 
ATOM     42  H   UNL     1      -0.757   8.844   7.279  0.00  0.00    +0.145 HD
ATOM     43  H   UNL     1      -0.431   9.943   8.570  0.00  0.00    +0.145 HD
ENDBRANCH  25  27
BRANCH  25  26
ATOM     26  C   UNL     1      -3.284  10.485   5.447  0.00  0.00    +0.068 C 
BRANCH  26  28
ATOM     11  N   UNL     1      -5.829   7.850   4.476  0.00  0.00    -0.263 NA
ATOM     28  C   UNL     1      -3.916   9.135   5.210  0.00  0.00    -0.027 A 
ATOM     30  C   UNL     1      -3.226   7.961   5.490  0.00  0.00    +0.006 A 
ATOM     31  C   UNL     1      -5.203   9.027   4.709  0.00  0.00    +0.114 A 
ATOM     34  C   UNL     1      -3.834   6.732   5.263  0.00  0.00    +0.020 A 
ATOM     38  C   UNL     1      -5.126   6.731   4.760  0.00  0.00    +0.111 A 
ENDBRANCH  26  28
ENDBRANCH  25  26
ENDBRANCH   8  25
ENDBRANCH  18  23
TORSDOF 7
ENDMDL
