MODEL 1
REMARK VINA RESULT:      -7.0      0.000      0.000
REMARK  Name = 38026794
REMARK  9 active torsions:
REMARK  status: ('A' for Active; 'I' for Inactive)
REMARK    1  A    between atoms: O_5  and  C_12
REMARK    2  A    between atoms: O_6  and  C_20
REMARK    3  A    between atoms: N_8  and  C_10
REMARK    4  A    between atoms: N_9  and  C_19
REMARK    5  A    between atoms: C_11  and  C_19
REMARK    6  A    between atoms: C_13  and  C_20
REMARK    7  A    between atoms: C_16  and  C_21
REMARK    8  A    between atoms: C_22  and  C_23
REMARK    9  A    between atoms: C_28  and  C_29
REMARK                            x       y       z     vdW  Elec       q    Type
REMARK                         _______ _______ _______ _____ _____    ______ ____
ROOT
ATOM      4  O   UNL     1     -17.345   4.437  23.628  0.00  0.00    -0.365 OA
ATOM     10  C   UNL     1     -17.336   3.489  25.812  0.00  0.00    +0.118 C 
ATOM     11  C   UNL     1     -16.604   4.453  24.869  0.00  0.00    +0.155 C 
ATOM     12  C   UNL     1     -18.024   2.528  24.854  0.00  0.00    +0.165 C 
ATOM     13  C   UNL     1     -18.420   3.484  23.735  0.00  0.00    +0.174 C 
ENDROOT
BRANCH  10   8
ATOM      8  N   UNL     1     -16.526   2.863  26.843  0.00  0.00    -0.295 NA
ATOM     14  C   UNL     1     -17.200   1.668  27.369  0.00  0.00    +0.085 C 
ATOM     15  C   UNL     1     -16.230   3.821  27.916  0.00  0.00    +0.085 C 
ATOM     16  C   UNL     1     -15.961   1.917  29.559  0.00  0.00    -0.012 C 
ATOM     17  C   UNL     1     -16.337   0.965  28.419  0.00  0.00    +0.018 C 
ATOM     18  C   UNL     1     -15.333   3.192  28.985  0.00  0.00    +0.018 C 
ATOM     21  C   UNL     1     -15.019   1.241  30.551  0.00  0.00    +0.007 C 
ENDBRANCH  10   8
BRANCH  12   5
ATOM      5  O   UNL     1     -17.121   1.543  24.367  0.00  0.00    -0.388 OA
ATOM     30  H   UNL     1     -17.405   1.302  23.469  0.00  0.00    +0.210 HD
ENDBRANCH  12   5
BRANCH  11  19
ATOM     19  C   UNL     1     -15.155   4.117  24.535  0.00  0.00    +0.137 C 
BRANCH  19   9
ATOM      7  O   UNL     1     -14.721   4.338  21.706  0.00  0.00    -0.270 OA
ATOM      9  N   UNL     1     -14.518   5.201  23.851  0.00  0.00    -0.309 N 
ATOM     22  C   UNL     1     -14.348   5.226  22.468  0.00  0.00    +0.244 C 
ATOM     31  H   UNL     1     -14.124   5.935  24.430  0.00  0.00    +0.149 HD
BRANCH  22  23
ATOM     23  C   UNL     1     -13.644   6.411  21.914  0.00  0.00    +0.037 A 
ATOM     24  C   UNL     1     -14.198   7.683  22.059  0.00  0.00    +0.013 A 
ATOM     25  C   UNL     1     -12.430   6.252  21.247  0.00  0.00    +0.013 A 
ATOM     26  C   UNL     1     -13.538   8.796  21.538  0.00  0.00    +0.013 A 
ATOM     27  C   UNL     1     -11.769   7.365  20.725  0.00  0.00    +0.013 A 
ATOM     28  C   UNL     1     -12.323   8.637  20.871  0.00  0.00    +0.055 A 
BRANCH  28  29
ATOM      1  F   UNL     1     -11.544  10.877  21.186  0.00  0.00    -0.166 F 
ATOM      2  F   UNL     1     -12.219  10.319  19.195  0.00  0.00    -0.166 F 
ATOM      3  F   UNL     1     -10.323   9.574  19.955  0.00  0.00    -0.166 F 
ATOM     29  C   UNL     1     -11.616   9.827  20.315  0.00  0.00    +0.417 C 
ENDBRANCH  28  29
ENDBRANCH  22  23
ENDBRANCH  19   9
ENDBRANCH  11  19
BRANCH  13  20
ATOM     20  C   UNL     1     -18.656   2.841  22.380  0.00  0.00    +0.190 C 
BRANCH  20   6
ATOM      6  O   UNL     1     -17.453   2.898  21.629  0.00  0.00    -0.392 OA
ATOM     32  H   UNL     1     -17.264   1.996  21.323  0.00  0.00    +0.210 HD
ENDBRANCH  20   6
ENDBRANCH  13  20
TORSDOF 8
ENDMDL
MODEL 2
REMARK VINA RESULT:      -6.7     29.784     33.070
REMARK  Name = 38026794
REMARK  9 active torsions:
REMARK  status: ('A' for Active; 'I' for Inactive)
REMARK    1  A    between atoms: O_5  and  C_12
REMARK    2  A    between atoms: O_6  and  C_20
REMARK    3  A    between atoms: N_8  and  C_10
REMARK    4  A    between atoms: N_9  and  C_19
REMARK    5  A    between atoms: C_11  and  C_19
REMARK    6  A    between atoms: C_13  and  C_20
REMARK    7  A    between atoms: C_16  and  C_21
REMARK    8  A    between atoms: C_22  and  C_23
REMARK    9  A    between atoms: C_28  and  C_29
REMARK                            x       y       z     vdW  Elec       q    Type
REMARK                         _______ _______ _______ _____ _____    ______ ____
ROOT
ATOM      4  O   UNL     1       8.671   6.572   8.412  0.00  0.00    -0.365 OA
ATOM     10  C   UNL     1      10.655   7.383   7.376  0.00  0.00    +0.118 C 
ATOM     11  C   UNL     1       9.122   7.447   7.354  0.00  0.00    +0.155 C 
ATOM     12  C   UNL     1      10.933   6.016   7.983  0.00  0.00    +0.165 C 
ATOM     13  C   UNL     1       9.815   5.936   9.016  0.00  0.00    +0.174 C 
ENDROOT
BRANCH  10   8
ATOM      8  N   UNL     1      11.326   7.648   6.115  0.00  0.00    -0.295 NA
ATOM     14  C   UNL     1      12.704   7.141   6.149  0.00  0.00    +0.085 C 
ATOM     15  C   UNL     1      11.297   9.085   5.810  0.00  0.00    +0.085 C 
ATOM     16  C   UNL     1      13.390   8.843   4.410  0.00  0.00    -0.012 C 
ATOM     17  C   UNL     1      13.408   7.364   4.810  0.00  0.00    +0.018 C 
ATOM     18  C   UNL     1      11.953   9.375   4.458  0.00  0.00    +0.018 C 
ATOM     21  C   UNL     1      14.004   9.047   3.029  0.00  0.00    +0.007 C 
ENDBRANCH  10   8
BRANCH  12   5
ATOM      5  O   UNL     1      10.793   4.980   7.020  0.00  0.00    -0.388 OA
ATOM     30  H   UNL     1       9.894   4.618   7.106  0.00  0.00    +0.210 HD
ENDBRANCH  12   5
BRANCH  11  19
ATOM     19  C   UNL     1       8.436   6.995   6.070  0.00  0.00    +0.137 C 
BRANCH  19   9
ATOM      7  O   UNL     1       8.655   7.429   3.241  0.00  0.00    -0.270 OA
ATOM      9  N   UNL     1       9.368   6.372   5.180  0.00  0.00    -0.309 N 
ATOM     22  C   UNL     1       9.404   6.642   3.813  0.00  0.00    +0.244 C 
ATOM     31  H   UNL     1       9.968   5.657   5.577  0.00  0.00    +0.149 HD
BRANCH  22  23
ATOM     23  C   UNL     1      10.413   5.893   3.021  0.00  0.00    +0.037 A 
ATOM     24  C   UNL     1      11.177   6.555   2.060  0.00  0.00    +0.013 A 
ATOM     25  C   UNL     1      10.595   4.527   3.236  0.00  0.00    +0.013 A 
ATOM     26  C   UNL     1      12.125   5.852   1.316  0.00  0.00    +0.013 A 
ATOM     27  C   UNL     1      11.541   3.823   2.491  0.00  0.00    +0.013 A 
ATOM     28  C   UNL     1      12.307   4.486   1.531  0.00  0.00    +0.055 A 
BRANCH  28  29
ATOM      1  F   UNL     1      14.286   3.143   1.499  0.00  0.00    -0.166 F 
ATOM      2  F   UNL     1      13.987   4.529  -0.149  0.00  0.00    -0.166 F 
ATOM      3  F   UNL     1      12.787   2.721  -0.011  0.00  0.00    -0.166 F 
ATOM     29  C   UNL     1      13.320   3.734   0.736  0.00  0.00    +0.417 C 
ENDBRANCH  28  29
ENDBRANCH  22  23
ENDBRANCH  19   9
ENDBRANCH  11  19
BRANCH  13  20
ATOM     20  C   UNL     1       9.433   4.535   9.458  0.00  0.00    +0.190 C 
BRANCH  20   6
ATOM      6  O   UNL     1       9.835   4.354  10.807  0.00  0.00    -0.392 OA
ATOM     32  H   UNL     1       9.231   3.704  11.201  0.00  0.00    +0.210 HD
ENDBRANCH  20   6
ENDBRANCH  13  20
TORSDOF 8
ENDMDL
MODEL 3
REMARK VINA RESULT:      -6.6     29.388     34.021
REMARK  Name = 38026794
REMARK  9 active torsions:
REMARK  status: ('A' for Active; 'I' for Inactive)
REMARK    1  A    between atoms: O_5  and  C_12
REMARK    2  A    between atoms: O_6  and  C_20
REMARK    3  A    between atoms: N_8  and  C_10
REMARK    4  A    between atoms: N_9  and  C_19
REMARK    5  A    between atoms: C_11  and  C_19
REMARK    6  A    between atoms: C_13  and  C_20
REMARK    7  A    between atoms: C_16  and  C_21
REMARK    8  A    between atoms: C_22  and  C_23
REMARK    9  A    between atoms: C_28  and  C_29
REMARK                            x       y       z     vdW  Elec       q    Type
REMARK                         _______ _______ _______ _____ _____    ______ ____
ROOT
ATOM      4  O   UNL     1      11.988   8.278   2.646  0.00  0.00    -0.365 OA
ATOM     10  C   UNL     1      12.619   6.649   1.029  0.00  0.00    +0.118 C 
ATOM     11  C   UNL     1      11.513   7.626   1.447  0.00  0.00    +0.155 C 
ATOM     12  C   UNL     1      13.325   6.347   2.342  0.00  0.00    +0.165 C 
ATOM     13  C   UNL     1      13.262   7.713   3.015  0.00  0.00    +0.174 C 
ENDROOT
BRANCH  10   8
ATOM      8  N   UNL     1      12.194   5.484   0.272  0.00  0.00    -0.295 NA
ATOM     14  C   UNL     1      13.289   4.511   0.168  0.00  0.00    +0.085 C 
ATOM     15  C   UNL     1      11.711   5.883  -1.057  0.00  0.00    +0.085 C 
ATOM     16  C   UNL     1      12.295   3.598  -1.970  0.00  0.00    -0.012 C 
ATOM     17  C   UNL     1      12.841   3.254  -0.580  0.00  0.00    +0.018 C 
ATOM     18  C   UNL     1      11.209   4.673  -1.848  0.00  0.00    +0.018 C 
ATOM     21  C   UNL     1      11.758   2.354  -2.672  0.00  0.00    +0.007 C 
ENDBRANCH  10   8
BRANCH  12   5
ATOM      5  O   UNL     1      12.611   5.384   3.107  0.00  0.00    -0.388 OA
ATOM     30  H   UNL     1      13.263   4.869   3.612  0.00  0.00    +0.210 HD
ENDBRANCH  12   5
BRANCH  11  19
ATOM     19  C   UNL     1      10.152   7.021   1.771  0.00  0.00    +0.137 C 
BRANCH  19   9
ATOM      7  O   UNL     1       8.183   7.774   3.720  0.00  0.00    -0.270 OA
ATOM      9  N   UNL     1      10.090   6.589   3.134  0.00  0.00    -0.309 N 
ATOM     22  C   UNL     1       9.095   7.006   4.015  0.00  0.00    +0.244 C 
ATOM     31  H   UNL     1      10.855   6.009   3.462  0.00  0.00    +0.149 HD
BRANCH  22  23
ATOM     23  C   UNL     1       9.186   6.487   5.404  0.00  0.00    +0.037 A 
ATOM     24  C   UNL     1       9.612   5.178   5.633  0.00  0.00    +0.013 A 
ATOM     25  C   UNL     1       8.846   7.308   6.479  0.00  0.00    +0.013 A 
ATOM     26  C   UNL     1       9.698   4.690   6.937  0.00  0.00    +0.013 A 
ATOM     27  C   UNL     1       8.931   6.820   7.784  0.00  0.00    +0.013 A 
ATOM     28  C   UNL     1       9.357   5.511   8.012  0.00  0.00    +0.055 A 
BRANCH  28  29
ATOM      1  F   UNL     1      10.544   5.442  10.089  0.00  0.00    -0.166 F 
ATOM      2  F   UNL     1       9.526   3.628   9.454  0.00  0.00    -0.166 F 
ATOM      3  F   UNL     1       8.380   5.325  10.188  0.00  0.00    -0.166 F 
ATOM     29  C   UNL     1       9.450   4.990   9.407  0.00  0.00    +0.417 C 
ENDBRANCH  28  29
ENDBRANCH  22  23
ENDBRANCH  19   9
ENDBRANCH  11  19
BRANCH  13  20
ATOM     20  C   UNL     1      13.386   7.702   4.528  0.00  0.00    +0.190 C 
BRANCH  20   6
ATOM      6  O   UNL     1      14.457   6.848   4.895  0.00  0.00    -0.392 OA
ATOM     32  H   UNL     1      14.923   6.605   4.077  0.00  0.00    +0.210 HD
ENDBRANCH  20   6
ENDBRANCH  13  20
TORSDOF 8
ENDMDL
MODEL 4
REMARK VINA RESULT:      -6.4     18.739     19.769
REMARK  Name = 38026794
REMARK  9 active torsions:
REMARK  status: ('A' for Active; 'I' for Inactive)
REMARK    1  A    between atoms: O_5  and  C_12
REMARK    2  A    between atoms: O_6  and  C_20
REMARK    3  A    between atoms: N_8  and  C_10
REMARK    4  A    between atoms: N_9  and  C_19
REMARK    5  A    between atoms: C_11  and  C_19
REMARK    6  A    between atoms: C_13  and  C_20
REMARK    7  A    between atoms: C_16  and  C_21
REMARK    8  A    between atoms: C_22  and  C_23
REMARK    9  A    between atoms: C_28  and  C_29
REMARK                            x       y       z     vdW  Elec       q    Type
REMARK                         _______ _______ _______ _____ _____    ______ ____
ROOT
ATOM      4  O   UNL     1      -5.733 -11.628  17.647  0.00  0.00    -0.365 OA
ATOM     10  C   UNL     1      -7.956 -11.592  18.497  0.00  0.00    +0.118 C 
ATOM     11  C   UNL     1      -7.080 -11.255  17.283  0.00  0.00    +0.155 C 
ATOM     12  C   UNL     1      -6.977 -11.514  19.658  0.00  0.00    +0.165 C 
ATOM     13  C   UNL     1      -5.726 -12.095  19.011  0.00  0.00    +0.174 C 
ENDROOT
BRANCH  10   8
ATOM      8  N   UNL     1      -9.167 -10.804  18.653  0.00  0.00    -0.295 NA
ATOM     14  C   UNL     1      -9.819 -11.112  19.932  0.00  0.00    +0.085 C 
ATOM     15  C   UNL     1     -10.079 -11.034  17.524  0.00  0.00    +0.085 C 
ATOM     16  C   UNL     1     -12.054 -10.418  18.977  0.00  0.00    -0.012 C 
ATOM     17  C   UNL     1     -11.067 -10.252  20.137  0.00  0.00    +0.018 C 
ATOM     18  C   UNL     1     -11.336 -10.171  17.646  0.00  0.00    +0.018 C 
ATOM     21  C   UNL     1     -13.250  -9.484  19.136  0.00  0.00    +0.007 C 
ENDBRANCH  10   8
BRANCH  12   5
ATOM      5  O   UNL     1      -6.749 -10.168  20.057  0.00  0.00    -0.388 OA
ATOM     30  H   UNL     1      -5.972  -9.845  19.569  0.00  0.00    +0.210 HD
ENDBRANCH  12   5
BRANCH  11  19
ATOM     19  C   UNL     1      -7.044  -9.795  16.849  0.00  0.00    +0.137 C 
BRANCH  19   9
ATOM      7  O   UNL     1      -8.087 -10.501  14.270  0.00  0.00    -0.270 OA
ATOM      9  N   UNL     1      -6.381  -9.647  15.589  0.00  0.00    -0.309 N 
ATOM     22  C   UNL     1      -6.964 -10.018  14.380  0.00  0.00    +0.244 C 
ATOM     31  H   UNL     1      -5.421  -9.319  15.617  0.00  0.00    +0.149 HD
BRANCH  22  23
ATOM     23  C   UNL     1      -6.134  -9.824  13.163  0.00  0.00    +0.037 A 
ATOM     24  C   UNL     1      -6.604  -9.029  12.118  0.00  0.00    +0.013 A 
ATOM     25  C   UNL     1      -4.886 -10.439  13.064  0.00  0.00    +0.013 A 
ATOM     26  C   UNL     1      -5.826  -8.847  10.974  0.00  0.00    +0.013 A 
ATOM     27  C   UNL     1      -4.108 -10.258  11.921  0.00  0.00    +0.013 A 
ATOM     28  C   UNL     1      -4.578  -9.462  10.876  0.00  0.00    +0.055 A 
BRANCH  28  29
ATOM      1  F   UNL     1      -2.428  -9.020   9.922  0.00  0.00    -0.166 F 
ATOM      2  F   UNL     1      -4.167  -8.216   8.893  0.00  0.00    -0.166 F 
ATOM      3  F   UNL     1      -3.740 -10.347   8.817  0.00  0.00    -0.166 F 
ATOM     29  C   UNL     1      -3.745  -9.267   9.654  0.00  0.00    +0.417 C 
ENDBRANCH  28  29
ENDBRANCH  22  23
ENDBRANCH  19   9
ENDBRANCH  11  19
BRANCH  13  20
ATOM     20  C   UNL     1      -4.412 -11.710  19.665  0.00  0.00    +0.190 C 
BRANCH  20   6
ATOM      6  O   UNL     1      -3.371 -12.493  19.102  0.00  0.00    -0.392 OA
ATOM     32  H   UNL     1      -2.570 -12.321  19.623  0.00  0.00    +0.210 HD
ENDBRANCH  20   6
ENDBRANCH  13  20
TORSDOF 8
ENDMDL
MODEL 5
REMARK VINA RESULT:      -6.3     18.407     19.668
REMARK  Name = 38026794
REMARK  9 active torsions:
REMARK  status: ('A' for Active; 'I' for Inactive)
REMARK    1  A    between atoms: O_5  and  C_12
REMARK    2  A    between atoms: O_6  and  C_20
REMARK    3  A    between atoms: N_8  and  C_10
REMARK    4  A    between atoms: N_9  and  C_19
REMARK    5  A    between atoms: C_11  and  C_19
REMARK    6  A    between atoms: C_13  and  C_20
REMARK    7  A    between atoms: C_16  and  C_21
REMARK    8  A    between atoms: C_22  and  C_23
REMARK    9  A    between atoms: C_28  and  C_29
REMARK                            x       y       z     vdW  Elec       q    Type
REMARK                         _______ _______ _______ _____ _____    ______ ____
ROOT
ATOM      4  O   UNL     1      -9.894 -14.706  20.235  0.00  0.00    -0.365 OA
ATOM     10  C   UNL     1     -10.517 -12.850  18.880  0.00  0.00    +0.118 C 
ATOM     11  C   UNL     1      -9.335 -13.707  19.354  0.00  0.00    +0.155 C 
ATOM     12  C   UNL     1     -11.526 -13.006  20.007  0.00  0.00    +0.165 C 
ATOM     13  C   UNL     1     -11.308 -14.467  20.380  0.00  0.00    +0.174 C 
ENDROOT
BRANCH  10   8
ATOM      8  N   UNL     1     -10.208 -11.480  18.509  0.00  0.00    -0.295 NA
ATOM     14  C   UNL     1     -11.425 -10.658  18.520  0.00  0.00    +0.085 C 
ATOM     15  C   UNL     1      -9.551 -11.438  17.196  0.00  0.00    +0.085 C 
ATOM     16  C   UNL     1     -10.393  -9.081  16.835  0.00  0.00    -0.012 C 
ATOM     17  C   UNL     1     -11.110  -9.200  18.184  0.00  0.00    +0.018 C 
ATOM     18  C   UNL     1      -9.171 -10.006  16.814  0.00  0.00    +0.018 C 
ATOM     21  C   UNL     1      -9.992  -7.637  16.552  0.00  0.00    +0.007 C 
ENDBRANCH  10   8
BRANCH  12   5
ATOM      5  O   UNL     1     -11.212 -12.162  21.107  0.00  0.00    -0.388 OA
ATOM     30  H   UNL     1     -10.246 -12.171  21.218  0.00  0.00    +0.210 HD
ENDBRANCH  12   5
BRANCH  11  19
ATOM     19  C   UNL     1      -8.234 -12.988  20.125  0.00  0.00    +0.137 C 
BRANCH  19   9
ATOM      7  O   UNL     1      -6.784 -10.511  20.100  0.00  0.00    -0.270 OA
ATOM      9  N   UNL     1      -7.141 -12.646  19.267  0.00  0.00    -0.309 N 
ATOM     22  C   UNL     1      -6.492 -11.415  19.323  0.00  0.00    +0.244 C 
ATOM     31  H   UNL     1      -6.896 -13.323  18.552  0.00  0.00    +0.149 HD
BRANCH  22  23
ATOM     23  C   UNL     1      -5.393 -11.205  18.346  0.00  0.00    +0.037 A 
ATOM     24  C   UNL     1      -4.136 -11.764  18.580  0.00  0.00    +0.013 A 
ATOM     25  C   UNL     1      -5.616 -10.450  17.195  0.00  0.00    +0.013 A 
ATOM     26  C   UNL     1      -3.103 -11.567  17.664  0.00  0.00    +0.013 A 
ATOM     27  C   UNL     1      -4.583 -10.253  16.278  0.00  0.00    +0.013 A 
ATOM     28  C   UNL     1      -3.326 -10.812  16.513  0.00  0.00    +0.055 A 
BRANCH  28  29
ATOM      1  F   UNL     1      -2.654 -10.207  14.298  0.00  0.00    -0.166 F 
ATOM      2  F   UNL     1      -1.489 -11.733  15.319  0.00  0.00    -0.166 F 
ATOM      3  F   UNL     1      -1.322  -9.649  15.917  0.00  0.00    -0.166 F 
ATOM     29  C   UNL     1      -2.222 -10.603  15.532  0.00  0.00    +0.417 C 
ENDBRANCH  28  29
ENDBRANCH  22  23
ENDBRANCH  19   9
ENDBRANCH  11  19
BRANCH  13  20
ATOM     20  C   UNL     1     -11.740 -14.856  21.782  0.00  0.00    +0.190 C 
BRANCH  20   6
ATOM      6  O   UNL     1     -10.715 -14.497  22.695  0.00  0.00    -0.392 OA
ATOM     32  H   UNL     1     -10.429 -13.598  22.465  0.00  0.00    +0.210 HD
ENDBRANCH  20   6
ENDBRANCH  13  20
TORSDOF 8
ENDMDL
MODEL 6
REMARK VINA RESULT:      -6.3     17.854     19.272
REMARK  Name = 38026794
REMARK  9 active torsions:
REMARK  status: ('A' for Active; 'I' for Inactive)
REMARK    1  A    between atoms: O_5  and  C_12
REMARK    2  A    between atoms: O_6  and  C_20
REMARK    3  A    between atoms: N_8  and  C_10
REMARK    4  A    between atoms: N_9  and  C_19
REMARK    5  A    between atoms: C_11  and  C_19
REMARK    6  A    between atoms: C_13  and  C_20
REMARK    7  A    between atoms: C_16  and  C_21
REMARK    8  A    between atoms: C_22  and  C_23
REMARK    9  A    between atoms: C_28  and  C_29
REMARK                            x       y       z     vdW  Elec       q    Type
REMARK                         _______ _______ _______ _____ _____    ______ ____
ROOT
ATOM      4  O   UNL     1      -9.484 -11.445  16.831  0.00  0.00    -0.365 OA
ATOM     10  C   UNL     1     -10.691  -9.412  16.550  0.00  0.00    +0.118 C 
ATOM     11  C   UNL     1     -10.274 -10.720  15.863  0.00  0.00    +0.155 C 
ATOM     12  C   UNL     1      -9.592  -9.202  17.581  0.00  0.00    +0.165 C 
ATOM     13  C   UNL     1      -9.337 -10.640  18.017  0.00  0.00    +0.174 C 
ENDROOT
BRANCH  10   8
ATOM      8  N   UNL     1     -10.945  -8.281  15.675  0.00  0.00    -0.295 NA
ATOM     14  C   UNL     1     -11.070  -7.044  16.458  0.00  0.00    +0.085 C 
ATOM     15  C   UNL     1     -12.146  -8.518  14.863  0.00  0.00    +0.085 C 
ATOM     16  C   UNL     1     -12.508  -6.025  14.646  0.00  0.00    -0.012 C 
ATOM     17  C   UNL     1     -11.284  -5.834  15.548  0.00  0.00    +0.018 C 
ATOM     18  C   UNL     1     -12.397  -7.358  13.898  0.00  0.00    +0.018 C 
ATOM     21  C   UNL     1     -12.659  -4.860  13.671  0.00  0.00    +0.007 C 
ENDBRANCH  10   8
BRANCH  12   5
ATOM      5  O   UNL     1      -8.423  -8.648  16.990  0.00  0.00    -0.388 OA
ATOM     30  H   UNL     1      -8.587  -8.569  16.035  0.00  0.00    +0.210 HD
ENDBRANCH  12   5
BRANCH  11  19
ATOM     19  C   UNL     1      -9.433 -10.590  14.598  0.00  0.00    +0.137 C 
BRANCH  19   9
ATOM      7  O   UNL     1      -7.290  -9.633  12.945  0.00  0.00    -0.270 OA
ATOM      9  N   UNL     1      -8.035 -10.634  14.901  0.00  0.00    -0.309 N 
ATOM     22  C   UNL     1      -7.058 -10.144  14.037  0.00  0.00    +0.244 C 
ATOM     31  H   UNL     1      -7.770 -11.109  15.758  0.00  0.00    +0.149 HD
BRANCH  22  23
ATOM     23  C   UNL     1      -5.649 -10.288  14.487  0.00  0.00    +0.037 A 
ATOM     24  C   UNL     1      -5.338 -10.195  15.844  0.00  0.00    +0.013 A 
ATOM     25  C   UNL     1      -4.638 -10.515  13.554  0.00  0.00    +0.013 A 
ATOM     26  C   UNL     1      -4.016 -10.330  16.267  0.00  0.00    +0.013 A 
ATOM     27  C   UNL     1      -3.315 -10.649  13.977  0.00  0.00    +0.013 A 
ATOM     28  C   UNL     1      -3.004 -10.556  15.334  0.00  0.00    +0.055 A 
BRANCH  28  29
ATOM      1  F   UNL     1      -0.830  -9.587  15.573  0.00  0.00    -0.166 F 
ATOM      2  F   UNL     1      -0.939 -11.717  15.152  0.00  0.00    -0.166 F 
ATOM      3  F   UNL     1      -1.468 -10.964  17.122  0.00  0.00    -0.166 F 
ATOM     29  C   UNL     1      -1.591 -10.701  15.787  0.00  0.00    +0.417 C 
ENDBRANCH  28  29
ENDBRANCH  22  23
ENDBRANCH  19   9
ENDBRANCH  11  19
BRANCH  13  20
ATOM     20  C   UNL     1      -7.976 -10.903  18.636  0.00  0.00    +0.190 C 
BRANCH  20   6
ATOM      6  O   UNL     1      -8.027 -10.571  20.015  0.00  0.00    -0.392 OA
ATOM     32  H   UNL     1      -7.928  -9.607  20.081  0.00  0.00    +0.210 HD
ENDBRANCH  20   6
ENDBRANCH  13  20
TORSDOF 8
ENDMDL
MODEL 7
REMARK VINA RESULT:      -6.3     29.740     33.937
REMARK  Name = 38026794
REMARK  9 active torsions:
REMARK  status: ('A' for Active; 'I' for Inactive)
REMARK    1  A    between atoms: O_5  and  C_12
REMARK    2  A    between atoms: O_6  and  C_20
REMARK    3  A    between atoms: N_8  and  C_10
REMARK    4  A    between atoms: N_9  and  C_19
REMARK    5  A    between atoms: C_11  and  C_19
REMARK    6  A    between atoms: C_13  and  C_20
REMARK    7  A    between atoms: C_16  and  C_21
REMARK    8  A    between atoms: C_22  and  C_23
REMARK    9  A    between atoms: C_28  and  C_29
REMARK                            x       y       z     vdW  Elec       q    Type
REMARK                         _______ _______ _______ _____ _____    ______ ____
ROOT
ATOM      4  O   UNL     1      11.944   6.169   1.418  0.00  0.00    -0.365 OA
ATOM     10  C   UNL     1      11.048   5.907  -0.772  0.00  0.00    +0.118 C 
ATOM     11  C   UNL     1      11.107   6.837   0.447  0.00  0.00    +0.155 C 
ATOM     12  C   UNL     1      11.301   4.534  -0.169  0.00  0.00    +0.165 C 
ATOM     13  C   UNL     1      12.330   4.881   0.899  0.00  0.00    +0.174 C 
ENDROOT
BRANCH  10   8
ATOM      8  N   UNL     1       9.860   6.012  -1.601  0.00  0.00    -0.295 NA
ATOM     14  C   UNL     1       9.883   4.996  -2.662  0.00  0.00    +0.085 C 
ATOM     15  C   UNL     1       9.743   7.364  -2.164  0.00  0.00    +0.085 C 
ATOM     16  C   UNL     1       8.408   6.453  -4.109  0.00  0.00    -0.012 C 
ATOM     17  C   UNL     1       8.612   5.057  -3.512  0.00  0.00    +0.018 C 
ATOM     18  C   UNL     1       8.467   7.506  -2.997  0.00  0.00    +0.018 C 
ATOM     21  C   UNL     1       7.089   6.536  -4.872  0.00  0.00    +0.007 C 
ENDBRANCH  10   8
BRANCH  12   5
ATOM      5  O   UNL     1      10.125   4.005   0.429  0.00  0.00    -0.388 OA
ATOM     30  H   UNL     1       9.525   4.749   0.607  0.00  0.00    +0.210 HD
ENDBRANCH  12   5
BRANCH  11  19
ATOM     19  C   UNL     1       9.783   7.151   1.133  0.00  0.00    +0.137 C 
BRANCH  19   9
ATOM      7  O   UNL     1       8.130   8.146   3.259  0.00  0.00    -0.270 OA
ATOM      9  N   UNL     1       9.792   6.717   2.497  0.00  0.00    -0.309 N 
ATOM     22  C   UNL     1       8.951   7.258   3.468  0.00  0.00    +0.244 C 
ATOM     31  H   UNL     1      10.498   6.035   2.752  0.00  0.00    +0.149 HD
BRANCH  22  23
ATOM     23  C   UNL     1       9.102   6.717   4.843  0.00  0.00    +0.037 A 
ATOM     24  C   UNL     1       8.798   7.518   5.944  0.00  0.00    +0.013 A 
ATOM     25  C   UNL     1       9.549   5.410   5.034  0.00  0.00    +0.013 A 
ATOM     26  C   UNL     1       8.939   7.011   7.236  0.00  0.00    +0.013 A 
ATOM     27  C   UNL     1       9.691   4.903   6.326  0.00  0.00    +0.013 A 
ATOM     28  C   UNL     1       9.386   5.704   7.427  0.00  0.00    +0.055 A 
BRANCH  28  29
ATOM      1  F   UNL     1      10.693   5.546   9.425  0.00  0.00    -0.166 F 
ATOM      2  F   UNL     1       9.542   3.797   8.838  0.00  0.00    -0.166 F 
ATOM      3  F   UNL     1       8.537   5.542   9.658  0.00  0.00    -0.166 F 
ATOM     29  C   UNL     1       9.537   5.161   8.808  0.00  0.00    +0.417 C 
ENDBRANCH  28  29
ENDBRANCH  22  23
ENDBRANCH  19   9
ENDBRANCH  11  19
BRANCH  13  20
ATOM     20  C   UNL     1      12.442   3.892   2.045  0.00  0.00    +0.190 C 
BRANCH  20   6
ATOM      6  O   UNL     1      11.556   4.287   3.080  0.00  0.00    -0.392 OA
ATOM     32  H   UNL     1      10.959   4.956   2.706  0.00  0.00    +0.210 HD
ENDBRANCH  20   6
ENDBRANCH  13  20
TORSDOF 8
ENDMDL
MODEL 8
REMARK VINA RESULT:      -6.2     30.784     33.711
REMARK  Name = 38026794
REMARK  9 active torsions:
REMARK  status: ('A' for Active; 'I' for Inactive)
REMARK    1  A    between atoms: O_5  and  C_12
REMARK    2  A    between atoms: O_6  and  C_20
REMARK    3  A    between atoms: N_8  and  C_10
REMARK    4  A    between atoms: N_9  and  C_19
REMARK    5  A    between atoms: C_11  and  C_19
REMARK    6  A    between atoms: C_13  and  C_20
REMARK    7  A    between atoms: C_16  and  C_21
REMARK    8  A    between atoms: C_22  and  C_23
REMARK    9  A    between atoms: C_28  and  C_29
REMARK                            x       y       z     vdW  Elec       q    Type
REMARK                         _______ _______ _______ _____ _____    ______ ____
ROOT
ATOM      4  O   UNL     1       9.896   4.890   6.461  0.00  0.00    -0.365 OA
ATOM     10  C   UNL     1       8.808   6.803   5.555  0.00  0.00    +0.118 C 
ATOM     11  C   UNL     1       9.673   5.582   5.213  0.00  0.00    +0.155 C 
ATOM     12  C   UNL     1       9.150   7.068   7.013  0.00  0.00    +0.165 C 
ATOM     13  C   UNL     1       9.292   5.642   7.532  0.00  0.00    +0.174 C 
ENDROOT
BRANCH  10   8
ATOM      8  N   UNL     1       8.937   7.948   4.670  0.00  0.00    -0.295 NA
ATOM     14  C   UNL     1       8.152   9.080   5.178  0.00  0.00    +0.085 C 
ATOM     15  C   UNL     1       8.531   7.591   3.304  0.00  0.00    +0.085 C 
ATOM     16  C   UNL     1       7.941  10.004   2.833  0.00  0.00    -0.012 C 
ATOM     17  C   UNL     1       8.319  10.312   4.286  0.00  0.00    +0.018 C 
ATOM     18  C   UNL     1       8.712   8.772   2.348  0.00  0.00    +0.018 C 
ATOM     21  C   UNL     1       8.205  11.206   1.931  0.00  0.00    +0.007 C 
ENDBRANCH  10   8
BRANCH  12   5
ATOM      5  O   UNL     1      10.382   7.766   7.140  0.00  0.00    -0.388 OA
ATOM     30  H   UNL     1      10.902   7.322   7.831  0.00  0.00    +0.210 HD
ENDBRANCH  12   5
BRANCH  11  19
ATOM     19  C   UNL     1      11.040   5.861   4.600  0.00  0.00    +0.137 C 
BRANCH  19   9
ATOM      7  O   UNL     1      11.887   6.995   2.102  0.00  0.00    -0.270 OA
ATOM      9  N   UNL     1      11.199   5.169   3.357  0.00  0.00    -0.309 N 
ATOM     22  C   UNL     1      11.617   5.800   2.188  0.00  0.00    +0.244 C 
ATOM     31  H   UNL     1      10.923   4.192   3.342  0.00  0.00    +0.149 HD
BRANCH  22  23
ATOM     23  C   UNL     1      11.707   4.946   0.975  0.00  0.00    +0.037 A 
ATOM     24  C   UNL     1      12.727   4.000   0.863  0.00  0.00    +0.013 A 
ATOM     25  C   UNL     1      10.775   5.091  -0.052  0.00  0.00    +0.013 A 
ATOM     26  C   UNL     1      12.812   3.198  -0.275  0.00  0.00    +0.013 A 
ATOM     27  C   UNL     1      10.861   4.290  -1.190  0.00  0.00    +0.013 A 
ATOM     28  C   UNL     1      11.880   3.343  -1.302  0.00  0.00    +0.055 A 
BRANCH  28  29
ATOM      1  F   UNL     1      10.875   2.569  -3.330  0.00  0.00    -0.166 F 
ATOM      2  F   UNL     1      12.104   1.161  -2.218  0.00  0.00    -0.166 F 
ATOM      3  F   UNL     1      13.033   2.788  -3.323  0.00  0.00    -0.166 F 
ATOM     29  C   UNL     1      11.971   2.485  -2.519  0.00  0.00    +0.417 C 
ENDBRANCH  28  29
ENDBRANCH  22  23
ENDBRANCH  19   9
ENDBRANCH  11  19
BRANCH  13  20
ATOM     20  C   UNL     1      10.127   5.484   8.789  0.00  0.00    +0.190 C 
BRANCH  20   6
ATOM      6  O   UNL     1      11.498   5.424   8.426  0.00  0.00    -0.392 OA
ATOM     32  H   UNL     1      11.585   4.725   7.757  0.00  0.00    +0.210 HD
ENDBRANCH  20   6
ENDBRANCH  13  20
TORSDOF 8
ENDMDL
MODEL 9
REMARK VINA RESULT:      -6.2      1.861      2.359
REMARK  Name = 38026794
REMARK  9 active torsions:
REMARK  status: ('A' for Active; 'I' for Inactive)
REMARK    1  A    between atoms: O_5  and  C_12
REMARK    2  A    between atoms: O_6  and  C_20
REMARK    3  A    between atoms: N_8  and  C_10
REMARK    4  A    between atoms: N_9  and  C_19
REMARK    5  A    between atoms: C_11  and  C_19
REMARK    6  A    between atoms: C_13  and  C_20
REMARK    7  A    between atoms: C_16  and  C_21
REMARK    8  A    between atoms: C_22  and  C_23
REMARK    9  A    between atoms: C_28  and  C_29
REMARK                            x       y       z     vdW  Elec       q    Type
REMARK                         _______ _______ _______ _____ _____    ______ ____
ROOT
ATOM      4  O   UNL     1     -17.096   4.813  21.860  0.00  0.00    -0.365 OA
ATOM     10  C   UNL     1     -17.554   3.715  23.922  0.00  0.00    +0.118 C 
ATOM     11  C   UNL     1     -16.596   4.679  23.209  0.00  0.00    +0.155 C 
ATOM     12  C   UNL     1     -18.120   2.886  22.779  0.00  0.00    +0.165 C 
ATOM     13  C   UNL     1     -18.237   3.948  21.693  0.00  0.00    +0.174 C 
ENDROOT
BRANCH  10   8
ATOM      8  N   UNL     1     -16.993   2.952  25.023  0.00  0.00    -0.295 NA
ATOM     14  C   UNL     1     -17.916   1.884  25.431  0.00  0.00    +0.085 C 
ATOM     15  C   UNL     1     -16.674   3.837  26.152  0.00  0.00    +0.085 C 
ATOM     16  C   UNL     1     -16.930   1.901  27.759  0.00  0.00    -0.012 C 
ATOM     17  C   UNL     1     -17.317   1.036  26.554  0.00  0.00    +0.018 C 
ATOM     18  C   UNL     1     -16.033   3.056  27.301  0.00  0.00    +0.018 C 
ATOM     21  C   UNL     1     -16.243   1.066  28.836  0.00  0.00    +0.007 C 
ENDBRANCH  10   8
BRANCH  12   5
ATOM      5  O   UNL     1     -17.214   1.865  22.379  0.00  0.00    -0.388 OA
ATOM     30  H   UNL     1     -16.313   2.194  22.539  0.00  0.00    +0.210 HD
ENDBRANCH  12   5
BRANCH  11  19
ATOM     19  C   UNL     1     -15.138   4.246  23.109  0.00  0.00    +0.137 C 
BRANCH  19   9
ATOM      7  O   UNL     1     -14.347   7.005  23.049  0.00  0.00    -0.270 OA
ATOM      9  N   UNL     1     -14.471   4.921  22.037  0.00  0.00    -0.309 N 
ATOM     22  C   UNL     1     -14.123   6.269  22.092  0.00  0.00    +0.244 C 
ATOM     31  H   UNL     1     -14.321   4.386  21.188  0.00  0.00    +0.149 HD
BRANCH  22  23
ATOM     23  C   UNL     1     -13.459   6.826  20.886  0.00  0.00    +0.037 A 
ATOM     24  C   UNL     1     -14.220   7.449  19.896  0.00  0.00    +0.013 A 
ATOM     25  C   UNL     1     -12.076   6.726  20.741  0.00  0.00    +0.013 A 
ATOM     26  C   UNL     1     -13.597   7.972  18.763  0.00  0.00    +0.013 A 
ATOM     27  C   UNL     1     -11.452   7.249  19.608  0.00  0.00    +0.013 A 
ATOM     28  C   UNL     1     -12.214   7.872  18.618  0.00  0.00    +0.055 A 
BRANCH  28  29
ATOM      1  F   UNL     1     -12.235   8.204  16.249  0.00  0.00    -0.166 F 
ATOM      2  F   UNL     1     -10.304   7.910  17.204  0.00  0.00    -0.166 F 
ATOM      3  F   UNL     1     -11.374   9.786  17.456  0.00  0.00    -0.166 F 
ATOM     29  C   UNL     1     -11.548   8.432  17.407  0.00  0.00    +0.417 C 
ENDBRANCH  28  29
ENDBRANCH  22  23
ENDBRANCH  19   9
ENDBRANCH  11  19
BRANCH  13  20
ATOM     20  C   UNL     1     -18.265   3.425  20.268  0.00  0.00    +0.190 C 
BRANCH  20   6
ATOM      6  O   UNL     1     -19.096   2.276  20.217  0.00  0.00    -0.392 OA
ATOM     32  H   UNL     1     -18.849   1.779  19.420  0.00  0.00    +0.210 HD
ENDBRANCH  20   6
ENDBRANCH  13  20
TORSDOF 8
ENDMDL
MODEL 10
REMARK VINA RESULT:      -6.1     19.516     22.380
REMARK  Name = 38026794
REMARK  9 active torsions:
REMARK  status: ('A' for Active; 'I' for Inactive)
REMARK    1  A    between atoms: O_5  and  C_12
REMARK    2  A    between atoms: O_6  and  C_20
REMARK    3  A    between atoms: N_8  and  C_10
REMARK    4  A    between atoms: N_9  and  C_19
REMARK    5  A    between atoms: C_11  and  C_19
REMARK    6  A    between atoms: C_13  and  C_20
REMARK    7  A    between atoms: C_16  and  C_21
REMARK    8  A    between atoms: C_22  and  C_23
REMARK    9  A    between atoms: C_28  and  C_29
REMARK                            x       y       z     vdW  Elec       q    Type
REMARK                         _______ _______ _______ _____ _____    ______ ____
ROOT
ATOM      4  O   UNL     1      -7.982  -9.533  39.916  0.00  0.00    -0.365 OA
ATOM     10  C   UNL     1      -8.287  -7.205  40.309  0.00  0.00    +0.118 C 
ATOM     11  C   UNL     1      -8.991  -8.499  39.881  0.00  0.00    +0.155 C 
ATOM     12  C   UNL     1      -6.837  -7.461  39.926  0.00  0.00    +0.165 C 
ATOM     13  C   UNL     1      -6.714  -8.942  40.263  0.00  0.00    +0.174 C 
ENDROOT
BRANCH  10   8
ATOM      8  N   UNL     1      -8.853  -5.968  39.801  0.00  0.00    -0.295 NA
ATOM     14  C   UNL     1      -8.059  -4.817  40.249  0.00  0.00    +0.085 C 
ATOM     15  C   UNL     1     -10.257  -5.837  40.215  0.00  0.00    +0.085 C 
ATOM     16  C   UNL     1     -10.086  -3.320  40.045  0.00  0.00    -0.012 C 
ATOM     17  C   UNL     1      -8.611  -3.509  39.678  0.00  0.00    +0.018 C 
ATOM     18  C   UNL     1     -10.884  -4.564  39.642  0.00  0.00    +0.018 C 
ATOM     21  C   UNL     1     -10.658  -2.066  39.391  0.00  0.00    +0.007 C 
ENDBRANCH  10   8
BRANCH  12   5
ATOM      5  O   UNL     1      -6.621  -7.249  38.537  0.00  0.00    -0.388 OA
ATOM     30  H   UNL     1      -5.925  -6.575  38.448  0.00  0.00    +0.210 HD
ENDBRANCH  12   5
BRANCH  11  19
ATOM     19  C   UNL     1      -9.606  -8.514  38.486  0.00  0.00    +0.137 C 
BRANCH  19   9
ATOM      7  O   UNL     1     -11.021 -10.754  37.381  0.00  0.00    -0.270 OA
ATOM      9  N   UNL     1      -9.051  -9.567  37.690  0.00  0.00    -0.309 N 
ATOM     22  C   UNL     1      -9.815 -10.620  37.192  0.00  0.00    +0.244 C 
ATOM     31  H   UNL     1      -8.046  -9.554  37.556  0.00  0.00    +0.149 HD
BRANCH  22  23
ATOM     23  C   UNL     1      -9.085 -11.647  36.404  0.00  0.00    +0.037 A 
ATOM     24  C   UNL     1      -9.683 -12.880  36.141  0.00  0.00    +0.013 A 
ATOM     25  C   UNL     1      -7.802 -11.379  35.928  0.00  0.00    +0.013 A 
ATOM     26  C   UNL     1      -8.998 -13.844  35.402  0.00  0.00    +0.013 A 
ATOM     27  C   UNL     1      -7.116 -12.343  35.189  0.00  0.00    +0.013 A 
ATOM     28  C   UNL     1      -7.715 -13.576  34.926  0.00  0.00    +0.055 A 
BRANCH  28  29
ATOM      1  F   UNL     1      -5.673 -14.747  34.497  0.00  0.00    -0.166 F 
ATOM      2  F   UNL     1      -6.966 -14.328  32.799  0.00  0.00    -0.166 F 
ATOM      3  F   UNL     1      -7.517 -15.859  34.241  0.00  0.00    -0.166 F 
ATOM     29  C   UNL     1      -6.982 -14.607  34.134  0.00  0.00    +0.417 C 
ENDBRANCH  28  29
ENDBRANCH  22  23
ENDBRANCH  19   9
ENDBRANCH  11  19
BRANCH  13  20
ATOM     20  C   UNL     1      -5.602  -9.685  39.546  0.00  0.00    +0.190 C 
BRANCH  20   6
ATOM      6  O   UNL     1      -6.074 -10.106  38.277  0.00  0.00    -0.392 OA
ATOM     32  H   UNL     1      -7.039  -9.992  38.279  0.00  0.00    +0.210 HD
ENDBRANCH  20   6
ENDBRANCH  13  20
TORSDOF 8
ENDMDL
