MODEL 1
REMARK VINA RESULT:      -5.4      0.000      0.000
REMARK  Name = 11912444
REMARK  11 active torsions:
REMARK  status: ('A' for Active; 'I' for Inactive)
REMARK    1  A    between atoms: N_4  and  C_20
REMARK    2  A    between atoms: N_4  and  C_21
REMARK    3  A    between atoms: C_6  and  C_11
REMARK    4  A    between atoms: C_7  and  C_12
REMARK    5  A    between atoms: C_11  and  C_15
REMARK    6  A    between atoms: C_12  and  C_16
REMARK    7  A    between atoms: C_13  and  C_14
REMARK    8  A    between atoms: C_14  and  C_17
REMARK    9  A    between atoms: C_14  and  C_18
REMARK   10  A    between atoms: C_14  and  C_19
REMARK   11  A    between atoms: C_20  and  C_22
REMARK                            x       y       z     vdW  Elec       q    Type
REMARK                         _______ _______ _______ _____ _____    ______ ____
ROOT
ATOM      1  O   UNL     1       9.939  12.519  24.498  0.00  0.00    -0.275 OA
ATOM      3  N   UNL     1      11.902  11.603  23.656  0.00  0.00    -0.301 N 
ATOM      6  C   UNL     1      11.543  10.160  21.674  0.00  0.00    +0.010 C 
ATOM      7  C   UNL     1      13.066  10.152  21.396  0.00  0.00    +0.004 C 
ATOM      8  C   UNL     1      13.699  11.432  21.973  0.00  0.00    +0.023 C 
ATOM      9  C   UNL     1      11.237  10.394  23.161  0.00  0.00    +0.111 C 
ATOM     10  C   UNL     1      13.354  11.645  23.446  0.00  0.00    +0.108 C 
ATOM     13  C   UNL     1      11.160  12.573  24.332  0.00  0.00    +0.221 C 
ENDROOT
BRANCH  13  14
ATOM     14  C   UNL     1      11.925  13.750  24.881  0.00  0.00    +0.039 C 
ATOM     17  C   UNL     1      10.957  14.654  25.647  0.00  0.00    +0.020 C 
ATOM     18  C   UNL     1      13.022  13.234  25.813  0.00  0.00    +0.020 C 
ATOM     19  C   UNL     1      12.539  14.503  23.699  0.00  0.00    +0.020 C 
ENDBRANCH  13  14
BRANCH   6  11
ATOM     11  C   UNL     1      10.836   8.903  21.172  0.00  0.00    +0.002 C 
ATOM     15  C   UNL     1      10.455   7.994  22.321  0.00  0.00    +0.004 C 
ENDBRANCH   6  11
BRANCH   7  12
ATOM     12  C   UNL     1      13.788   8.902  21.912  0.00  0.00    +0.100 C 
BRANCH  12  16
ATOM      2  O   UNL     1      16.039   9.051  21.098  0.00  0.00    -0.276 OA
ATOM      4  N   UNL     1      14.677   7.451  20.116  0.00  0.00    -0.291 N 
ATOM     16  C   UNL     1      14.943   8.489  21.016  0.00  0.00    +0.216 C 
ATOM     21  C   UNL     1      15.682   6.941  19.190  0.00  0.00    +0.133 C 
BRANCH   4  20
ATOM     20  C   UNL     1      13.371   6.800  20.036  0.00  0.00    +0.226 C 
BRANCH  20  22
ATOM      5  N   UNL     1      12.224   7.287  17.728  0.00  0.00    -0.195 NA
ATOM     22  C   UNL     1      12.733   7.070  18.748  0.00  0.00    +0.082 C 
ENDBRANCH  20  22
ENDBRANCH   4  20
ENDBRANCH  12  16
ENDBRANCH   7  12
TORSDOF 6
ENDMDL
MODEL 2
REMARK VINA RESULT:      -5.3     15.987     19.488
REMARK  Name = 11912444
REMARK  11 active torsions:
REMARK  status: ('A' for Active; 'I' for Inactive)
REMARK    1  A    between atoms: N_4  and  C_20
REMARK    2  A    between atoms: N_4  and  C_21
REMARK    3  A    between atoms: C_6  and  C_11
REMARK    4  A    between atoms: C_7  and  C_12
REMARK    5  A    between atoms: C_11  and  C_15
REMARK    6  A    between atoms: C_12  and  C_16
REMARK    7  A    between atoms: C_13  and  C_14
REMARK    8  A    between atoms: C_14  and  C_17
REMARK    9  A    between atoms: C_14  and  C_18
REMARK   10  A    between atoms: C_14  and  C_19
REMARK   11  A    between atoms: C_20  and  C_22
REMARK                            x       y       z     vdW  Elec       q    Type
REMARK                         _______ _______ _______ _____ _____    ______ ____
ROOT
ATOM      1  O   UNL     1       8.221   7.329   6.876  0.00  0.00    -0.275 OA
ATOM      3  N   UNL     1       9.472   6.273   5.226  0.00  0.00    -0.301 N 
ATOM      6  C   UNL     1       9.714   7.621   3.160  0.00  0.00    +0.010 C 
ATOM      7  C   UNL     1      10.815   6.657   2.653  0.00  0.00    +0.004 C 
ATOM      8  C   UNL     1      11.506   5.991   3.856  0.00  0.00    +0.023 C 
ATOM      9  C   UNL     1       8.748   6.921   4.129  0.00  0.00    +0.111 C 
ATOM     10  C   UNL     1      10.514   5.326   4.810  0.00  0.00    +0.108 C 
ATOM     13  C   UNL     1       9.101   6.529   6.546  0.00  0.00    +0.221 C 
ENDROOT
BRANCH  13  14
ATOM     14  C   UNL     1       9.838   5.766   7.617  0.00  0.00    +0.039 C 
ATOM     17  C   UNL     1       9.771   4.272   7.295  0.00  0.00    +0.020 C 
ATOM     18  C   UNL     1      11.292   6.239   7.646  0.00  0.00    +0.020 C 
ATOM     19  C   UNL     1       9.155   6.056   8.955  0.00  0.00    +0.020 C 
ENDBRANCH  13  14
BRANCH   6  11
ATOM     11  C   UNL     1       8.943   8.298   2.029  0.00  0.00    +0.002 C 
ATOM     15  C   UNL     1       7.726   9.028   2.557  0.00  0.00    +0.004 C 
ENDBRANCH   6  11
BRANCH   7  12
ATOM     12  C   UNL     1      10.314   5.606   1.656  0.00  0.00    +0.100 C 
BRANCH  12  16
ATOM      2  O   UNL     1      10.937   6.463  -0.494  0.00  0.00    -0.276 OA
ATOM      4  N   UNL     1      12.056   4.568   0.239  0.00  0.00    -0.291 N 
ATOM     16  C   UNL     1      11.119   5.599   0.368  0.00  0.00    +0.216 C 
ATOM     21  C   UNL     1      12.906   4.427  -0.938  0.00  0.00    +0.133 C 
BRANCH   4  20
ATOM     20  C   UNL     1      12.254   3.555   1.274  0.00  0.00    +0.226 C 
BRANCH  20  22
ATOM      5  N   UNL     1      14.803   3.254   1.809  0.00  0.00    -0.195 NA
ATOM     22  C   UNL     1      13.676   3.385   1.570  0.00  0.00    +0.082 C 
ENDBRANCH  20  22
ENDBRANCH   4  20
ENDBRANCH  12  16
ENDBRANCH   7  12
TORSDOF 6
ENDMDL
MODEL 3
REMARK VINA RESULT:      -5.3     23.644     25.564
REMARK  Name = 11912444
REMARK  11 active torsions:
REMARK  status: ('A' for Active; 'I' for Inactive)
REMARK    1  A    between atoms: N_4  and  C_20
REMARK    2  A    between atoms: N_4  and  C_21
REMARK    3  A    between atoms: C_6  and  C_11
REMARK    4  A    between atoms: C_7  and  C_12
REMARK    5  A    between atoms: C_11  and  C_15
REMARK    6  A    between atoms: C_12  and  C_16
REMARK    7  A    between atoms: C_13  and  C_14
REMARK    8  A    between atoms: C_14  and  C_17
REMARK    9  A    between atoms: C_14  and  C_18
REMARK   10  A    between atoms: C_14  and  C_19
REMARK   11  A    between atoms: C_20  and  C_22
REMARK                            x       y       z     vdW  Elec       q    Type
REMARK                         _______ _______ _______ _____ _____    ______ ____
ROOT
ATOM      1  O   UNL     1     -12.589  10.049  21.187  0.00  0.00    -0.275 OA
ATOM      3  N   UNL     1     -12.122   9.216  19.069  0.00  0.00    -0.301 N 
ATOM      6  C   UNL     1     -10.218  10.352  17.962  0.00  0.00    +0.010 C 
ATOM      7  C   UNL     1     -10.174   9.242  16.883  0.00  0.00    +0.004 C 
ATOM      8  C   UNL     1     -10.745   7.938  17.467  0.00  0.00    +0.023 C 
ATOM      9  C   UNL     1     -11.621  10.499  18.570  0.00  0.00    +0.111 C 
ATOM     10  C   UNL     1     -12.130   8.127  18.084  0.00  0.00    +0.108 C 
ATOM     13  C   UNL     1     -12.605   9.121  20.374  0.00  0.00    +0.221 C 
ENDROOT
BRANCH  13  14
ATOM     14  C   UNL     1     -13.176   7.790  20.791  0.00  0.00    +0.039 C 
ATOM     17  C   UNL     1     -13.817   7.937  22.172  0.00  0.00    +0.020 C 
ATOM     18  C   UNL     1     -14.223   7.359  19.763  0.00  0.00    +0.020 C 
ATOM     19  C   UNL     1     -12.027   6.781  20.838  0.00  0.00    +0.020 C 
ENDBRANCH  13  14
BRANCH   6  11
ATOM     11  C   UNL     1      -9.708  11.700  17.456  0.00  0.00    +0.002 C 
ATOM     15  C   UNL     1     -10.595  12.832  17.928  0.00  0.00    +0.004 C 
ENDBRANCH   6  11
BRANCH   7  12
ATOM     12  C   UNL     1     -10.883   9.615  15.576  0.00  0.00    +0.100 C 
BRANCH  12  16
ATOM      2  O   UNL     1     -10.083   7.742  14.311  0.00  0.00    -0.276 OA
ATOM      4  N   UNL     1     -12.363   8.161  14.226  0.00  0.00    -0.291 N 
ATOM     16  C   UNL     1     -11.055   8.422  14.651  0.00  0.00    +0.216 C 
ATOM     21  C   UNL     1     -12.690   7.052  13.338  0.00  0.00    +0.133 C 
BRANCH   4  20
ATOM     20  C   UNL     1     -13.499   8.981  14.642  0.00  0.00    +0.226 C 
BRANCH  20  22
ATOM      5  N   UNL     1     -15.335   7.508  15.797  0.00  0.00    -0.195 NA
ATOM     22  C   UNL     1     -14.525   8.161  15.285  0.00  0.00    +0.082 C 
ENDBRANCH  20  22
ENDBRANCH   4  20
ENDBRANCH  12  16
ENDBRANCH   7  12
TORSDOF 6
ENDMDL
MODEL 4
REMARK VINA RESULT:      -5.2      1.559      2.286
REMARK  Name = 11912444
REMARK  11 active torsions:
REMARK  status: ('A' for Active; 'I' for Inactive)
REMARK    1  A    between atoms: N_4  and  C_20
REMARK    2  A    between atoms: N_4  and  C_21
REMARK    3  A    between atoms: C_6  and  C_11
REMARK    4  A    between atoms: C_7  and  C_12
REMARK    5  A    between atoms: C_11  and  C_15
REMARK    6  A    between atoms: C_12  and  C_16
REMARK    7  A    between atoms: C_13  and  C_14
REMARK    8  A    between atoms: C_14  and  C_17
REMARK    9  A    between atoms: C_14  and  C_18
REMARK   10  A    between atoms: C_14  and  C_19
REMARK   11  A    between atoms: C_20  and  C_22
REMARK                            x       y       z     vdW  Elec       q    Type
REMARK                         _______ _______ _______ _____ _____    ______ ____
ROOT
ATOM      1  O   UNL     1      10.542  11.881  25.719  0.00  0.00    -0.275 OA
ATOM      3  N   UNL     1      11.626  11.830  23.664  0.00  0.00    -0.301 N 
ATOM      6  C   UNL     1      11.132   9.793  22.341  0.00  0.00    +0.010 C 
ATOM      7  C   UNL     1      11.770  10.444  21.089  0.00  0.00    +0.004 C 
ATOM      8  C   UNL     1      11.668  11.976  21.200  0.00  0.00    +0.023 C 
ATOM      9  C   UNL     1      11.717  10.368  23.641  0.00  0.00    +0.111 C 
ATOM     10  C   UNL     1      12.237  12.509  22.514  0.00  0.00    +0.108 C 
ATOM     13  C   UNL     1      11.051  12.471  24.762  0.00  0.00    +0.221 C 
ENDROOT
BRANCH  13  14
ATOM     14  C   UNL     1      11.064  13.978  24.750  0.00  0.00    +0.039 C 
ATOM     17  C   UNL     1      12.457  14.456  24.335  0.00  0.00    +0.020 C 
ATOM     18  C   UNL     1      10.014  14.473  23.755  0.00  0.00    +0.020 C 
ATOM     19  C   UNL     1      10.732  14.461  26.163  0.00  0.00    +0.020 C 
ENDBRANCH  13  14
BRANCH   6  11
ATOM     11  C   UNL     1      11.226   8.268  22.338  0.00  0.00    +0.002 C 
ATOM     15  C   UNL     1      10.542   7.682  21.122  0.00  0.00    +0.004 C 
ENDBRANCH   6  11
BRANCH   7  12
ATOM     12  C   UNL     1      13.216  10.007  20.827  0.00  0.00    +0.100 C 
BRANCH  12  16
ATOM      2  O   UNL     1      13.212  10.365  18.456  0.00  0.00    -0.276 OA
ATOM      4  N   UNL     1      13.914   8.281  19.197  0.00  0.00    -0.291 N 
ATOM     16  C   UNL     1      13.441   9.585  19.385  0.00  0.00    +0.216 C 
ATOM     21  C   UNL     1      14.180   7.730  17.874  0.00  0.00    +0.133 C 
BRANCH   4  20
ATOM     20  C   UNL     1      14.178   7.376  20.313  0.00  0.00    +0.226 C 
BRANCH  20  22
ATOM      5  N   UNL     1      16.582   6.344  20.132  0.00  0.00    -0.195 NA
ATOM     22  C   UNL     1      15.520   6.803  20.212  0.00  0.00    +0.082 C 
ENDBRANCH  20  22
ENDBRANCH   4  20
ENDBRANCH  12  16
ENDBRANCH   7  12
TORSDOF 6
ENDMDL
MODEL 5
REMARK VINA RESULT:      -5.1     26.168     28.970
REMARK  Name = 11912444
REMARK  11 active torsions:
REMARK  status: ('A' for Active; 'I' for Inactive)
REMARK    1  A    between atoms: N_4  and  C_20
REMARK    2  A    between atoms: N_4  and  C_21
REMARK    3  A    between atoms: C_6  and  C_11
REMARK    4  A    between atoms: C_7  and  C_12
REMARK    5  A    between atoms: C_11  and  C_15
REMARK    6  A    between atoms: C_12  and  C_16
REMARK    7  A    between atoms: C_13  and  C_14
REMARK    8  A    between atoms: C_14  and  C_17
REMARK    9  A    between atoms: C_14  and  C_18
REMARK   10  A    between atoms: C_14  and  C_19
REMARK   11  A    between atoms: C_20  and  C_22
REMARK                            x       y       z     vdW  Elec       q    Type
REMARK                         _______ _______ _______ _____ _____    ______ ____
ROOT
ATOM      1  O   UNL     1      -2.383 -10.036  11.411  0.00  0.00    -0.275 OA
ATOM      3  N   UNL     1      -3.961 -10.609  13.018  0.00  0.00    -0.301 N 
ATOM      6  C   UNL     1      -3.143 -10.341  15.341  0.00  0.00    +0.010 C 
ATOM      7  C   UNL     1      -4.587 -10.503  15.876  0.00  0.00    +0.004 C 
ATOM      8  C   UNL     1      -5.587 -10.059  14.793  0.00  0.00    +0.023 C 
ATOM      9  C   UNL     1      -2.955 -11.046  13.989  0.00  0.00    +0.111 C 
ATOM     10  C   UNL     1      -5.354 -10.762  13.455  0.00  0.00    +0.108 C 
ATOM     13  C   UNL     1      -3.560 -10.157  11.760  0.00  0.00    +0.221 C 
ENDROOT
BRANCH  13  14
ATOM     14  C   UNL     1      -4.655  -9.801  10.787  0.00  0.00    +0.039 C 
ATOM     17  C   UNL     1      -5.430 -11.070  10.429  0.00  0.00    +0.020 C 
ATOM     18  C   UNL     1      -5.584  -8.778  11.443  0.00  0.00    +0.020 C 
ATOM     19  C   UNL     1      -3.999  -9.205   9.541  0.00  0.00    +0.020 C 
ENDBRANCH  13  14
BRANCH   6  11
ATOM     11  C   UNL     1      -2.080 -10.800  16.338  0.00  0.00    +0.002 C 
ATOM     15  C   UNL     1      -0.708 -10.297  15.944  0.00  0.00    +0.004 C 
ENDBRANCH   6  11
BRANCH   7  12
ATOM     12  C   UNL     1      -4.913 -11.915  16.377  0.00  0.00    +0.100 C 
BRANCH  12  16
ATOM      2  O   UNL     1      -4.304 -11.947  18.696  0.00  0.00    -0.276 OA
ATOM      4  N   UNL     1      -6.573 -11.969  18.211  0.00  0.00    -0.291 N 
ATOM     16  C   UNL     1      -5.217 -11.945  17.865  0.00  0.00    +0.216 C 
ATOM     21  C   UNL     1      -7.025 -11.998  19.597  0.00  0.00    +0.133 C 
BRANCH   4  20
ATOM     20  C   UNL     1      -7.636 -11.966  17.210  0.00  0.00    +0.226 C 
BRANCH  20  22
ATOM      5  N   UNL     1      -8.915  -9.676  17.208  0.00  0.00    -0.195 NA
ATOM     22  C   UNL     1      -8.349 -10.689  17.211  0.00  0.00    +0.082 C 
ENDBRANCH  20  22
ENDBRANCH   4  20
ENDBRANCH  12  16
ENDBRANCH   7  12
TORSDOF 6
ENDMDL
MODEL 6
REMARK VINA RESULT:      -5.1     26.442     28.651
REMARK  Name = 11912444
REMARK  11 active torsions:
REMARK  status: ('A' for Active; 'I' for Inactive)
REMARK    1  A    between atoms: N_4  and  C_20
REMARK    2  A    between atoms: N_4  and  C_21
REMARK    3  A    between atoms: C_6  and  C_11
REMARK    4  A    between atoms: C_7  and  C_12
REMARK    5  A    between atoms: C_11  and  C_15
REMARK    6  A    between atoms: C_12  and  C_16
REMARK    7  A    between atoms: C_13  and  C_14
REMARK    8  A    between atoms: C_14  and  C_17
REMARK    9  A    between atoms: C_14  and  C_18
REMARK   10  A    between atoms: C_14  and  C_19
REMARK   11  A    between atoms: C_20  and  C_22
REMARK                            x       y       z     vdW  Elec       q    Type
REMARK                         _______ _______ _______ _____ _____    ______ ____
ROOT
ATOM      1  O   UNL     1      -4.818 -10.790  18.657  0.00  0.00    -0.275 OA
ATOM      3  N   UNL     1      -5.051 -10.652  16.348  0.00  0.00    -0.301 N 
ATOM      6  C   UNL     1      -3.159 -11.659  15.106  0.00  0.00    +0.010 C 
ATOM      7  C   UNL     1      -3.977 -11.592  13.793  0.00  0.00    +0.004 C 
ATOM      8  C   UNL     1      -5.480 -11.631  14.123  0.00  0.00    +0.023 C 
ATOM      9  C   UNL     1      -3.607 -10.586  16.111  0.00  0.00    +0.111 C 
ATOM     10  C   UNL     1      -5.885 -10.567  15.143  0.00  0.00    +0.108 C 
ATOM     13  C   UNL     1      -5.535 -10.719  17.656  0.00  0.00    +0.221 C 
ENDROOT
BRANCH  13  14
ATOM     14  C   UNL     1      -7.033 -10.704  17.825  0.00  0.00    +0.039 C 
ATOM     17  C   UNL     1      -7.362 -10.761  19.319  0.00  0.00    +0.020 C 
ATOM     18  C   UNL     1      -7.586  -9.418  17.208  0.00  0.00    +0.020 C 
ATOM     19  C   UNL     1      -7.599 -11.929  17.106  0.00  0.00    +0.020 C 
ENDBRANCH  13  14
BRANCH   6  11
ATOM     11  C   UNL     1      -1.650 -11.583  14.877  0.00  0.00    +0.002 C 
ATOM     15  C   UNL     1      -1.038 -10.433  15.647  0.00  0.00    +0.004 C 
ENDBRANCH   6  11
BRANCH   7  12
ATOM     12  C   UNL     1      -3.640 -10.386  12.909  0.00  0.00    +0.100 C 
BRANCH  12  16
ATOM      2  O   UNL     1      -2.922 -11.705  11.040  0.00  0.00    -0.276 OA
ATOM      4  N   UNL     1      -4.342  -9.929  10.580  0.00  0.00    -0.291 N 
ATOM     16  C   UNL     1      -3.591 -10.745  11.433  0.00  0.00    +0.216 C 
ATOM     21  C   UNL     1      -4.397 -10.146   9.139  0.00  0.00    +0.133 C 
BRANCH   4  20
ATOM     20  C   UNL     1      -5.127  -8.798  11.070  0.00  0.00    +0.226 C 
BRANCH  20  22
ATOM      5  N   UNL     1      -7.689  -9.198  10.676  0.00  0.00    -0.195 NA
ATOM     22  C   UNL     1      -6.555  -9.021  10.847  0.00  0.00    +0.082 C 
ENDBRANCH  20  22
ENDBRANCH   4  20
ENDBRANCH  12  16
ENDBRANCH   7  12
TORSDOF 6
ENDMDL
MODEL 7
REMARK VINA RESULT:      -5.0      1.956      2.356
REMARK  Name = 11912444
REMARK  11 active torsions:
REMARK  status: ('A' for Active; 'I' for Inactive)
REMARK    1  A    between atoms: N_4  and  C_20
REMARK    2  A    between atoms: N_4  and  C_21
REMARK    3  A    between atoms: C_6  and  C_11
REMARK    4  A    between atoms: C_7  and  C_12
REMARK    5  A    between atoms: C_11  and  C_15
REMARK    6  A    between atoms: C_12  and  C_16
REMARK    7  A    between atoms: C_13  and  C_14
REMARK    8  A    between atoms: C_14  and  C_17
REMARK    9  A    between atoms: C_14  and  C_18
REMARK   10  A    between atoms: C_14  and  C_19
REMARK   11  A    between atoms: C_20  and  C_22
REMARK                            x       y       z     vdW  Elec       q    Type
REMARK                         _______ _______ _______ _____ _____    ______ ____
ROOT
ATOM      1  O   UNL     1      10.753  10.890  24.791  0.00  0.00    -0.275 OA
ATOM      3  N   UNL     1      12.014  11.141  22.855  0.00  0.00    -0.301 N 
ATOM      6  C   UNL     1      11.438   9.503  21.087  0.00  0.00    +0.010 C 
ATOM      7  C   UNL     1      12.255  10.320  20.055  0.00  0.00    +0.004 C 
ATOM      8  C   UNL     1      12.302  11.796  20.492  0.00  0.00    +0.023 C 
ATOM      9  C   UNL     1      11.955   9.716  22.518  0.00  0.00    +0.111 C 
ATOM     10  C   UNL     1      12.797  11.967  21.928  0.00  0.00    +0.108 C 
ATOM     13  C   UNL     1      11.407  11.601  24.024  0.00  0.00    +0.221 C 
ENDROOT
BRANCH  13  14
ATOM     14  C   UNL     1      11.578  13.065  24.345  0.00  0.00    +0.039 C 
ATOM     17  C   UNL     1      13.072  13.389  24.395  0.00  0.00    +0.020 C 
ATOM     18  C   UNL     1      10.891  13.891  23.257  0.00  0.00    +0.020 C 
ATOM     19  C   UNL     1      10.928  13.325  25.705  0.00  0.00    +0.020 C 
ENDBRANCH  13  14
BRANCH   6  11
ATOM     11  C   UNL     1      11.374   8.013  20.755  0.00  0.00    +0.002 C 
ATOM     15  C   UNL     1      10.601   7.252  21.811  0.00  0.00    +0.004 C 
ENDBRANCH   6  11
BRANCH   7  12
ATOM     12  C   UNL     1      13.666   9.776  19.805  0.00  0.00    +0.100 C 
BRANCH  12  16
ATOM      2  O   UNL     1      14.843  11.144  18.225  0.00  0.00    -0.276 OA
ATOM      4  N   UNL     1      13.858   9.210  17.404  0.00  0.00    -0.291 N 
ATOM     16  C   UNL     1      14.181  10.119  18.417  0.00  0.00    +0.216 C 
ATOM     21  C   UNL     1      14.280   9.399  16.021  0.00  0.00    +0.133 C 
BRANCH   4  20
ATOM     20  C   UNL     1      13.073   8.004  17.655  0.00  0.00    +0.226 C 
BRANCH  20  22
ATOM      5  N   UNL     1      10.655   8.247  16.671  0.00  0.00    -0.195 NA
ATOM     22  C   UNL     1      11.724   8.137  17.107  0.00  0.00    +0.082 C 
ENDBRANCH  20  22
ENDBRANCH   4  20
ENDBRANCH  12  16
ENDBRANCH   7  12
TORSDOF 6
ENDMDL
MODEL 8
REMARK VINA RESULT:      -5.0     16.730     21.114
REMARK  Name = 11912444
REMARK  11 active torsions:
REMARK  status: ('A' for Active; 'I' for Inactive)
REMARK    1  A    between atoms: N_4  and  C_20
REMARK    2  A    between atoms: N_4  and  C_21
REMARK    3  A    between atoms: C_6  and  C_11
REMARK    4  A    between atoms: C_7  and  C_12
REMARK    5  A    between atoms: C_11  and  C_15
REMARK    6  A    between atoms: C_12  and  C_16
REMARK    7  A    between atoms: C_13  and  C_14
REMARK    8  A    between atoms: C_14  and  C_17
REMARK    9  A    between atoms: C_14  and  C_18
REMARK   10  A    between atoms: C_14  and  C_19
REMARK   11  A    between atoms: C_20  and  C_22
REMARK                            x       y       z     vdW  Elec       q    Type
REMARK                         _______ _______ _______ _____ _____    ______ ____
ROOT
ATOM      1  O   UNL     1      12.577   6.178  -1.324  0.00  0.00    -0.275 OA
ATOM      3  N   UNL     1      12.330   5.357   0.836  0.00  0.00    -0.301 N 
ATOM      6  C   UNL     1      10.235   6.094   1.935  0.00  0.00    +0.010 C 
ATOM      7  C   UNL     1      10.450   5.051   3.059  0.00  0.00    +0.004 C 
ATOM      8  C   UNL     1      11.289   3.879   2.517  0.00  0.00    +0.023 C 
ATOM      9  C   UNL     1      11.564   6.520   1.293  0.00  0.00    +0.111 C 
ATOM     10  C   UNL     1      12.591   4.342   1.863  0.00  0.00    +0.108 C 
ATOM     13  C   UNL     1      12.807   5.314  -0.475  0.00  0.00    +0.221 C 
ENDROOT
BRANCH  13  14
ATOM     14  C   UNL     1      13.654   4.124  -0.849  0.00  0.00    +0.039 C 
ATOM     17  C   UNL     1      14.811   4.009   0.145  0.00  0.00    +0.020 C 
ATOM     18  C   UNL     1      12.785   2.866  -0.800  0.00  0.00    +0.020 C 
ATOM     19  C   UNL     1      14.185   4.353  -2.265  0.00  0.00    +0.020 C 
ENDBRANCH  13  14
BRANCH   6  11
ATOM     11  C   UNL     1       9.445   7.318   2.397  0.00  0.00    +0.002 C 
ATOM     15  C   UNL     1       9.282   8.318   1.273  0.00  0.00    +0.004 C 
ENDBRANCH   6  11
BRANCH   7  12
ATOM     12  C   UNL     1      11.075   5.628   4.335  0.00  0.00    +0.100 C 
BRANCH  12  16
ATOM      2  O   UNL     1       9.515   4.306   5.589  0.00  0.00    -0.276 OA
ATOM      4  N   UNL     1      10.463   6.119   6.682  0.00  0.00    -0.291 N 
ATOM     16  C   UNL     1      10.276   5.279   5.579  0.00  0.00    +0.216 C 
ATOM     21  C   UNL     1       9.769   5.915   7.948  0.00  0.00    +0.133 C 
BRANCH   4  20
ATOM     20  C   UNL     1      11.369   7.266   6.647  0.00  0.00    +0.226 C 
BRANCH  20  22
ATOM      5  N   UNL     1      13.804   6.552   7.309  0.00  0.00    -0.195 NA
ATOM     22  C   UNL     1      12.727   6.866   7.014  0.00  0.00    +0.082 C 
ENDBRANCH  20  22
ENDBRANCH   4  20
ENDBRANCH  12  16
ENDBRANCH   7  12
TORSDOF 6
ENDMDL
MODEL 9
REMARK VINA RESULT:      -4.9     26.914     29.625
REMARK  Name = 11912444
REMARK  11 active torsions:
REMARK  status: ('A' for Active; 'I' for Inactive)
REMARK    1  A    between atoms: N_4  and  C_20
REMARK    2  A    between atoms: N_4  and  C_21
REMARK    3  A    between atoms: C_6  and  C_11
REMARK    4  A    between atoms: C_7  and  C_12
REMARK    5  A    between atoms: C_11  and  C_15
REMARK    6  A    between atoms: C_12  and  C_16
REMARK    7  A    between atoms: C_13  and  C_14
REMARK    8  A    between atoms: C_14  and  C_17
REMARK    9  A    between atoms: C_14  and  C_18
REMARK   10  A    between atoms: C_14  and  C_19
REMARK   11  A    between atoms: C_20  and  C_22
REMARK                            x       y       z     vdW  Elec       q    Type
REMARK                         _______ _______ _______ _____ _____    ______ ____
ROOT
ATOM      1  O   UNL     1      -3.362 -12.407  10.545  0.00  0.00    -0.275 OA
ATOM      3  N   UNL     1      -4.857 -11.604  12.133  0.00  0.00    -0.301 N 
ATOM      6  C   UNL     1      -3.789 -11.049  14.298  0.00  0.00    +0.010 C 
ATOM      7  C   UNL     1      -5.074 -10.314  14.751  0.00  0.00    +0.004 C 
ATOM      8  C   UNL     1      -5.838  -9.809  13.514  0.00  0.00    +0.023 C 
ATOM      9  C   UNL     1      -4.094 -12.142  13.262  0.00  0.00    +0.111 C 
ATOM     10  C   UNL     1      -6.102 -10.917  12.495  0.00  0.00    +0.108 C 
ATOM     13  C   UNL     1      -4.412 -11.826  10.829  0.00  0.00    +0.221 C 
ENDROOT
BRANCH  13  14
ATOM     14  C   UNL     1      -5.291 -11.312   9.717  0.00  0.00    +0.039 C 
ATOM     17  C   UNL     1      -6.665 -11.977   9.825  0.00  0.00    +0.020 C 
ATOM     18  C   UNL     1      -5.422  -9.795   9.854  0.00  0.00    +0.020 C 
ATOM     19  C   UNL     1      -4.625 -11.674   8.388  0.00  0.00    +0.020 C 
ENDBRANCH  13  14
BRANCH   6  11
ATOM     11  C   UNL     1      -2.985 -11.623  15.464  0.00  0.00    +0.002 C 
ATOM     15  C   UNL     1      -2.192 -10.542  16.166  0.00  0.00    +0.004 C 
ENDBRANCH   6  11
BRANCH   7  12
ATOM     12  C   UNL     1      -5.986 -11.151  15.656  0.00  0.00    +0.100 C 
BRANCH  12  16
ATOM      2  O   UNL     1      -6.984  -9.333  16.859  0.00  0.00    -0.276 OA
ATOM      4  N   UNL     1      -6.029 -11.024  18.127  0.00  0.00    -0.291 N 
ATOM     16  C   UNL     1      -6.384 -10.409  16.921  0.00  0.00    +0.216 C 
ATOM     21  C   UNL     1      -6.342 -10.438  19.425  0.00  0.00    +0.133 C 
BRANCH   4  20
ATOM     20  C   UNL     1      -5.318 -12.300  18.176  0.00  0.00    +0.226 C 
BRANCH  20  22
ATOM      5  N   UNL     1      -3.298 -12.174  19.843  0.00  0.00    -0.195 NA
ATOM     22  C   UNL     1      -4.190 -12.231  19.104  0.00  0.00    +0.082 C 
ENDBRANCH  20  22
ENDBRANCH   4  20
ENDBRANCH  12  16
ENDBRANCH   7  12
TORSDOF 6
ENDMDL
MODEL 10
REMARK VINA RESULT:      -4.8     27.586     29.173
REMARK  Name = 11912444
REMARK  11 active torsions:
REMARK  status: ('A' for Active; 'I' for Inactive)
REMARK    1  A    between atoms: N_4  and  C_20
REMARK    2  A    between atoms: N_4  and  C_21
REMARK    3  A    between atoms: C_6  and  C_11
REMARK    4  A    between atoms: C_7  and  C_12
REMARK    5  A    between atoms: C_11  and  C_15
REMARK    6  A    between atoms: C_12  and  C_16
REMARK    7  A    between atoms: C_13  and  C_14
REMARK    8  A    between atoms: C_14  and  C_17
REMARK    9  A    between atoms: C_14  and  C_18
REMARK   10  A    between atoms: C_14  and  C_19
REMARK   11  A    between atoms: C_20  and  C_22
REMARK                            x       y       z     vdW  Elec       q    Type
REMARK                         _______ _______ _______ _____ _____    ______ ____
ROOT
ATOM      1  O   UNL     1      -6.446  -9.418  10.249  0.00  0.00    -0.275 OA
ATOM      3  N   UNL     1      -5.143  -9.941  12.101  0.00  0.00    -0.301 N 
ATOM      6  C   UNL     1      -6.463 -10.746  14.037  0.00  0.00    +0.010 C 
ATOM      7  C   UNL     1      -5.164 -11.221  14.734  0.00  0.00    +0.004 C 
ATOM      8  C   UNL     1      -4.097 -11.535  13.669  0.00  0.00    +0.023 C 
ATOM      9  C   UNL     1      -6.195  -9.592  13.059  0.00  0.00    +0.111 C 
ATOM     10  C   UNL     1      -3.875 -10.374  12.700  0.00  0.00    +0.108 C 
ATOM     13  C   UNL     1      -5.372  -9.783  10.733  0.00  0.00    +0.221 C 
ENDROOT
BRANCH  13  14
ATOM     14  C   UNL     1      -4.217 -10.087   9.813  0.00  0.00    +0.039 C 
ATOM     17  C   UNL     1      -4.615  -9.721   8.382  0.00  0.00    +0.020 C 
ATOM     18  C   UNL     1      -3.005  -9.264  10.254  0.00  0.00    +0.020 C 
ATOM     19  C   UNL     1      -3.914 -11.583   9.919  0.00  0.00    +0.020 C 
ENDBRANCH  13  14
BRANCH   6  11
ATOM     11  C   UNL     1      -7.569 -10.370  15.022  0.00  0.00    +0.002 C 
ATOM     15  C   UNL     1      -8.424 -11.570  15.367  0.00  0.00    +0.004 C 
ENDBRANCH   6  11
BRANCH   7  12
ATOM     12  C   UNL     1      -4.623 -10.239  15.780  0.00  0.00    +0.100 C 
BRANCH  12  16
ATOM      2  O   UNL     1      -2.504 -10.920  16.671  0.00  0.00    -0.276 OA
ATOM      4  N   UNL     1      -4.389 -11.525  17.881  0.00  0.00    -0.291 N 
ATOM     16  C   UNL     1      -3.732 -10.919  16.805  0.00  0.00    +0.216 C 
ATOM     21  C   UNL     1      -3.673 -12.217  18.946  0.00  0.00    +0.133 C 
BRANCH   4  20
ATOM     20  C   UNL     1      -5.844 -11.511  18.017  0.00  0.00    +0.226 C 
BRANCH  20  22
ATOM      5  N   UNL     1      -6.557 -10.421  20.293  0.00  0.00    -0.195 NA
ATOM     22  C   UNL     1      -6.241 -10.905  19.288  0.00  0.00    +0.082 C 
ENDBRANCH  20  22
ENDBRANCH   4  20
ENDBRANCH  12  16
ENDBRANCH   7  12
TORSDOF 6
ENDMDL
