MODEL 1
REMARK VINA RESULT:      -6.9      0.000      0.000
REMARK  Name = 75537014
REMARK  2 active torsions:
REMARK  status: ('A' for Active; 'I' for Inactive)
REMARK    1  A    between atoms: N_4  and  C_9
REMARK    2  A    between atoms: C_20  and  C_21
REMARK                            x       y       z     vdW  Elec       q    Type
REMARK                         _______ _______ _______ _____ _____    ______ ____
ROOT
ATOM      1  O   UNL     1      10.490  11.099  24.338  0.00  0.00    -0.252 OA
ATOM      2  O   UNL     1      12.172   6.305  19.542  0.00  0.00    -0.267 OA
ATOM      4  N   UNL     1      11.409  12.394  22.595  0.00  0.00    -0.281 N 
ATOM      5  N   UNL     1      11.163  10.182  22.283  0.00  0.00    -0.278 N 
ATOM      6  N   UNL     1      12.407   8.400  20.550  0.00  0.00    -0.292 N 
ATOM      8  C   UNL     1      11.632  10.684  21.002  0.00  0.00    +0.112 C 
ATOM     10  C   UNL     1      11.997  12.137  21.292  0.00  0.00    +0.133 C 
ATOM     13  C   UNL     1      12.785   9.826  20.491  0.00  0.00    +0.132 C 
ATOM     14  C   UNL     1      10.958  11.210  23.212  0.00  0.00    +0.305 C 
ATOM     15  C   UNL     1      10.865   8.770  22.441  0.00  0.00    +0.128 C 
ATOM     19  C   UNL     1      12.013   7.927  21.884  0.00  0.00    +0.127 C 
ATOM     20  C   UNL     1      12.445   7.503  19.482  0.00  0.00    +0.285 C 
ENDROOT
BRANCH   4   9
ATOM      9  C   UNL     1      11.433  13.704  23.199  0.00  0.00    +0.078 C 
ATOM     11  C   UNL     1      10.015  14.165  23.548  0.00  0.00    +0.022 C 
ATOM     12  C   UNL     1      12.341  13.712  24.430  0.00  0.00    +0.022 C 
ATOM     16  C   UNL     1      10.022  15.527  24.237  0.00  0.00    +0.002 C 
ATOM     17  C   UNL     1      12.343  15.074  25.119  0.00  0.00    +0.002 C 
ATOM     18  C   UNL     1      10.929  15.533  25.464  0.00  0.00    +0.000 C 
ENDBRANCH   4   9
BRANCH  20  21
ATOM      3  O   UNL     1      11.854   8.479  17.341  0.00  0.00    -0.350 OA
ATOM      7  N   UNL     1      12.422   8.914  16.149  0.00  0.00    -0.086 NA
ATOM     21  C   UNL     1      12.832   8.016  18.161  0.00  0.00    +0.222 A 
ATOM     22  C   UNL     1      14.047   8.134  17.541  0.00  0.00    +0.077 A 
ATOM     23  C   UNL     1      13.733   8.698  16.293  0.00  0.00    +0.157 A 
ENDBRANCH  20  21
TORSDOF 2
ENDMDL
MODEL 2
REMARK VINA RESULT:      -6.6     28.053     29.761
REMARK  Name = 75537014
REMARK  2 active torsions:
REMARK  status: ('A' for Active; 'I' for Inactive)
REMARK    1  A    between atoms: N_4  and  C_9
REMARK    2  A    between atoms: C_20  and  C_21
REMARK                            x       y       z     vdW  Elec       q    Type
REMARK                         _______ _______ _______ _____ _____    ______ ____
ROOT
ATOM      1  O   UNL     1     -17.518   3.204  21.916  0.00  0.00    -0.252 OA
ATOM      2  O   UNL     1     -18.289   0.049  28.102  0.00  0.00    -0.267 OA
ATOM      4  N   UNL     1     -15.743   4.091  23.188  0.00  0.00    -0.281 N 
ATOM      5  N   UNL     1     -17.032   2.493  24.102  0.00  0.00    -0.278 N 
ATOM      6  N   UNL     1     -17.529   1.793  26.745  0.00  0.00    -0.292 N 
ATOM      8  C   UNL     1     -15.984   2.726  25.083  0.00  0.00    +0.112 C 
ATOM     10  C   UNL     1     -15.251   3.953  24.548  0.00  0.00    +0.133 C 
ATOM     13  C   UNL     1     -16.593   2.900  26.471  0.00  0.00    +0.132 C 
ATOM     14  C   UNL     1     -16.847   3.253  22.939  0.00  0.00    +0.305 C 
ATOM     15  C   UNL     1     -18.045   1.485  24.353  0.00  0.00    +0.128 C 
ATOM     19  C   UNL     1     -18.612   1.650  25.762  0.00  0.00    +0.127 C 
ATOM     20  C   UNL     1     -17.483   0.944  27.852  0.00  0.00    +0.285 C 
ENDROOT
BRANCH   4   9
ATOM      9  C   UNL     1     -15.214   5.082  22.283  0.00  0.00    +0.078 C 
ATOM     11  C   UNL     1     -15.820   6.458  22.571  0.00  0.00    +0.022 C 
ATOM     12  C   UNL     1     -13.686   5.119  22.360  0.00  0.00    +0.022 C 
ATOM     16  C   UNL     1     -15.234   7.533  21.659  0.00  0.00    +0.002 C 
ATOM     17  C   UNL     1     -13.102   6.197  21.449  0.00  0.00    +0.002 C 
ATOM     18  C   UNL     1     -13.710   7.567  21.737  0.00  0.00    +0.000 C 
ENDBRANCH   4   9
BRANCH  20  21
ATOM      3  O   UNL     1     -15.354   0.219  28.762  0.00  0.00    -0.350 OA
ATOM      7  N   UNL     1     -14.419   0.547  29.737  0.00  0.00    -0.086 NA
ATOM     21  C   UNL     1     -16.378   1.109  28.805  0.00  0.00    +0.222 A 
ATOM     22  C   UNL     1     -16.147   2.030  29.793  0.00  0.00    +0.077 A 
ATOM     23  C   UNL     1     -14.915   1.632  30.340  0.00  0.00    +0.157 A 
ENDBRANCH  20  21
TORSDOF 2
ENDMDL
MODEL 3
REMARK VINA RESULT:      -6.5     26.669     29.092
REMARK  Name = 75537014
REMARK  2 active torsions:
REMARK  status: ('A' for Active; 'I' for Inactive)
REMARK    1  A    between atoms: N_4  and  C_9
REMARK    2  A    between atoms: C_20  and  C_21
REMARK                            x       y       z     vdW  Elec       q    Type
REMARK                         _______ _______ _______ _____ _____    ______ ____
ROOT
ATOM      1  O   UNL     1      -4.309 -11.979  18.545  0.00  0.00    -0.252 OA
ATOM      2  O   UNL     1     -10.864  -9.905  19.785  0.00  0.00    -0.267 OA
ATOM      4  N   UNL     1      -4.887 -10.838  16.564  0.00  0.00    -0.281 N 
ATOM      5  N   UNL     1      -6.353 -10.854  18.268  0.00  0.00    -0.278 N 
ATOM      6  N   UNL     1      -9.104 -10.468  18.355  0.00  0.00    -0.292 N 
ATOM      8  C   UNL     1      -6.956  -9.984  17.272  0.00  0.00    +0.112 C 
ATOM     10  C   UNL     1      -6.060 -10.154  16.049  0.00  0.00    +0.133 C 
ATOM     13  C   UNL     1      -8.416 -10.367  17.053  0.00  0.00    +0.132 C 
ATOM     14  C   UNL     1      -5.084 -11.305  17.878  0.00  0.00    +0.305 C 
ATOM     15  C   UNL     1      -7.024 -11.077  19.535  0.00  0.00    +0.128 C 
ATOM     19  C   UNL     1      -8.495 -11.418  19.297  0.00  0.00    +0.127 C 
ATOM     20  C   UNL     1     -10.267  -9.787  18.716  0.00  0.00    +0.285 C 
ENDROOT
BRANCH   4   9
ATOM      9  C   UNL     1      -3.732 -11.099  15.740  0.00  0.00    +0.078 C 
ATOM     11  C   UNL     1      -4.012 -10.727  14.281  0.00  0.00    +0.022 C 
ATOM     12  C   UNL     1      -2.508 -10.355  16.280  0.00  0.00    +0.022 C 
ATOM     16  C   UNL     1      -2.784 -10.944  13.401  0.00  0.00    +0.002 C 
ATOM     17  C   UNL     1      -1.282 -10.572  15.396  0.00  0.00    +0.002 C 
ATOM     18  C   UNL     1      -1.565 -10.203  13.941  0.00  0.00    +0.000 C 
ENDBRANCH   4   9
BRANCH  20  21
ATOM      3  O   UNL     1     -10.182  -7.668  17.539  0.00  0.00    -0.350 OA
ATOM      7  N   UNL     1     -10.881  -6.914  16.603  0.00  0.00    -0.086 NA
ATOM     21  C   UNL     1     -10.839  -8.837  17.754  0.00  0.00    +0.222 A 
ATOM     22  C   UNL     1     -11.966  -8.881  16.977  0.00  0.00    +0.077 A 
ATOM     23  C   UNL     1     -11.942  -7.660  16.282  0.00  0.00    +0.157 A 
ENDBRANCH  20  21
TORSDOF 2
ENDMDL
MODEL 4
REMARK VINA RESULT:      -6.4     27.111     28.985
REMARK  Name = 75537014
REMARK  2 active torsions:
REMARK  status: ('A' for Active; 'I' for Inactive)
REMARK    1  A    between atoms: N_4  and  C_9
REMARK    2  A    between atoms: C_20  and  C_21
REMARK                            x       y       z     vdW  Elec       q    Type
REMARK                         _______ _______ _______ _____ _____    ______ ____
ROOT
ATOM      1  O   UNL     1      -1.940 -10.943  13.727  0.00  0.00    -0.252 OA
ATOM      2  O   UNL     1      -6.075 -10.808  19.357  0.00  0.00    -0.267 OA
ATOM      4  N   UNL     1      -4.050 -10.408  12.822  0.00  0.00    -0.281 N 
ATOM      5  N   UNL     1      -3.843 -10.573  15.053  0.00  0.00    -0.278 N 
ATOM      6  N   UNL     1      -5.706 -11.045  17.062  0.00  0.00    -0.292 N 
ATOM      8  C   UNL     1      -5.209 -10.122  14.843  0.00  0.00    +0.112 C 
ATOM     10  C   UNL     1      -5.397 -10.223  13.332  0.00  0.00    +0.133 C 
ATOM     13  C   UNL     1      -6.175 -10.970  15.664  0.00  0.00    +0.132 C 
ATOM     14  C   UNL     1      -3.127 -10.672  13.853  0.00  0.00    +0.305 C 
ATOM     15  C   UNL     1      -3.344 -10.763  16.403  0.00  0.00    +0.128 C 
ATOM     19  C   UNL     1      -4.345 -11.578  17.222  0.00  0.00    +0.127 C 
ATOM     20  C   UNL     1      -6.452 -10.704  18.190  0.00  0.00    +0.285 C 
ENDROOT
BRANCH   4   9
ATOM      9  C   UNL     1      -3.767 -10.442  11.407  0.00  0.00    +0.078 C 
ATOM     11  C   UNL     1      -4.323 -11.720  10.774  0.00  0.00    +0.022 C 
ATOM     12  C   UNL     1      -4.322  -9.192  10.719  0.00  0.00    +0.022 C 
ATOM     16  C   UNL     1      -4.082 -11.751   9.267  0.00  0.00    +0.002 C 
ATOM     17  C   UNL     1      -4.082  -9.227   9.211  0.00  0.00    +0.002 C 
ATOM     18  C   UNL     1      -4.635 -10.505   8.583  0.00  0.00    +0.000 C 
ENDBRANCH   4   9
BRANCH  20  21
ATOM      3  O   UNL     1      -7.922  -8.916  17.465  0.00  0.00    -0.350 OA
ATOM      7  N   UNL     1      -9.270  -8.592  17.356  0.00  0.00    -0.086 NA
ATOM     21  C   UNL     1      -7.802 -10.163  17.989  0.00  0.00    +0.222 A 
ATOM     22  C   UNL     1      -9.046 -10.681  18.235  0.00  0.00    +0.077 A 
ATOM     23  C   UNL     1      -9.921  -9.662  17.822  0.00  0.00    +0.157 A 
ENDBRANCH  20  21
TORSDOF 2
ENDMDL
MODEL 5
REMARK VINA RESULT:      -6.4      2.257      2.622
REMARK  Name = 75537014
REMARK  2 active torsions:
REMARK  status: ('A' for Active; 'I' for Inactive)
REMARK    1  A    between atoms: N_4  and  C_9
REMARK    2  A    between atoms: C_20  and  C_21
REMARK                            x       y       z     vdW  Elec       q    Type
REMARK                         _______ _______ _______ _____ _____    ______ ____
ROOT
ATOM      1  O   UNL     1      10.345  11.841  24.311  0.00  0.00    -0.252 OA
ATOM      2  O   UNL     1      11.500   6.196  20.359  0.00  0.00    -0.267 OA
ATOM      4  N   UNL     1      12.596  12.102  23.660  0.00  0.00    -0.281 N 
ATOM      5  N   UNL     1      11.423  10.377  22.822  0.00  0.00    -0.278 N 
ATOM      6  N   UNL     1      12.215   7.946  21.732  0.00  0.00    -0.292 N 
ATOM      8  C   UNL     1      12.705  10.316  22.139  0.00  0.00    +0.112 C 
ATOM     10  C   UNL     1      13.556  11.350  22.869  0.00  0.00    +0.133 C 
ATOM     13  C   UNL     1      13.254   8.893  22.180  0.00  0.00    +0.132 C 
ATOM     14  C   UNL     1      11.329  11.486  23.674  0.00  0.00    +0.305 C 
ATOM     15  C   UNL     1      10.386   9.413  22.501  0.00  0.00    +0.128 C 
ATOM     19  C   UNL     1      10.966   7.999  22.505  0.00  0.00    +0.127 C 
ATOM     20  C   UNL     1      12.352   7.014  20.702  0.00  0.00    +0.285 C 
ENDROOT
BRANCH   4   9
ATOM      9  C   UNL     1      12.981  13.260  24.429  0.00  0.00    +0.078 C 
ATOM     11  C   UNL     1      13.014  12.931  25.924  0.00  0.00    +0.022 C 
ATOM     12  C   UNL     1      14.329  13.801  23.947  0.00  0.00    +0.022 C 
ATOM     16  C   UNL     1      13.472  14.129  26.752  0.00  0.00    +0.002 C 
ATOM     17  C   UNL     1      14.785  14.998  24.778  0.00  0.00    +0.002 C 
ATOM     18  C   UNL     1      14.815  14.668  26.269  0.00  0.00    +0.000 C 
ENDBRANCH   4   9
BRANCH  20  21
ATOM      3  O   UNL     1      14.680   6.368  20.489  0.00  0.00    -0.350 OA
ATOM      7  N   UNL     1      15.763   6.470  19.623  0.00  0.00    -0.086 NA
ATOM     21  C   UNL     1      13.610   7.001  19.945  0.00  0.00    +0.222 A 
ATOM     22  C   UNL     1      13.954   7.526  18.728  0.00  0.00    +0.077 A 
ATOM     23  C   UNL     1      15.304   7.166  18.578  0.00  0.00    +0.157 A 
ENDBRANCH  20  21
TORSDOF 2
ENDMDL
MODEL 6
REMARK VINA RESULT:      -6.3     27.089     28.933
REMARK  Name = 75537014
REMARK  2 active torsions:
REMARK  status: ('A' for Active; 'I' for Inactive)
REMARK    1  A    between atoms: N_4  and  C_9
REMARK    2  A    between atoms: C_20  and  C_21
REMARK                            x       y       z     vdW  Elec       q    Type
REMARK                         _______ _______ _______ _____ _____    ______ ____
ROOT
ATOM      1  O   UNL     1     -10.543  -9.759  18.862  0.00  0.00    -0.252 OA
ATOM      2  O   UNL     1      -3.950 -12.063  19.019  0.00  0.00    -0.267 OA
ATOM      4  N   UNL     1      -9.737  -9.204  16.717  0.00  0.00    -0.281 N 
ATOM      5  N   UNL     1      -8.402 -10.362  18.106  0.00  0.00    -0.278 N 
ATOM      6  N   UNL     1      -5.643 -10.680  18.195  0.00  0.00    -0.292 N 
ATOM      8  C   UNL     1      -7.663 -10.294  16.856  0.00  0.00    +0.112 C 
ATOM     10  C   UNL     1      -8.480  -9.330  16.002  0.00  0.00    +0.133 C 
ATOM     13  C   UNL     1      -6.226  -9.855  17.119  0.00  0.00    +0.132 C 
ATOM     14  C   UNL     1      -9.672  -9.776  18.003  0.00  0.00    +0.305 C 
ATOM     15  C   UNL     1      -7.843 -11.075  19.240  0.00  0.00    +0.128 C 
ATOM     19  C   UNL     1      -6.390 -10.652  19.459  0.00  0.00    +0.127 C 
ATOM     20  C   UNL     1      -4.458 -11.412  18.108  0.00  0.00    +0.285 C 
ENDROOT
BRANCH   4   9
ATOM      9  C   UNL     1     -10.848  -8.453  16.184  0.00  0.00    +0.078 C 
ATOM     11  C   UNL     1     -10.798  -6.999  16.660  0.00  0.00    +0.022 C 
ATOM     12  C   UNL     1     -10.868  -8.538  14.656  0.00  0.00    +0.022 C 
ATOM     16  C   UNL     1     -11.934  -6.173  16.064  0.00  0.00    +0.002 C 
ATOM     17  C   UNL     1     -12.004  -7.708  14.061  0.00  0.00    +0.002 C 
ATOM     18  C   UNL     1     -11.954  -6.260  14.540  0.00  0.00    +0.000 C 
ENDBRANCH   4   9
BRANCH  20  21
ATOM      3  O   UNL     1      -4.130 -12.330  15.887  0.00  0.00    -0.350 OA
ATOM      7  N   UNL     1      -3.338 -12.182  14.754  0.00  0.00    -0.086 NA
ATOM     21  C   UNL     1      -3.746 -11.425  16.823  0.00  0.00    +0.222 A 
ATOM     22  C   UNL     1      -2.710 -10.672  16.339  0.00  0.00    +0.077 A 
ATOM     23  C   UNL     1      -2.498 -11.185  15.048  0.00  0.00    +0.157 A 
ENDBRANCH  20  21
TORSDOF 2
ENDMDL
MODEL 7
REMARK VINA RESULT:      -6.3     17.698     21.831
REMARK  Name = 75537014
REMARK  2 active torsions:
REMARK  status: ('A' for Active; 'I' for Inactive)
REMARK    1  A    between atoms: N_4  and  C_9
REMARK    2  A    between atoms: C_20  and  C_21
REMARK                            x       y       z     vdW  Elec       q    Type
REMARK                         _______ _______ _______ _____ _____    ______ ____
ROOT
ATOM      1  O   UNL     1      13.263   6.327   2.914  0.00  0.00    -0.252 OA
ATOM      2  O   UNL     1      13.270   3.503  -3.476  0.00  0.00    -0.267 OA
ATOM      4  N   UNL     1      11.028   5.626   2.643  0.00  0.00    -0.281 N 
ATOM      5  N   UNL     1      12.517   5.134   1.032  0.00  0.00    -0.278 N 
ATOM      6  N   UNL     1      12.207   4.518  -1.660  0.00  0.00    -0.292 N 
ATOM      8  C   UNL     1      11.294   4.469   0.617  0.00  0.00    +0.112 C 
ATOM     10  C   UNL     1      10.247   4.986   1.599  0.00  0.00    +0.133 C 
ATOM     13  C   UNL     1      11.001   4.774  -0.848  0.00  0.00    +0.132 C 
ATOM     14  C   UNL     1      12.382   5.763   2.278  0.00  0.00    +0.305 C 
ATOM     15  C   UNL     1      13.719   5.007   0.228  0.00  0.00    +0.128 C 
ATOM     19  C   UNL     1      13.396   5.274  -1.242  0.00  0.00    +0.127 C 
ATOM     20  C   UNL     1      12.275   3.682  -2.775  0.00  0.00    +0.285 C 
ENDROOT
BRANCH   4   9
ATOM      9  C   UNL     1      10.417   6.161   3.835  0.00  0.00    +0.078 C 
ATOM     11  C   UNL     1       9.224   7.051   3.480  0.00  0.00    +0.022 C 
ATOM     12  C   UNL     1      10.007   5.030   4.782  0.00  0.00    +0.022 C 
ATOM     16  C   UNL     1       8.529   7.584   4.730  0.00  0.00    +0.002 C 
ATOM     17  C   UNL     1       9.310   5.566   6.030  0.00  0.00    +0.002 C 
ATOM     18  C   UNL     1       8.122   6.456   5.673  0.00  0.00    +0.000 C 
ENDBRANCH   4   9
BRANCH  20  21
ATOM      3  O   UNL     1      10.748   1.828  -2.433  0.00  0.00    -0.350 OA
ATOM      7  N   UNL     1       9.584   1.268  -2.947  0.00  0.00    -0.086 NA
ATOM     21  C   UNL     1      11.070   2.933  -3.153  0.00  0.00    +0.222 A 
ATOM     22  C   UNL     1      10.143   3.125  -4.143  0.00  0.00    +0.077 A 
ATOM     23  C   UNL     1       9.242   2.060  -3.968  0.00  0.00    +0.157 A 
ENDBRANCH  20  21
TORSDOF 2
ENDMDL
MODEL 8
REMARK VINA RESULT:      -6.1     28.348     29.532
REMARK  Name = 75537014
REMARK  2 active torsions:
REMARK  status: ('A' for Active; 'I' for Inactive)
REMARK    1  A    between atoms: N_4  and  C_9
REMARK    2  A    between atoms: C_20  and  C_21
REMARK                            x       y       z     vdW  Elec       q    Type
REMARK                         _______ _______ _______ _____ _____    ______ ____
ROOT
ATOM      1  O   UNL     1     -16.007   8.124  32.042  0.00  0.00    -0.252 OA
ATOM      2  O   UNL     1     -17.277   2.143  28.663  0.00  0.00    -0.267 OA
ATOM      4  N   UNL     1     -14.480   6.624  33.029  0.00  0.00    -0.281 N 
ATOM      5  N   UNL     1     -15.738   5.908  31.310  0.00  0.00    -0.278 N 
ATOM      6  N   UNL     1     -16.499   3.361  30.498  0.00  0.00    -0.292 N 
ATOM      8  C   UNL     1     -14.842   4.800  31.596  0.00  0.00    +0.112 C 
ATOM     10  C   UNL     1     -14.150   5.216  32.890  0.00  0.00    +0.133 C 
ATOM     13  C   UNL     1     -15.629   3.496  31.683  0.00  0.00    +0.132 C 
ATOM     14  C   UNL     1     -15.473   7.025  32.115  0.00  0.00    +0.305 C 
ATOM     15  C   UNL     1     -16.690   5.805  30.219  0.00  0.00    +0.128 C 
ATOM     19  C   UNL     1     -17.438   4.475  30.299  0.00  0.00    +0.127 C 
ATOM     20  C   UNL     1     -16.521   2.274  29.624  0.00  0.00    +0.285 C 
ENDROOT
BRANCH   4   9
ATOM      9  C   UNL     1     -13.925   7.437  34.084  0.00  0.00    +0.078 C 
ATOM     11  C   UNL     1     -13.382   6.561  35.216  0.00  0.00    +0.022 C 
ATOM     12  C   UNL     1     -12.843   8.368  33.531  0.00  0.00    +0.022 C 
ATOM     16  C   UNL     1     -12.741   7.400  36.318  0.00  0.00    +0.002 C 
ATOM     17  C   UNL     1     -12.202   9.204  34.636  0.00  0.00    +0.002 C 
ATOM     18  C   UNL     1     -11.664   8.328  35.765  0.00  0.00    +0.000 C 
ENDBRANCH   4   9
BRANCH  20  21
ATOM      3  O   UNL     1     -16.044  -0.051  30.126  0.00  0.00    -0.350 OA
ATOM      7  N   UNL     1     -14.981  -0.930  30.304  0.00  0.00    -0.086 NA
ATOM     21  C   UNL     1     -15.560   1.187  29.848  0.00  0.00    +0.222 A 
ATOM     22  C   UNL     1     -14.191   1.155  29.838  0.00  0.00    +0.077 A 
ATOM     23  C   UNL     1     -13.885  -0.186  30.127  0.00  0.00    +0.157 A 
ENDBRANCH  20  21
TORSDOF 2
ENDMDL
MODEL 9
REMARK VINA RESULT:      -6.1     27.342     28.515
REMARK  Name = 75537014
REMARK  2 active torsions:
REMARK  status: ('A' for Active; 'I' for Inactive)
REMARK    1  A    between atoms: N_4  and  C_9
REMARK    2  A    between atoms: C_20  and  C_21
REMARK                            x       y       z     vdW  Elec       q    Type
REMARK                         _______ _______ _______ _____ _____    ______ ____
ROOT
ATOM      1  O   UNL     1      -2.315 -10.955  14.896  0.00  0.00    -0.252 OA
ATOM      2  O   UNL     1      -4.599  -9.593   8.435  0.00  0.00    -0.267 OA
ATOM      4  N   UNL     1      -4.591 -10.440  15.236  0.00  0.00    -0.281 N 
ATOM      5  N   UNL     1      -3.806 -10.524  13.132  0.00  0.00    -0.278 N 
ATOM      6  N   UNL     1      -4.723  -9.401  10.760  0.00  0.00    -0.292 N 
ATOM      8  C   UNL     1      -5.236 -10.307  12.982  0.00  0.00    +0.112 C 
ATOM     10  C   UNL     1      -5.714 -10.039  14.406  0.00  0.00    +0.133 C 
ATOM     13  C   UNL     1      -5.495  -9.172  11.997  0.00  0.00    +0.132 C 
ATOM     14  C   UNL     1      -3.431 -10.678  14.473  0.00  0.00    +0.305 C 
ATOM     15  C   UNL     1      -2.969 -10.661  11.954  0.00  0.00    +0.128 C 
ATOM     19  C   UNL     1      -3.274  -9.539  10.961  0.00  0.00    +0.127 C 
ATOM     20  C   UNL     1      -5.249  -9.446   9.469  0.00  0.00    +0.285 C 
ENDROOT
BRANCH   4   9
ATOM      9  C   UNL     1      -4.670 -10.446  16.676  0.00  0.00    +0.078 C 
ATOM     11  C   UNL     1      -6.114 -10.240  17.141  0.00  0.00    +0.022 C 
ATOM     12  C   UNL     1      -4.082 -11.741  17.241  0.00  0.00    +0.022 C 
ATOM     16  C   UNL     1      -6.228 -10.297  18.662  0.00  0.00    +0.002 C 
ATOM     17  C   UNL     1      -4.200 -11.797  18.762  0.00  0.00    +0.002 C 
ATOM     18  C   UNL     1      -5.641 -11.588  19.223  0.00  0.00    +0.000 C 
ENDBRANCH   4   9
BRANCH  20  21
ATOM      3  O   UNL     1      -7.231  -8.070   9.214  0.00  0.00    -0.350 OA
ATOM      7  N   UNL     1      -8.611  -8.164   9.071  0.00  0.00    -0.086 NA
ATOM     21  C   UNL     1      -6.704  -9.317   9.310  0.00  0.00    +0.222 A 
ATOM     22  C   UNL     1      -7.705 -10.248   9.234  0.00  0.00    +0.077 A 
ATOM     23  C   UNL     1      -8.870  -9.475   9.087  0.00  0.00    +0.157 A 
ENDBRANCH  20  21
TORSDOF 2
ENDMDL
MODEL 10
REMARK VINA RESULT:      -6.1      1.806      2.416
REMARK  Name = 75537014
REMARK  2 active torsions:
REMARK  status: ('A' for Active; 'I' for Inactive)
REMARK    1  A    between atoms: N_4  and  C_9
REMARK    2  A    between atoms: C_20  and  C_21
REMARK                            x       y       z     vdW  Elec       q    Type
REMARK                         _______ _______ _______ _____ _____    ______ ____
ROOT
ATOM      1  O   UNL     1      10.885   9.981  23.595  0.00  0.00    -0.252 OA
ATOM      2  O   UNL     1      11.719   7.221  17.231  0.00  0.00    -0.267 OA
ATOM      4  N   UNL     1      12.515  11.378  22.621  0.00  0.00    -0.281 N 
ATOM      5  N   UNL     1      11.589   9.761  21.364  0.00  0.00    -0.278 N 
ATOM      6  N   UNL     1      12.458   8.472  19.061  0.00  0.00    -0.292 N 
ATOM      8  C   UNL     1      12.443  10.497  20.446  0.00  0.00    +0.112 C 
ATOM     10  C   UNL     1      13.221  11.446  21.354  0.00  0.00    +0.133 C 
ATOM     13  C   UNL     1      13.307   9.530  19.642  0.00  0.00    +0.132 C 
ATOM     14  C   UNL     1      11.573  10.331  22.645  0.00  0.00    +0.305 C 
ATOM     15  C   UNL     1      10.800   8.644  20.880  0.00  0.00    +0.128 C 
ATOM     19  C   UNL     1      11.673   7.710  20.042  0.00  0.00    +0.127 C 
ATOM     20  C   UNL     1      12.393   8.132  17.709  0.00  0.00    +0.285 C 
ENDROOT
BRANCH   4   9
ATOM      9  C   UNL     1      12.869  12.220  23.738  0.00  0.00    +0.078 C 
ATOM     11  C   UNL     1      14.089  11.659  24.474  0.00  0.00    +0.022 C 
ATOM     12  C   UNL     1      13.113  13.657  23.271  0.00  0.00    +0.022 C 
ATOM     16  C   UNL     1      14.514  12.564  25.627  0.00  0.00    +0.002 C 
ATOM     17  C   UNL     1      13.540  14.560  24.426  0.00  0.00    +0.002 C 
ATOM     18  C   UNL     1      14.755  13.997  25.160  0.00  0.00    +0.000 C 
ENDBRANCH   4   9
BRANCH  20  21
ATOM      3  O   UNL     1      13.844   8.270  15.769  0.00  0.00    -0.350 OA
ATOM      7  N   UNL     1      14.526   9.192  14.984  0.00  0.00    -0.086 NA
ATOM     21  C   UNL     1      13.182   8.925  16.758  0.00  0.00    +0.222 A 
ATOM     22  C   UNL     1      13.409  10.272  16.650  0.00  0.00    +0.077 A 
ATOM     23  C   UNL     1      14.251  10.381  15.530  0.00  0.00    +0.157 A 
ENDBRANCH  20  21
TORSDOF 2
ENDMDL
