MODEL 1
REMARK VINA RESULT:      -7.2      0.000      0.000
REMARK  Name = 7113375
REMARK  9 active torsions:
REMARK  status: ('A' for Active; 'I' for Inactive)
REMARK    1  A    between atoms: N_8  and  C_19
REMARK    2  A    between atoms: N_9  and  C_22
REMARK    3  A    between atoms: C_12  and  C_16
REMARK    4  A    between atoms: C_17  and  C_21
REMARK    5  A    between atoms: C_19  and  C_20
REMARK    6  A    between atoms: C_19  and  C_23
REMARK    7  A    between atoms: C_20  and  C_24
REMARK    8  A    between atoms: C_22  and  C_25
REMARK    9  A    between atoms: C_22  and  C_26
REMARK                            x       y       z     vdW  Elec       q    Type
REMARK                         _______ _______ _______ _____ _____    ______ ____
ROOT
ATOM      3  O   UNL     1      13.348   8.092  22.240  0.00  0.00    -0.269 OA
ATOM      4  O   UNL     1      13.634   8.919  15.326  0.00  0.00    -0.253 OA
ATOM      6  N   UNL     1      12.984   9.363  20.335  0.00  0.00    -0.283 N 
ATOM      7  N   UNL     1      13.282   9.771  17.459  0.00  0.00    -0.282 N 
ATOM      9  N   UNL     1      13.835  11.187  15.655  0.00  0.00    -0.297 N 
ATOM     12  C   UNL     1      13.490   8.301  19.461  0.00  0.00    +0.179 C 
ATOM     13  C   UNL     1      13.012   8.442  18.017  0.00  0.00    +0.141 C 
ATOM     14  C   UNL     1      12.475  10.576  19.678  0.00  0.00    +0.128 C 
ATOM     15  C   UNL     1      13.216  10.905  18.389  0.00  0.00    +0.128 C 
ATOM     17  C   UNL     1      12.911   9.124  21.725  0.00  0.00    +0.254 C 
ATOM     18  C   UNL     1      13.585   9.889  16.089  0.00  0.00    +0.303 C 
ATOM     35  H   UNL     1      13.931  11.938  16.328  0.00  0.00    +0.150 HD
ENDROOT
BRANCH  17  21
ATOM      1  S   UNL     1      13.286  11.407  23.177  0.00  0.00    -0.092 S 
ATOM     21  C   UNL     1      12.300  10.158  22.554  0.00  0.00    +0.074 A 
ATOM     27  C   UNL     1      10.985  10.289  22.931  0.00  0.00    +0.021 A 
ATOM     28  C   UNL     1      10.781  11.438  23.748  0.00  0.00    +0.008 A 
ATOM     29  C   UNL     1      11.949  12.137  23.960  0.00  0.00    +0.046 A 
ENDBRANCH  17  21
BRANCH  12  16
ATOM      2  O   UNL     1      15.611   9.402  19.513  0.00  0.00    -0.274 OA
ATOM      8  N   UNL     1      15.546   7.078  19.629  0.00  0.00    -0.302 N 
ATOM     16  C   UNL     1      14.990   8.343  19.543  0.00  0.00    +0.236 C 
ATOM     34  H   UNL     1      14.936   6.266  19.600  0.00  0.00    +0.150 HD
BRANCH   8  19
ATOM     19  C   UNL     1      16.970   6.843  19.696  0.00  0.00    +0.163 C 
BRANCH  19  23
ATOM      5  O   UNL     1      16.591   5.469  17.728  0.00  0.00    -0.274 OA
ATOM     10  N   UNL     1      18.472   5.085  18.990  0.00  0.00    -0.328 N 
ATOM     23  C   UNL     1      17.288   5.733  18.704  0.00  0.00    +0.231 C 
ATOM     36  H   UNL     1      19.040   5.315  19.799  0.00  0.00    +0.145 HD
ATOM     37  H   UNL     1      18.808   4.334  18.397  0.00  0.00    +0.145 HD
ENDBRANCH  19  23
BRANCH  19  20
ATOM     20  C   UNL     1      17.426   6.447  21.105  0.00  0.00    +0.068 C 
BRANCH  20  24
ATOM     11  N   UNL     1      20.624   7.621  22.715  0.00  0.00    -0.263 NA
ATOM     24  C   UNL     1      18.487   7.368  21.656  0.00  0.00    -0.027 A 
ATOM     30  C   UNL     1      18.309   8.736  21.615  0.00  0.00    +0.006 A 
ATOM     31  C   UNL     1      19.637   6.852  22.204  0.00  0.00    +0.114 A 
ATOM     32  C   UNL     1      19.303   9.560  22.131  0.00  0.00    +0.020 A 
ATOM     33  C   UNL     1      20.431   8.958  22.666  0.00  0.00    +0.111 A 
ENDBRANCH  20  24
ENDBRANCH  19  20
ENDBRANCH   8  19
ENDBRANCH  12  16
BRANCH   9  22
ATOM     22  C   UNL     1      14.169  11.490  14.283  0.00  0.00    +0.068 C 
ATOM     25  C   UNL     1      13.458  12.758  13.825  0.00  0.00    +0.027 C 
ATOM     26  C   UNL     1      15.679  11.615  14.121  0.00  0.00    +0.027 C 
ENDBRANCH   9  22
TORSDOF 7
ENDMDL
MODEL 2
REMARK VINA RESULT:      -6.5     28.059     29.790
REMARK  Name = 7113375
REMARK  9 active torsions:
REMARK  status: ('A' for Active; 'I' for Inactive)
REMARK    1  A    between atoms: N_8  and  C_19
REMARK    2  A    between atoms: N_9  and  C_22
REMARK    3  A    between atoms: C_12  and  C_16
REMARK    4  A    between atoms: C_17  and  C_21
REMARK    5  A    between atoms: C_19  and  C_20
REMARK    6  A    between atoms: C_19  and  C_23
REMARK    7  A    between atoms: C_20  and  C_24
REMARK    8  A    between atoms: C_22  and  C_25
REMARK    9  A    between atoms: C_22  and  C_26
REMARK                            x       y       z     vdW  Elec       q    Type
REMARK                         _______ _______ _______ _____ _____    ______ ____
ROOT
ATOM      3  O   UNL     1      -9.268 -12.133  16.693  0.00  0.00    -0.269 OA
ATOM      4  O   UNL     1      -5.662 -12.371  10.735  0.00  0.00    -0.253 OA
ATOM      6  N   UNL     1      -8.365 -11.091  14.830  0.00  0.00    -0.283 N 
ATOM      7  N   UNL     1      -6.695 -11.171  12.436  0.00  0.00    -0.282 N 
ATOM      9  N   UNL     1      -5.019 -10.191  11.095  0.00  0.00    -0.297 N 
ATOM     12  C   UNL     1      -7.830 -12.354  14.313  0.00  0.00    +0.179 C 
ATOM     13  C   UNL     1      -7.541 -12.306  12.814  0.00  0.00    +0.141 C 
ATOM     14  C   UNL     1      -8.166  -9.896  13.997  0.00  0.00    +0.128 C 
ATOM     15  C   UNL     1      -6.861  -9.935  13.210  0.00  0.00    +0.128 C 
ATOM     17  C   UNL     1      -9.123 -11.110  16.022  0.00  0.00    +0.254 C 
ATOM     18  C   UNL     1      -5.784 -11.320  11.373  0.00  0.00    +0.303 C 
ATOM     35  H   UNL     1      -5.037  -9.397  11.724  0.00  0.00    +0.150 HD
ENDROOT
BRANCH  17  21
ATOM      1  S   UNL     1     -11.358  -9.540  16.023  0.00  0.00    -0.092 S 
ATOM     21  C   UNL     1      -9.733  -9.856  16.450  0.00  0.00    +0.074 A 
ATOM     27  C   UNL     1      -9.175  -8.836  17.182  0.00  0.00    +0.021 A 
ATOM     28  C   UNL     1     -10.098  -7.772  17.398  0.00  0.00    +0.008 A 
ATOM     29  C   UNL     1     -11.323  -8.025  16.822  0.00  0.00    +0.046 A 
ENDBRANCH  17  21
BRANCH  12  16
ATOM      2  O   UNL     1      -5.786 -13.519  14.738  0.00  0.00    -0.274 OA
ATOM      8  N   UNL     1      -6.482 -11.881  16.238  0.00  0.00    -0.302 N 
ATOM     16  C   UNL     1      -6.584 -12.657  15.097  0.00  0.00    +0.236 C 
ATOM     34  H   UNL     1      -7.227 -11.227  16.462  0.00  0.00    +0.150 HD
BRANCH   8  19
ATOM     19  C   UNL     1      -5.389 -11.994  17.177  0.00  0.00    +0.163 C 
BRANCH  19  23
ATOM      5  O   UNL     1      -5.686 -11.669  19.567  0.00  0.00    -0.274 OA
ATOM     10  N   UNL     1      -6.978 -13.243  18.503  0.00  0.00    -0.328 N 
ATOM     23  C   UNL     1      -5.998 -12.273  18.543  0.00  0.00    +0.231 C 
ATOM     36  H   UNL     1      -7.228 -13.732  17.649  0.00  0.00    +0.145 HD
ATOM     37  H   UNL     1      -7.476 -13.513  19.344  0.00  0.00    +0.145 HD
ENDBRANCH  19  23
BRANCH  19  20
ATOM     20  C   UNL     1      -4.532 -10.723  17.223  0.00  0.00    +0.068 C 
BRANCH  20  24
ATOM     11  N   UNL     1      -2.975 -10.512  13.799  0.00  0.00    -0.263 NA
ATOM     24  C   UNL     1      -3.486 -10.684  16.135  0.00  0.00    -0.027 A 
ATOM     30  C   UNL     1      -2.148 -10.783  16.454  0.00  0.00    +0.006 A 
ATOM     31  C   UNL     1      -3.860 -10.552  14.819  0.00  0.00    +0.114 A 
ATOM     32  C   UNL     1      -1.207 -10.745  15.431  0.00  0.00    +0.020 A 
ATOM     33  C   UNL     1      -1.669 -10.610  14.131  0.00  0.00    +0.111 A 
ENDBRANCH  20  24
ENDBRANCH  19  20
ENDBRANCH   8  19
ENDBRANCH  12  16
BRANCH   9  22
ATOM     22  C   UNL     1      -4.030 -10.170  10.042  0.00  0.00    +0.068 C 
ATOM     25  C   UNL     1      -4.619  -9.584   8.765  0.00  0.00    +0.027 C 
ATOM     26  C   UNL     1      -2.798  -9.393  10.489  0.00  0.00    +0.027 C 
ENDBRANCH   9  22
TORSDOF 7
ENDMDL
MODEL 3
REMARK VINA RESULT:      -6.3     13.447     16.297
REMARK  Name = 7113375
REMARK  9 active torsions:
REMARK  status: ('A' for Active; 'I' for Inactive)
REMARK    1  A    between atoms: N_8  and  C_19
REMARK    2  A    between atoms: N_9  and  C_22
REMARK    3  A    between atoms: C_12  and  C_16
REMARK    4  A    between atoms: C_17  and  C_21
REMARK    5  A    between atoms: C_19  and  C_20
REMARK    6  A    between atoms: C_19  and  C_23
REMARK    7  A    between atoms: C_20  and  C_24
REMARK    8  A    between atoms: C_22  and  C_25
REMARK    9  A    between atoms: C_22  and  C_26
REMARK                            x       y       z     vdW  Elec       q    Type
REMARK                         _______ _______ _______ _____ _____    ______ ____
ROOT
ATOM      3  O   UNL     1       9.160   8.034   6.203  0.00  0.00    -0.269 OA
ATOM      4  O   UNL     1      15.591  10.640   5.564  0.00  0.00    -0.253 OA
ATOM      6  N   UNL     1      11.438   7.931   6.621  0.00  0.00    -0.283 N 
ATOM      7  N   UNL     1      14.147   8.930   6.187  0.00  0.00    -0.282 N 
ATOM      9  N   UNL     1      16.421   8.501   5.729  0.00  0.00    -0.297 N 
ATOM     12  C   UNL     1      11.684   9.183   5.901  0.00  0.00    +0.179 C 
ATOM     13  C   UNL     1      13.005   9.843   6.293  0.00  0.00    +0.141 C 
ATOM     14  C   UNL     1      12.599   7.293   7.259  0.00  0.00    +0.128 C 
ATOM     15  C   UNL     1      13.894   7.515   6.487  0.00  0.00    +0.128 C 
ATOM     17  C   UNL     1      10.109   7.471   6.754  0.00  0.00    +0.254 C 
ATOM     18  C   UNL     1      15.402   9.445   5.811  0.00  0.00    +0.303 C 
ATOM     35  H   UNL     1      16.206   7.513   5.794  0.00  0.00    +0.150 HD
ENDROOT
BRANCH  17  21
ATOM      1  S   UNL     1       9.988   4.744   6.831  0.00  0.00    -0.092 S 
ATOM     21  C   UNL     1       9.886   6.282   7.569  0.00  0.00    +0.074 A 
ATOM     27  C   UNL     1       9.593   6.203   8.909  0.00  0.00    +0.021 A 
ATOM     28  C   UNL     1       9.448   4.853   9.341  0.00  0.00    +0.008 A 
ATOM     29  C   UNL     1       9.637   3.957   8.312  0.00  0.00    +0.046 A 
ENDBRANCH  17  21
BRANCH  12  16
ATOM      2  O   UNL     1      12.073   9.645   3.588  0.00  0.00    -0.274 OA
ATOM      8  N   UNL     1      11.087   7.621   4.183  0.00  0.00    -0.302 N 
ATOM     16  C   UNL     1      11.653   8.859   4.434  0.00  0.00    +0.236 C 
ATOM     34  H   UNL     1      10.731   7.072   4.960  0.00  0.00    +0.150 HD
BRANCH   8  19
ATOM     19  C   UNL     1      10.918   7.084   2.851  0.00  0.00    +0.163 C 
BRANCH  19  23
ATOM      5  O   UNL     1       9.506   8.114   1.163  0.00  0.00    -0.274 OA
ATOM     10  N   UNL     1       8.574   7.568   3.191  0.00  0.00    -0.328 N 
ATOM     23  C   UNL     1       9.622   7.658   2.298  0.00  0.00    +0.231 C 
ATOM     36  H   UNL     1       8.684   7.186   4.125  0.00  0.00    +0.145 HD
ATOM     37  H   UNL     1       7.649   7.900   2.941  0.00  0.00    +0.145 HD
ENDBRANCH  19  23
BRANCH  19  20
ATOM     20  C   UNL     1      10.869   5.552   2.847  0.00  0.00    +0.068 C 
BRANCH  20  24
ATOM     11  N   UNL     1      13.290   2.961   1.573  0.00  0.00    -0.263 NA
ATOM     24  C   UNL     1      12.136   4.928   2.314  0.00  0.00    -0.027 A 
ATOM     30  C   UNL     1      13.252   5.707   2.090  0.00  0.00    +0.006 A 
ATOM     31  C   UNL     1      12.187   3.581   2.049  0.00  0.00    +0.114 A 
ATOM     32  C   UNL     1      14.406   5.106   1.600  0.00  0.00    +0.020 A 
ATOM     33  C   UNL     1      14.373   3.741   1.360  0.00  0.00    +0.111 A 
ENDBRANCH  20  24
ENDBRANCH  19  20
ENDBRANCH   8  19
ENDBRANCH  12  16
BRANCH   9  22
ATOM     22  C   UNL     1      17.770   8.853   5.350  0.00  0.00    +0.068 C 
ATOM     25  C   UNL     1      18.739   8.569   6.490  0.00  0.00    +0.027 C 
ATOM     26  C   UNL     1      18.175   8.109   4.083  0.00  0.00    +0.027 C 
ENDBRANCH   9  22
TORSDOF 7
ENDMDL
MODEL 4
REMARK VINA RESULT:      -6.2     27.922     29.666
REMARK  Name = 7113375
REMARK  9 active torsions:
REMARK  status: ('A' for Active; 'I' for Inactive)
REMARK    1  A    between atoms: N_8  and  C_19
REMARK    2  A    between atoms: N_9  and  C_22
REMARK    3  A    between atoms: C_12  and  C_16
REMARK    4  A    between atoms: C_17  and  C_21
REMARK    5  A    between atoms: C_19  and  C_20
REMARK    6  A    between atoms: C_19  and  C_23
REMARK    7  A    between atoms: C_20  and  C_24
REMARK    8  A    between atoms: C_22  and  C_25
REMARK    9  A    between atoms: C_22  and  C_26
REMARK                            x       y       z     vdW  Elec       q    Type
REMARK                         _______ _______ _______ _____ _____    ______ ____
ROOT
ATOM      3  O   UNL     1      -9.029 -10.338  16.932  0.00  0.00    -0.269 OA
ATOM      4  O   UNL     1      -4.683 -11.966  11.735  0.00  0.00    -0.253 OA
ATOM      6  N   UNL     1      -8.317 -10.103  14.739  0.00  0.00    -0.283 N 
ATOM      7  N   UNL     1      -6.377 -10.650  12.626  0.00  0.00    -0.282 N 
ATOM      9  N   UNL     1      -5.031  -9.871  10.852  0.00  0.00    -0.297 N 
ATOM     12  C   UNL     1      -7.244 -11.085  14.922  0.00  0.00    +0.179 C 
ATOM     13  C   UNL     1      -6.752 -11.677  13.603  0.00  0.00    +0.141 C 
ATOM     14  C   UNL     1      -8.473  -9.534  13.392  0.00  0.00    +0.128 C 
ATOM     15  C   UNL     1      -7.150  -9.402  12.649  0.00  0.00    +0.128 C 
ATOM     17  C   UNL     1      -9.193  -9.842  15.816  0.00  0.00    +0.254 C 
ATOM     18  C   UNL     1      -5.318 -10.907  11.735  0.00  0.00    +0.303 C 
ATOM     35  H   UNL     1      -5.469  -8.965  10.972  0.00  0.00    +0.150 HD
ENDROOT
BRANCH  17  21
ATOM      1  S   UNL     1     -11.786  -9.598  14.995  0.00  0.00    -0.092 S 
ATOM     21  C   UNL     1     -10.315  -8.943  15.568  0.00  0.00    +0.074 A 
ATOM     27  C   UNL     1     -10.375  -7.580  15.732  0.00  0.00    +0.021 A 
ATOM     28  C   UNL     1     -11.654  -7.060  15.382  0.00  0.00    +0.008 A 
ATOM     29  C   UNL     1     -12.518  -8.049  14.964  0.00  0.00    +0.046 A 
ENDBRANCH  17  21
BRANCH  12  16
ATOM      2  O   UNL     1      -6.204  -9.203  15.967  0.00  0.00    -0.274 OA
ATOM      8  N   UNL     1      -5.057 -11.227  15.892  0.00  0.00    -0.302 N 
ATOM     16  C   UNL     1      -6.132 -10.389  15.654  0.00  0.00    +0.236 C 
ATOM     34  H   UNL     1      -5.087 -12.183  15.548  0.00  0.00    +0.150 HD
BRANCH   8  19
ATOM     19  C   UNL     1      -3.850 -10.796  16.561  0.00  0.00    +0.163 C 
BRANCH  19  23
ATOM      5  O   UNL     1      -2.794 -11.890  14.665  0.00  0.00    -0.274 OA
ATOM     10  N   UNL     1      -1.457 -11.046  16.331  0.00  0.00    -0.328 N 
ATOM     23  C   UNL     1      -2.676 -11.321  15.748  0.00  0.00    +0.231 C 
ATOM     36  H   UNL     1      -1.373 -10.572  17.226  0.00  0.00    +0.145 HD
ATOM     37  H   UNL     1      -0.591 -11.328  15.884  0.00  0.00    +0.145 HD
ENDBRANCH  19  23
BRANCH  19  20
ATOM     20  C   UNL     1      -3.772 -11.308  18.004  0.00  0.00    +0.068 C 
BRANCH  20  24
ATOM     11  N   UNL     1      -6.937 -10.715  19.961  0.00  0.00    -0.263 NA
ATOM     24  C   UNL     1      -5.132 -11.541  18.615  0.00  0.00    -0.027 A 
ATOM     30  C   UNL     1      -5.792 -12.735  18.406  0.00  0.00    +0.006 A 
ATOM     31  C   UNL     1      -5.723 -10.568  19.384  0.00  0.00    +0.114 A 
ATOM     32  C   UNL     1      -7.044 -12.922  18.981  0.00  0.00    +0.020 A 
ATOM     33  C   UNL     1      -7.568 -11.890  19.744  0.00  0.00    +0.111 A 
ENDBRANCH  20  24
ENDBRANCH  19  20
ENDBRANCH   8  19
ENDBRANCH  12  16
BRANCH   9  22
ATOM     22  C   UNL     1      -3.971  -9.961   9.875  0.00  0.00    +0.068 C 
ATOM     25  C   UNL     1      -4.455  -9.477   8.513  0.00  0.00    +0.027 C 
ATOM     26  C   UNL     1      -2.754  -9.172  10.341  0.00  0.00    +0.027 C 
ENDBRANCH   9  22
TORSDOF 7
ENDMDL
MODEL 5
REMARK VINA RESULT:      -6.1     28.268     31.511
REMARK  Name = 7113375
REMARK  9 active torsions:
REMARK  status: ('A' for Active; 'I' for Inactive)
REMARK    1  A    between atoms: N_8  and  C_19
REMARK    2  A    between atoms: N_9  and  C_22
REMARK    3  A    between atoms: C_12  and  C_16
REMARK    4  A    between atoms: C_17  and  C_21
REMARK    5  A    between atoms: C_19  and  C_20
REMARK    6  A    between atoms: C_19  and  C_23
REMARK    7  A    between atoms: C_20  and  C_24
REMARK    8  A    between atoms: C_22  and  C_25
REMARK    9  A    between atoms: C_22  and  C_26
REMARK                            x       y       z     vdW  Elec       q    Type
REMARK                         _______ _______ _______ _____ _____    ______ ____
ROOT
ATOM      3  O   UNL     1     -12.780   8.215  36.507  0.00  0.00    -0.269 OA
ATOM      4  O   UNL     1     -13.894  10.760  30.116  0.00  0.00    -0.253 OA
ATOM      6  N   UNL     1     -12.017   9.249  34.577  0.00  0.00    -0.283 N 
ATOM      7  N   UNL     1     -12.454  10.140  31.831  0.00  0.00    -0.282 N 
ATOM      9  N   UNL     1     -11.702  10.290  29.601  0.00  0.00    -0.297 N 
ATOM     12  C   UNL     1     -13.350   9.222  33.968  0.00  0.00    +0.179 C 
ATOM     13  C   UNL     1     -13.509  10.243  32.844  0.00  0.00    +0.141 C 
ATOM     14  C   UNL     1     -10.948   9.902  33.807  0.00  0.00    +0.128 C 
ATOM     15  C   UNL     1     -11.122   9.740  32.302  0.00  0.00    +0.128 C 
ATOM     17  C   UNL     1     -11.859   8.756  35.892  0.00  0.00    +0.254 C 
ATOM     18  C   UNL     1     -12.765  10.424  30.488  0.00  0.00    +0.303 C 
ATOM     35  H   UNL     1     -10.831   9.875  29.910  0.00  0.00    +0.150 HD
ENDROOT
BRANCH  17  21
ATOM      1  S   UNL     1     -10.134  10.388  37.240  0.00  0.00    -0.092 S 
ATOM     21  C   UNL     1     -10.545   8.899  36.510  0.00  0.00    +0.074 A 
ATOM     27  C   UNL     1      -9.535   7.972  36.601  0.00  0.00    +0.021 A 
ATOM     28  C   UNL     1      -8.398   8.493  37.284  0.00  0.00    +0.008 A 
ATOM     29  C   UNL     1      -8.589   9.797  37.686  0.00  0.00    +0.046 A 
ENDBRANCH  17  21
BRANCH  12  16
ATOM      2  O   UNL     1     -12.799   7.284  32.681  0.00  0.00    -0.274 OA
ATOM      8  N   UNL     1     -14.735   7.265  33.973  0.00  0.00    -0.302 N 
ATOM     16  C   UNL     1     -13.574   7.823  33.467  0.00  0.00    +0.236 C 
ATOM     34  H   UNL     1     -15.327   7.821  34.584  0.00  0.00    +0.150 HD
BRANCH   8  19
ATOM     19  C   UNL     1     -15.191   5.937  33.628  0.00  0.00    +0.163 C 
BRANCH  19  23
ATOM      5  O   UNL     1     -17.605   6.188  33.761  0.00  0.00    -0.274 OA
ATOM     10  N   UNL     1     -16.528   5.018  35.420  0.00  0.00    -0.328 N 
ATOM     23  C   UNL     1     -16.566   5.759  34.257  0.00  0.00    +0.231 C 
ATOM     36  H   UNL     1     -15.662   4.666  35.816  0.00  0.00    +0.145 HD
ATOM     37  H   UNL     1     -17.379   4.811  35.931  0.00  0.00    +0.145 HD
ENDBRANCH  19  23
BRANCH  19  20
ATOM     20  C   UNL     1     -14.232   4.849  34.122  0.00  0.00    +0.068 C 
BRANCH  20  24
ATOM     11  N   UNL     1     -14.638   1.382  32.702  0.00  0.00    -0.263 NA
ATOM     24  C   UNL     1     -14.136   3.680  33.172  0.00  0.00    -0.027 A 
ATOM     30  C   UNL     1     -13.490   3.820  31.961  0.00  0.00    +0.006 A 
ATOM     31  C   UNL     1     -14.690   2.467  33.506  0.00  0.00    +0.114 A 
ATOM     32  C   UNL     1     -13.417   2.726  31.106  0.00  0.00    +0.020 A 
ATOM     33  C   UNL     1     -14.001   1.539  31.521  0.00  0.00    +0.111 A 
ENDBRANCH  20  24
ENDBRANCH  19  20
ENDBRANCH   8  19
ENDBRANCH  12  16
BRANCH   9  22
ATOM     22  C   UNL     1     -11.844  10.534  28.184  0.00  0.00    +0.068 C 
ATOM     25  C   UNL     1     -11.658  12.015  27.874  0.00  0.00    +0.027 C 
ATOM     26  C   UNL     1     -10.860   9.678  27.398  0.00  0.00    +0.027 C 
ENDBRANCH   9  22
TORSDOF 7
ENDMDL
MODEL 6
REMARK VINA RESULT:      -6.0     13.875     17.716
REMARK  Name = 7113375
REMARK  9 active torsions:
REMARK  status: ('A' for Active; 'I' for Inactive)
REMARK    1  A    between atoms: N_8  and  C_19
REMARK    2  A    between atoms: N_9  and  C_22
REMARK    3  A    between atoms: C_12  and  C_16
REMARK    4  A    between atoms: C_17  and  C_21
REMARK    5  A    between atoms: C_19  and  C_20
REMARK    6  A    between atoms: C_19  and  C_23
REMARK    7  A    between atoms: C_20  and  C_24
REMARK    8  A    between atoms: C_22  and  C_25
REMARK    9  A    between atoms: C_22  and  C_26
REMARK                            x       y       z     vdW  Elec       q    Type
REMARK                         _______ _______ _______ _____ _____    ______ ____
ROOT
ATOM      3  O   UNL     1       9.030   5.621   4.948  0.00  0.00    -0.269 OA
ATOM      4  O   UNL     1      14.669   9.408   3.392  0.00  0.00    -0.253 OA
ATOM      6  N   UNL     1      11.027   6.627   5.561  0.00  0.00    -0.283 N 
ATOM      7  N   UNL     1      13.475   8.053   4.853  0.00  0.00    -0.282 N 
ATOM      9  N   UNL     1      15.813   8.296   5.049  0.00  0.00    -0.297 N 
ATOM     12  C   UNL     1      11.235   7.166   4.214  0.00  0.00    +0.179 C 
ATOM     13  C   UNL     1      12.200   8.349   4.191  0.00  0.00    +0.141 C 
ATOM     14  C   UNL     1      12.025   6.984   6.580  0.00  0.00    +0.128 C 
ATOM     15  C   UNL     1      13.427   7.142   6.003  0.00  0.00    +0.128 C 
ATOM     17  C   UNL     1       9.845   5.901   5.829  0.00  0.00    +0.254 C 
ATOM     18  C   UNL     1      14.654   8.644   4.362  0.00  0.00    +0.303 C 
ATOM     35  H   UNL     1      15.790   7.558   5.744  0.00  0.00    +0.150 HD
ENDROOT
BRANCH  17  21
ATOM      1  S   UNL     1       9.045   6.617   8.341  0.00  0.00    -0.092 S 
ATOM     21  C   UNL     1       9.616   5.474   7.206  0.00  0.00    +0.074 A 
ATOM     27  C   UNL     1       9.798   4.229   7.759  0.00  0.00    +0.021 A 
ATOM     28  C   UNL     1       9.462   4.211   9.144  0.00  0.00    +0.008 A 
ATOM     29  C   UNL     1       9.038   5.443   9.589  0.00  0.00    +0.046 A 
ENDBRANCH  17  21
BRANCH  12  16
ATOM      2  O   UNL     1      11.545   4.860   3.663  0.00  0.00    -0.274 OA
ATOM      8  N   UNL     1      12.444   6.485   2.259  0.00  0.00    -0.302 N 
ATOM     16  C   UNL     1      11.740   6.035   3.363  0.00  0.00    +0.236 C 
ATOM     34  H   UNL     1      12.583   7.483   2.132  0.00  0.00    +0.150 HD
BRANCH   8  19
ATOM     19  C   UNL     1      13.053   5.597   1.294  0.00  0.00    +0.163 C 
BRANCH  19  23
ATOM      5  O   UNL     1      15.260   6.615   1.249  0.00  0.00    -0.274 OA
ATOM     10  N   UNL     1      15.041   4.506   2.132  0.00  0.00    -0.328 N 
ATOM     23  C   UNL     1      14.556   5.647   1.527  0.00  0.00    +0.231 C 
ATOM     36  H   UNL     1      14.448   3.713   2.359  0.00  0.00    +0.145 HD
ATOM     37  H   UNL     1      16.025   4.416   2.358  0.00  0.00    +0.145 HD
ENDBRANCH  19  23
BRANCH  19  20
ATOM     20  C   UNL     1      12.723   5.996  -0.149  0.00  0.00    +0.068 C 
BRANCH  20  24
ATOM     11  N   UNL     1      10.266   3.837  -2.021  0.00  0.00    -0.263 NA
ATOM     24  C   UNL     1      12.162   4.851  -0.957  0.00  0.00    -0.027 A 
ATOM     30  C   UNL     1      12.980   3.813  -1.353  0.00  0.00    +0.006 A 
ATOM     31  C   UNL     1      10.831   4.833  -1.302  0.00  0.00    +0.114 A 
ATOM     32  C   UNL     1      12.435   2.772  -2.095  0.00  0.00    +0.020 A 
ATOM     33  C   UNL     1      11.084   2.830  -2.400  0.00  0.00    +0.111 A 
ENDBRANCH  20  24
ENDBRANCH  19  20
ENDBRANCH   8  19
ENDBRANCH  12  16
BRANCH   9  22
ATOM     22  C   UNL     1      17.113   8.803   4.676  0.00  0.00    +0.068 C 
ATOM     25  C   UNL     1      18.043   8.833   5.882  0.00  0.00    +0.027 C 
ATOM     26  C   UNL     1      17.702   7.969   3.545  0.00  0.00    +0.027 C 
ENDBRANCH   9  22
TORSDOF 7
ENDMDL
MODEL 7
REMARK VINA RESULT:      -6.0     29.553     32.097
REMARK  Name = 7113375
REMARK  9 active torsions:
REMARK  status: ('A' for Active; 'I' for Inactive)
REMARK    1  A    between atoms: N_8  and  C_19
REMARK    2  A    between atoms: N_9  and  C_22
REMARK    3  A    between atoms: C_12  and  C_16
REMARK    4  A    between atoms: C_17  and  C_21
REMARK    5  A    between atoms: C_19  and  C_20
REMARK    6  A    between atoms: C_19  and  C_23
REMARK    7  A    between atoms: C_20  and  C_24
REMARK    8  A    between atoms: C_22  and  C_25
REMARK    9  A    between atoms: C_22  and  C_26
REMARK                            x       y       z     vdW  Elec       q    Type
REMARK                         _______ _______ _______ _____ _____    ______ ____
ROOT
ATOM      3  O   UNL     1      -6.288  -9.857  14.840  0.00  0.00    -0.269 OA
ATOM      4  O   UNL     1     -10.317 -14.284  18.408  0.00  0.00    -0.253 OA
ATOM      6  N   UNL     1      -6.539 -11.670  16.263  0.00  0.00    -0.283 N 
ATOM      7  N   UNL     1      -8.230 -13.398  17.900  0.00  0.00    -0.282 N 
ATOM      9  N   UNL     1      -8.616 -14.520  19.939  0.00  0.00    -0.297 N 
ATOM     12  C   UNL     1      -8.001 -11.585  16.206  0.00  0.00    +0.179 C 
ATOM     13  C   UNL     1      -8.686 -12.890  16.603  0.00  0.00    +0.141 C 
ATOM     14  C   UNL     1      -5.968 -12.774  17.050  0.00  0.00    +0.128 C 
ATOM     15  C   UNL     1      -6.827 -13.147  18.252  0.00  0.00    +0.128 C 
ATOM     17  C   UNL     1      -5.773 -10.771  15.487  0.00  0.00    +0.254 C 
ATOM     18  C   UNL     1      -9.140 -14.085  18.726  0.00  0.00    +0.303 C 
ATOM     35  H   UNL     1      -7.695 -14.216  20.234  0.00  0.00    +0.150 HD
ENDROOT
BRANCH  17  21
ATOM      1  S   UNL     1      -3.606 -11.803  14.184  0.00  0.00    -0.092 S 
ATOM     21  C   UNL     1      -4.325 -10.953  15.481  0.00  0.00    +0.074 A 
ATOM     27  C   UNL     1      -3.403 -10.524  16.404  0.00  0.00    +0.021 A 
ATOM     28  C   UNL     1      -2.077 -10.899  16.041  0.00  0.00    +0.008 A 
ATOM     29  C   UNL     1      -2.043 -11.599  14.856  0.00  0.00    +0.046 A 
ENDBRANCH  17  21
BRANCH  12  16
ATOM      2  O   UNL     1      -7.618  -9.589  17.465  0.00  0.00    -0.274 OA
ATOM      8  N   UNL     1      -9.738 -10.548  17.492  0.00  0.00    -0.302 N 
ATOM     16  C   UNL     1      -8.411 -10.458  17.111  0.00  0.00    +0.236 C 
ATOM     34  H   UNL     1     -10.293 -11.338  17.174  0.00  0.00    +0.150 HD
BRANCH   8  19
ATOM     19  C   UNL     1     -10.374  -9.600  18.379  0.00  0.00    +0.163 C 
BRANCH  19  23
ATOM      5  O   UNL     1      -9.528 -10.907  20.245  0.00  0.00    -0.274 OA
ATOM     10  N   UNL     1     -11.623  -9.978  20.414  0.00  0.00    -0.328 N 
ATOM     23  C   UNL     1     -10.442 -10.249  19.753  0.00  0.00    +0.231 C 
ATOM     36  H   UNL     1     -12.369  -9.430  19.997  0.00  0.00    +0.145 HD
ATOM     37  H   UNL     1     -11.790 -10.338  21.347  0.00  0.00    +0.145 HD
ENDBRANCH  19  23
BRANCH  19  20
ATOM     20  C   UNL     1     -11.778  -9.210  17.901  0.00  0.00    +0.068 C 
BRANCH  20  24
ATOM     11  N   UNL     1     -10.541  -6.309  15.839  0.00  0.00    -0.263 NA
ATOM     24  C   UNL     1     -11.761  -8.080  16.901  0.00  0.00    -0.027 A 
ATOM     30  C   UNL     1     -12.891  -7.786  16.166  0.00  0.00    +0.006 A 
ATOM     31  C   UNL     1     -10.621  -7.334  16.716  0.00  0.00    +0.114 A 
ATOM     32  C   UNL     1     -12.847  -6.739  15.253  0.00  0.00    +0.020 A 
ATOM     33  C   UNL     1     -11.658  -6.037  15.128  0.00  0.00    +0.111 A 
ENDBRANCH  20  24
ENDBRANCH  19  20
ENDBRANCH   8  19
ENDBRANCH  12  16
BRANCH   9  22
ATOM     22  C   UNL     1      -9.412 -15.234  20.910  0.00  0.00    +0.068 C 
ATOM     25  C   UNL     1      -9.523 -16.707  20.534  0.00  0.00    +0.027 C 
ATOM     26  C   UNL     1      -8.823 -15.065  22.305  0.00  0.00    +0.027 C 
ENDBRANCH   9  22
TORSDOF 7
ENDMDL
MODEL 8
REMARK VINA RESULT:      -6.0     28.724     30.587
REMARK  Name = 7113375
REMARK  9 active torsions:
REMARK  status: ('A' for Active; 'I' for Inactive)
REMARK    1  A    between atoms: N_8  and  C_19
REMARK    2  A    between atoms: N_9  and  C_22
REMARK    3  A    between atoms: C_12  and  C_16
REMARK    4  A    between atoms: C_17  and  C_21
REMARK    5  A    between atoms: C_19  and  C_20
REMARK    6  A    between atoms: C_19  and  C_23
REMARK    7  A    between atoms: C_20  and  C_24
REMARK    8  A    between atoms: C_22  and  C_25
REMARK    9  A    between atoms: C_22  and  C_26
REMARK                            x       y       z     vdW  Elec       q    Type
REMARK                         _______ _______ _______ _____ _____    ______ ____
ROOT
ATOM      3  O   UNL     1     -11.422 -10.804  16.442  0.00  0.00    -0.269 OA
ATOM      4  O   UNL     1      -5.902 -13.019  12.810  0.00  0.00    -0.253 OA
ATOM      6  N   UNL     1      -9.604 -10.388  15.064  0.00  0.00    -0.283 N 
ATOM      7  N   UNL     1      -7.188 -11.302  13.702  0.00  0.00    -0.282 N 
ATOM      9  N   UNL     1      -4.922 -10.964  13.140  0.00  0.00    -0.297 N 
ATOM     12  C   UNL     1      -9.251 -11.809  15.005  0.00  0.00    +0.179 C 
ATOM     13  C   UNL     1      -8.377 -12.154  13.801  0.00  0.00    +0.141 C 
ATOM     14  C   UNL     1      -8.783  -9.467  14.265  0.00  0.00    +0.128 C 
ATOM     15  C   UNL     1      -7.330  -9.913  14.157  0.00  0.00    +0.128 C 
ATOM     17  C   UNL     1     -10.757 -10.002  15.783  0.00  0.00    +0.254 C 
ATOM     18  C   UNL     1      -5.997 -11.846  13.187  0.00  0.00    +0.303 C 
ATOM     35  H   UNL     1      -4.988 -10.058  13.590  0.00  0.00    +0.150 HD
ENDROOT
BRANCH  17  21
ATOM      1  S   UNL     1     -10.372  -7.488  16.779  0.00  0.00    -0.092 S 
ATOM     21  C   UNL     1     -11.143  -8.596  15.730  0.00  0.00    +0.074 A 
ATOM     27  C   UNL     1     -12.079  -7.992  14.925  0.00  0.00    +0.021 A 
ATOM     28  C   UNL     1     -12.166  -6.592  15.173  0.00  0.00    +0.008 A 
ATOM     29  C   UNL     1     -11.294  -6.185  16.157  0.00  0.00    +0.046 A 
ENDBRANCH  17  21
BRANCH  12  16
ATOM      2  O   UNL     1      -7.894 -13.169  16.429  0.00  0.00    -0.274 OA
ATOM      8  N   UNL     1      -8.776 -11.186  17.271  0.00  0.00    -0.302 N 
ATOM     16  C   UNL     1      -8.555 -12.142  16.295  0.00  0.00    +0.236 C 
ATOM     34  H   UNL     1      -9.379 -10.395  17.063  0.00  0.00    +0.150 HD
BRANCH   8  19
ATOM     19  C   UNL     1      -8.237 -11.282  18.609  0.00  0.00    +0.163 C 
BRANCH  19  23
ATOM      5  O   UNL     1      -9.684 -11.904  20.460  0.00  0.00    -0.274 OA
ATOM     10  N   UNL     1     -10.072  -9.912  19.382  0.00  0.00    -0.328 N 
ATOM     23  C   UNL     1      -9.400 -11.101  19.574  0.00  0.00    +0.231 C 
ATOM     36  H   UNL     1      -9.824  -9.256  18.648  0.00  0.00    +0.145 HD
ATOM     37  H   UNL     1     -10.859  -9.661  19.970  0.00  0.00    +0.145 HD
ENDBRANCH  19  23
BRANCH  19  20
ATOM     20  C   UNL     1      -7.153 -10.230  18.874  0.00  0.00    +0.068 C 
BRANCH  20  24
ATOM     11  N   UNL     1      -4.328 -10.350  16.384  0.00  0.00    -0.263 NA
ATOM     24  C   UNL     1      -5.830 -10.582  18.239  0.00  0.00    -0.027 A 
ATOM     30  C   UNL     1      -4.948 -11.420  18.891  0.00  0.00    +0.006 A 
ATOM     31  C   UNL     1      -5.495 -10.073  17.008  0.00  0.00    +0.114 A 
ATOM     32  C   UNL     1      -3.737 -11.727  18.282  0.00  0.00    +0.020 A 
ATOM     33  C   UNL     1      -3.477 -11.172  17.038  0.00  0.00    +0.111 A 
ENDBRANCH  20  24
ENDBRANCH  19  20
ENDBRANCH   8  19
ENDBRANCH  12  16
BRANCH   9  22
ATOM     22  C   UNL     1      -3.622 -11.357  12.649  0.00  0.00    +0.068 C 
ATOM     25  C   UNL     1      -3.519 -11.110  11.148  0.00  0.00    +0.027 C 
ATOM     26  C   UNL     1      -2.524 -10.620  13.405  0.00  0.00    +0.027 C 
ENDBRANCH   9  22
TORSDOF 7
ENDMDL
MODEL 9
REMARK VINA RESULT:      -5.9     23.861     26.799
REMARK  Name = 7113375
REMARK  9 active torsions:
REMARK  status: ('A' for Active; 'I' for Inactive)
REMARK    1  A    between atoms: N_8  and  C_19
REMARK    2  A    between atoms: N_9  and  C_22
REMARK    3  A    between atoms: C_12  and  C_16
REMARK    4  A    between atoms: C_17  and  C_21
REMARK    5  A    between atoms: C_19  and  C_20
REMARK    6  A    between atoms: C_19  and  C_23
REMARK    7  A    between atoms: C_20  and  C_24
REMARK    8  A    between atoms: C_22  and  C_25
REMARK    9  A    between atoms: C_22  and  C_26
REMARK                            x       y       z     vdW  Elec       q    Type
REMARK                         _______ _______ _______ _____ _____    ______ ____
ROOT
ATOM      3  O   UNL     1      -9.967   9.641  19.263  0.00  0.00    -0.269 OA
ATOM      4  O   UNL     1     -11.442   9.151  12.470  0.00  0.00    -0.253 OA
ATOM      6  N   UNL     1     -11.310   8.886  17.532  0.00  0.00    -0.283 N 
ATOM      7  N   UNL     1     -12.021   8.847  14.700  0.00  0.00    -0.282 N 
ATOM      9  N   UNL     1     -13.669   8.973  13.017  0.00  0.00    -0.297 N 
ATOM     12  C   UNL     1     -10.443   9.493  16.518  0.00  0.00    +0.179 C 
ATOM     13  C   UNL     1     -10.621   8.869  15.135  0.00  0.00    +0.141 C 
ATOM     14  C   UNL     1     -12.461   8.112  17.043  0.00  0.00    +0.128 C 
ATOM     15  C   UNL     1     -13.036   8.664  15.744  0.00  0.00    +0.128 C 
ATOM     17  C   UNL     1     -10.940   8.982  18.891  0.00  0.00    +0.254 C 
ATOM     18  C   UNL     1     -12.314   8.999  13.331  0.00  0.00    +0.303 C 
ATOM     35  H   UNL     1     -14.363   8.994  13.755  0.00  0.00    +0.150 HD
ENDROOT
BRANCH  17  21
ATOM      1  S   UNL     1     -13.061   9.104  20.608  0.00  0.00    -0.092 S 
ATOM     21  C   UNL     1     -11.764   8.274  19.865  0.00  0.00    +0.074 A 
ATOM     27  C   UNL     1     -11.654   6.976  20.300  0.00  0.00    +0.021 A 
ATOM     28  C   UNL     1     -12.653   6.652  21.263  0.00  0.00    +0.008 A 
ATOM     29  C   UNL     1     -13.485   7.718  21.522  0.00  0.00    +0.046 A 
ENDBRANCH  17  21
BRANCH  12  16
ATOM      2  O   UNL     1     -11.592  11.458  17.247  0.00  0.00    -0.274 OA
ATOM      8  N   UNL     1     -10.023  11.640  15.537  0.00  0.00    -0.302 N 
ATOM     16  C   UNL     1     -10.756  10.962  16.496  0.00  0.00    +0.236 C 
ATOM     34  H   UNL     1      -9.389  11.119  14.938  0.00  0.00    +0.150 HD
BRANCH   8  19
ATOM     19  C   UNL     1     -10.154  13.059  15.297  0.00  0.00    +0.163 C 
BRANCH  19  23
ATOM      5  O   UNL     1     -11.556  12.580  13.370  0.00  0.00    -0.274 OA
ATOM     10  N   UNL     1     -12.223  14.221  14.833  0.00  0.00    -0.328 N 
ATOM     23  C   UNL     1     -11.354  13.249  14.381  0.00  0.00    +0.231 C 
ATOM     36  H   UNL     1     -12.045  14.765  15.672  0.00  0.00    +0.145 HD
ATOM     37  H   UNL     1     -13.072  14.436  14.322  0.00  0.00    +0.145 HD
ENDBRANCH  19  23
BRANCH  19  20
ATOM     20  C   UNL     1      -8.895  13.658  14.660  0.00  0.00    +0.068 C 
BRANCH  20  24
ATOM     11  N   UNL     1      -5.533  14.011  16.324  0.00  0.00    -0.263 NA
ATOM     24  C   UNL     1      -7.843  14.024  15.678  0.00  0.00    -0.027 A 
ATOM     30  C   UNL     1      -8.199  14.671  16.843  0.00  0.00    +0.006 A 
ATOM     31  C   UNL     1      -6.523  13.713  15.453  0.00  0.00    +0.114 A 
ATOM     32  C   UNL     1      -7.208  14.995  17.763  0.00  0.00    +0.020 A 
ATOM     33  C   UNL     1      -5.902  14.645  17.459  0.00  0.00    +0.111 A 
ENDBRANCH  20  24
ENDBRANCH  19  20
ENDBRANCH   8  19
ENDBRANCH  12  16
BRANCH   9  22
ATOM     22  C   UNL     1     -14.150   9.123  11.663  0.00  0.00    +0.068 C 
ATOM     25  C   UNL     1     -15.290   8.150  11.389  0.00  0.00    +0.027 C 
ATOM     26  C   UNL     1     -14.579  10.562  11.410  0.00  0.00    +0.027 C 
ENDBRANCH   9  22
TORSDOF 7
ENDMDL
MODEL 10
REMARK VINA RESULT:      -5.9     12.821     14.781
REMARK  Name = 7113375
REMARK  9 active torsions:
REMARK  status: ('A' for Active; 'I' for Inactive)
REMARK    1  A    between atoms: N_8  and  C_19
REMARK    2  A    between atoms: N_9  and  C_22
REMARK    3  A    between atoms: C_12  and  C_16
REMARK    4  A    between atoms: C_17  and  C_21
REMARK    5  A    between atoms: C_19  and  C_20
REMARK    6  A    between atoms: C_19  and  C_23
REMARK    7  A    between atoms: C_20  and  C_24
REMARK    8  A    between atoms: C_22  and  C_25
REMARK    9  A    between atoms: C_22  and  C_26
REMARK                            x       y       z     vdW  Elec       q    Type
REMARK                         _______ _______ _______ _____ _____    ______ ____
ROOT
ATOM      3  O   UNL     1       9.188   9.486   5.900  0.00  0.00    -0.269 OA
ATOM      4  O   UNL     1      15.827  10.041   3.858  0.00  0.00    -0.253 OA
ATOM      6  N   UNL     1      11.346  10.270   6.219  0.00  0.00    -0.283 N 
ATOM      7  N   UNL     1      14.162  10.337   5.452  0.00  0.00    -0.282 N 
ATOM      9  N   UNL     1      16.438  10.242   6.066  0.00  0.00    -0.297 N 
ATOM     12  C   UNL     1      11.813   9.659   4.971  0.00  0.00    +0.179 C 
ATOM     13  C   UNL     1      13.098  10.295   4.445  0.00  0.00    +0.141 C 
ATOM     14  C   UNL     1      12.326  11.061   6.978  0.00  0.00    +0.128 C 
ATOM     15  C   UNL     1      13.746  10.525   6.847  0.00  0.00    +0.128 C 
ATOM     17  C   UNL     1       9.980  10.159   6.562  0.00  0.00    +0.254 C 
ATOM     18  C   UNL     1      15.501  10.198   5.039  0.00  0.00    +0.303 C 
ATOM     35  H   UNL     1      16.134  10.225   7.033  0.00  0.00    +0.150 HD
ENDROOT
BRANCH  17  21
ATOM      1  S   UNL     1       8.953  12.473   7.589  0.00  0.00    -0.092 S 
ATOM     21  C   UNL     1       9.526  10.871   7.753  0.00  0.00    +0.074 A 
ATOM     27  C   UNL     1       9.485  10.429   9.053  0.00  0.00    +0.021 A 
ATOM     28  C   UNL     1       8.973  11.424   9.935  0.00  0.00    +0.008 A 
ATOM     29  C   UNL     1       8.645  12.585   9.270  0.00  0.00    +0.046 A 
ENDBRANCH  17  21
BRANCH  12  16
ATOM      2  O   UNL     1      12.915   7.780   5.955  0.00  0.00    -0.274 OA
ATOM      8  N   UNL     1      11.065   7.414   4.591  0.00  0.00    -0.302 N 
ATOM     16  C   UNL     1      12.003   8.194   5.244  0.00  0.00    +0.236 C 
ATOM     34  H   UNL     1      10.379   7.862   3.989  0.00  0.00    +0.150 HD
BRANCH   8  19
ATOM     19  C   UNL     1      11.043   5.971   4.670  0.00  0.00    +0.163 C 
BRANCH  19  23
ATOM      5  O   UNL     1      11.678   6.156   2.331  0.00  0.00    -0.274 OA
ATOM     10  N   UNL     1      11.303   4.065   3.205  0.00  0.00    -0.328 N 
ATOM     23  C   UNL     1      11.360   5.441   3.279  0.00  0.00    +0.231 C 
ATOM     36  H   UNL     1      11.042   3.486   3.997  0.00  0.00    +0.145 HD
ATOM     37  H   UNL     1      11.509   3.582   2.338  0.00  0.00    +0.145 HD
ENDBRANCH  19  23
BRANCH  19  20
ATOM     20  C   UNL     1       9.687   5.437   5.148  0.00  0.00    +0.068 C 
BRANCH  20  24
ATOM     11  N   UNL     1       9.897   4.037   8.640  0.00  0.00    -0.263 NA
ATOM     24  C   UNL     1       9.595   5.344   6.651  0.00  0.00    -0.027 A 
ATOM     30  C   UNL     1       9.143   6.419   7.388  0.00  0.00    +0.006 A 
ATOM     31  C   UNL     1       9.958   4.186   7.298  0.00  0.00    +0.114 A 
ATOM     32  C   UNL     1       9.068   6.304   8.771  0.00  0.00    +0.020 A 
ATOM     33  C   UNL     1       9.452   5.102   9.344  0.00  0.00    +0.111 A 
ENDBRANCH  20  24
ENDBRANCH  19  20
ENDBRANCH   8  19
ENDBRANCH  12  16
BRANCH   9  22
ATOM     22  C   UNL     1      17.856  10.108   5.824  0.00  0.00    +0.068 C 
ATOM     25  C   UNL     1      18.632  11.182   6.575  0.00  0.00    +0.027 C 
ATOM     26  C   UNL     1      18.329   8.713   6.211  0.00  0.00    +0.027 C 
ENDBRANCH   9  22
TORSDOF 7
ENDMDL
