MODEL 1
REMARK VINA RESULT:      -7.4      0.000      0.000
REMARK  Name = 45783753
REMARK  4 active torsions:
REMARK  status: ('A' for Active; 'I' for Inactive)
REMARK    1  A    between atoms: N_2  and  C_14
REMARK    2  A    between atoms: C_10  and  C_15
REMARK    3  A    between atoms: C_14  and  C_16
REMARK    4  A    between atoms: C_17  and  C_20
REMARK                            x       y       z     vdW  Elec       q    Type
REMARK                         _______ _______ _______ _____ _____    ______ ____
ROOT
ATOM      1  O   UNL     1      16.616   5.773  18.737  0.00  0.00    -0.336 OA
ATOM      3  N   UNL     1      17.050   7.201  20.406  0.00  0.00    -0.190 NA
ATOM      6  N   UNL     1      17.958   5.571  19.082  0.00  0.00    -0.056 NA
ATOM     15  C   UNL     1      16.156   6.749  19.563  0.00  0.00    +0.245 A 
ATOM     17  C   UNL     1      18.139   6.449  20.073  0.00  0.00    +0.207 A 
ENDROOT
BRANCH  17  20
ATOM      7  N   UNL     1      21.591   5.813  21.342  0.00  0.00    -0.220 NA
ATOM      8  N   UNL     1      20.214   4.485  19.950  0.00  0.00    -0.342 N 
ATOM      9  N   UNL     1      20.810   7.939  22.166  0.00  0.00    -0.243 NA
ATOM     20  C   UNL     1      19.395   6.602  20.751  0.00  0.00    +0.080 A 
ATOM     21  C   UNL     1      20.409   5.668  20.705  0.00  0.00    +0.130 A 
ATOM     22  C   UNL     1      19.653   7.729  21.504  0.00  0.00    +0.127 A 
ATOM     23  C   UNL     1      21.720   6.955  22.044  0.00  0.00    +0.223 A 
ATOM     25  H   UNL     1      20.986   3.831  19.933  0.00  0.00    +0.144 HD
ATOM     26  H   UNL     1      19.280   4.100  19.878  0.00  0.00    +0.144 HD
ENDBRANCH  17  20
BRANCH  15  10
ATOM      2  N   UNL     1      14.368   8.382  20.135  0.00  0.00    -0.284 NA
ATOM     10  C   UNL     1      14.708   7.154  19.388  0.00  0.00    +0.146 C 
ATOM     11  C   UNL     1      14.354   7.475  17.925  0.00  0.00    +0.030 C 
ATOM     12  C   UNL     1      13.767   8.878  17.956  0.00  0.00    +0.017 C 
ATOM     13  C   UNL     1      13.293   9.036  19.388  0.00  0.00    +0.085 C 
BRANCH   2  14
ATOM     14  C   UNL     1      13.997   8.127  21.520  0.00  0.00    +0.159 C 
BRANCH  14  16
ATOM      4  N   UNL     1      12.447   6.167  21.347  0.00  0.00    -0.347 N 
ATOM      5  N   UNL     1      11.516   8.080  21.984  0.00  0.00    -0.239 NA
ATOM     16  C   UNL     1      12.637   7.490  21.628  0.00  0.00    +0.121 A 
ATOM     18  C   UNL     1      11.120   5.893  21.534  0.00  0.00    +0.104 A 
ATOM     19  C   UNL     1      10.568   7.090  21.927  0.00  0.00    +0.130 A 
ATOM     24  H   UNL     1      13.155   5.509  21.050  0.00  0.00    +0.167 HD
ENDBRANCH  14  16
ENDBRANCH   2  14
ENDBRANCH  15  10
TORSDOF 4
ENDMDL
MODEL 2
REMARK VINA RESULT:      -7.2      1.799      2.270
REMARK  Name = 45783753
REMARK  4 active torsions:
REMARK  status: ('A' for Active; 'I' for Inactive)
REMARK    1  A    between atoms: N_2  and  C_14
REMARK    2  A    between atoms: C_10  and  C_15
REMARK    3  A    between atoms: C_14  and  C_16
REMARK    4  A    between atoms: C_17  and  C_20
REMARK                            x       y       z     vdW  Elec       q    Type
REMARK                         _______ _______ _______ _____ _____    ______ ____
ROOT
ATOM      1  O   UNL     1      14.415   6.511  20.445  0.00  0.00    -0.336 OA
ATOM      3  N   UNL     1      16.046   7.449  19.230  0.00  0.00    -0.190 NA
ATOM      6  N   UNL     1      15.595   6.342  21.180  0.00  0.00    -0.056 NA
ATOM     15  C   UNL     1      14.769   7.170  19.311  0.00  0.00    +0.245 A 
ATOM     17  C   UNL     1      16.511   6.921  20.398  0.00  0.00    +0.207 A 
ENDROOT
BRANCH  17  20
ATOM      7  N   UNL     1      20.174   6.225  20.557  0.00  0.00    -0.220 NA
ATOM      8  N   UNL     1      18.484   5.185  19.269  0.00  0.00    -0.342 N 
ATOM      9  N   UNL     1      19.634   8.034  22.054  0.00  0.00    -0.243 NA
ATOM     20  C   UNL     1      17.900   6.988  20.754  0.00  0.00    +0.080 A 
ATOM     21  C   UNL     1      18.868   6.162  20.222  0.00  0.00    +0.130 A 
ATOM     22  C   UNL     1      18.345   7.915  21.674  0.00  0.00    +0.127 A 
ATOM     23  C   UNL     1      20.482   7.171  21.465  0.00  0.00    +0.223 A 
ATOM     25  H   UNL     1      19.225   4.606  18.896  0.00  0.00    +0.144 HD
ATOM     26  H   UNL     1      17.563   4.769  19.341  0.00  0.00    +0.144 HD
ENDBRANCH  17  20
BRANCH  15  10
ATOM      2  N   UNL     1      12.801   8.598  18.782  0.00  0.00    -0.284 NA
ATOM     10  C   UNL     1      13.653   7.479  18.334  0.00  0.00    +0.146 C 
ATOM     11  C   UNL     1      14.177   7.914  16.954  0.00  0.00    +0.030 C 
ATOM     12  C   UNL     1      13.518   9.259  16.683  0.00  0.00    +0.017 C 
ATOM     13  C   UNL     1      12.288   9.238  17.570  0.00  0.00    +0.085 C 
BRANCH   2  14
ATOM     14  C   UNL     1      11.729   8.181  19.677  0.00  0.00    +0.159 C 
BRANCH  14  16
ATOM      4  N   UNL     1      10.524   9.105  21.670  0.00  0.00    -0.347 N 
ATOM      5  N   UNL     1      12.610   9.814  21.387  0.00  0.00    -0.239 NA
ATOM     16  C   UNL     1      11.657   9.045  20.907  0.00  0.00    +0.121 A 
ATOM     18  C   UNL     1      10.769   9.966  22.703  0.00  0.00    +0.104 A 
ATOM     19  C   UNL     1      12.063  10.390  22.506  0.00  0.00    +0.130 A 
ATOM     24  H   UNL     1       9.661   8.607  21.500  0.00  0.00    +0.167 HD
ENDBRANCH  14  16
ENDBRANCH   2  14
ENDBRANCH  15  10
TORSDOF 4
ENDMDL
MODEL 3
REMARK VINA RESULT:      -7.0     30.003     32.693
REMARK  Name = 45783753
REMARK  4 active torsions:
REMARK  status: ('A' for Active; 'I' for Inactive)
REMARK    1  A    between atoms: N_2  and  C_14
REMARK    2  A    between atoms: C_10  and  C_15
REMARK    3  A    between atoms: C_14  and  C_16
REMARK    4  A    between atoms: C_17  and  C_20
REMARK                            x       y       z     vdW  Elec       q    Type
REMARK                         _______ _______ _______ _____ _____    ______ ____
ROOT
ATOM      1  O   UNL     1     -16.675   2.322  23.846  0.00  0.00    -0.336 OA
ATOM      3  N   UNL     1     -15.303   3.949  24.542  0.00  0.00    -0.190 NA
ATOM      6  N   UNL     1     -16.336   3.060  22.705  0.00  0.00    -0.056 NA
ATOM     15  C   UNL     1     -16.026   2.912  24.884  0.00  0.00    +0.245 A 
ATOM     17  C   UNL     1     -15.525   4.001  23.197  0.00  0.00    +0.207 A 
ENDROOT
BRANCH  17  20
ATOM      7  N   UNL     1     -12.992   6.159  21.508  0.00  0.00    -0.220 NA
ATOM      8  N   UNL     1     -12.695   4.384  23.044  0.00  0.00    -0.342 N 
ATOM      9  N   UNL     1     -15.202   6.816  20.809  0.00  0.00    -0.243 NA
ATOM     20  C   UNL     1     -14.921   5.008  22.373  0.00  0.00    +0.080 A 
ATOM     21  C   UNL     1     -13.559   5.211  22.284  0.00  0.00    +0.130 A 
ATOM     22  C   UNL     1     -15.701   5.848  21.605  0.00  0.00    +0.127 A 
ATOM     23  C   UNL     1     -13.860   6.914  20.808  0.00  0.00    +0.223 A 
ATOM     25  H   UNL     1     -11.703   4.559  22.943  0.00  0.00    +0.144 HD
ATOM     26  H   UNL     1     -13.015   4.038  23.941  0.00  0.00    +0.144 HD
ENDBRANCH  17  20
BRANCH  15  10
ATOM      2  N   UNL     1     -17.246   3.004  27.050  0.00  0.00    -0.284 NA
ATOM     10  C   UNL     1     -16.231   2.291  26.249  0.00  0.00    +0.146 C 
ATOM     11  C   UNL     1     -16.743   0.841  26.170  0.00  0.00    +0.030 C 
ATOM     12  C   UNL     1     -18.014   0.821  27.006  0.00  0.00    +0.017 C 
ATOM     13  C   UNL     1     -17.848   2.007  27.936  0.00  0.00    +0.085 C 
BRANCH   2  14
ATOM     14  C   UNL     1     -16.702   4.136  27.788  0.00  0.00    +0.159 C 
BRANCH  14  16
ATOM      4  N   UNL     1     -14.644   3.355  28.984  0.00  0.00    -0.347 N 
ATOM      5  N   UNL     1     -16.461   3.591  30.240  0.00  0.00    -0.239 NA
ATOM     16  C   UNL     1     -15.967   3.698  29.026  0.00  0.00    +0.121 A 
ATOM     18  C   UNL     1     -14.270   3.006  30.252  0.00  0.00    +0.104 A 
ATOM     19  C   UNL     1     -15.409   3.160  31.008  0.00  0.00    +0.130 A 
ATOM     24  H   UNL     1     -14.051   3.355  28.165  0.00  0.00    +0.167 HD
ENDBRANCH  14  16
ENDBRANCH   2  14
ENDBRANCH  15  10
TORSDOF 4
ENDMDL
MODEL 4
REMARK VINA RESULT:      -7.0     15.431     17.958
REMARK  Name = 45783753
REMARK  4 active torsions:
REMARK  status: ('A' for Active; 'I' for Inactive)
REMARK    1  A    between atoms: N_2  and  C_14
REMARK    2  A    between atoms: C_10  and  C_15
REMARK    3  A    between atoms: C_14  and  C_16
REMARK    4  A    between atoms: C_17  and  C_20
REMARK                            x       y       z     vdW  Elec       q    Type
REMARK                         _______ _______ _______ _____ _____    ______ ____
ROOT
ATOM      1  O   UNL     1      11.215   6.828   3.944  0.00  0.00    -0.336 OA
ATOM      3  N   UNL     1      10.657   4.703   3.510  0.00  0.00    -0.190 NA
ATOM      6  N   UNL     1      11.719   6.546   2.668  0.00  0.00    -0.056 NA
ATOM     15  C   UNL     1      10.605   5.690   4.369  0.00  0.00    +0.245 A 
ATOM     17  C   UNL     1      11.349   5.275   2.483  0.00  0.00    +0.207 A 
ENDROOT
BRANCH  17  20
ATOM      7  N   UNL     1      13.139   3.204  -0.054  0.00  0.00    -0.220 NA
ATOM      8  N   UNL     1      13.839   3.924   2.088  0.00  0.00    -0.342 N 
ATOM      9  N   UNL     1      10.963   3.804  -0.896  0.00  0.00    -0.243 NA
ATOM     20  C   UNL     1      11.657   4.547   1.285  0.00  0.00    +0.080 A 
ATOM     21  C   UNL     1      12.850   3.888   1.074  0.00  0.00    +0.130 A 
ATOM     22  C   UNL     1      10.741   4.470   0.256  0.00  0.00    +0.127 A 
ATOM     23  C   UNL     1      12.164   3.203  -0.983  0.00  0.00    +0.223 A 
ATOM     25  H   UNL     1      14.696   3.420   1.898  0.00  0.00    +0.144 HD
ATOM     26  H   UNL     1      13.907   4.747   2.675  0.00  0.00    +0.144 HD
ENDBRANCH  17  20
BRANCH  15  10
ATOM      2  N   UNL     1      10.555   6.785   6.603  0.00  0.00    -0.284 NA
ATOM     10  C   UNL     1       9.970   5.737   5.742  0.00  0.00    +0.146 C 
ATOM     11  C   UNL     1       8.467   6.068   5.689  0.00  0.00    +0.030 C 
ATOM     12  C   UNL     1       8.294   7.277   6.597  0.00  0.00    +0.017 C 
ATOM     13  C   UNL     1       9.495   7.206   7.519  0.00  0.00    +0.085 C 
BRANCH   2  14
ATOM     14  C   UNL     1      11.750   6.344   7.311  0.00  0.00    +0.159 C 
BRANCH  14  16
ATOM      4  N   UNL     1      14.118   6.578   6.530  0.00  0.00    -0.347 N 
ATOM      5  N   UNL     1      13.052   8.478   6.964  0.00  0.00    -0.239 NA
ATOM     16  C   UNL     1      12.956   7.166   6.941  0.00  0.00    +0.121 A 
ATOM     18  C   UNL     1      15.015   7.578   6.272  0.00  0.00    +0.104 A 
ATOM     19  C   UNL     1      14.333   8.740   6.548  0.00  0.00    +0.130 A 
ATOM     24  H   UNL     1      14.288   5.586   6.435  0.00  0.00    +0.167 HD
ENDBRANCH  14  16
ENDBRANCH   2  14
ENDBRANCH  15  10
TORSDOF 4
ENDMDL
MODEL 5
REMARK VINA RESULT:      -6.9     25.935     29.039
REMARK  Name = 45783753
REMARK  4 active torsions:
REMARK  status: ('A' for Active; 'I' for Inactive)
REMARK    1  A    between atoms: N_2  and  C_14
REMARK    2  A    between atoms: C_10  and  C_15
REMARK    3  A    between atoms: C_14  and  C_16
REMARK    4  A    between atoms: C_17  and  C_20
REMARK                            x       y       z     vdW  Elec       q    Type
REMARK                         _______ _______ _______ _____ _____    ______ ____
ROOT
ATOM      1  O   UNL     1      -5.207  -9.674  15.670  0.00  0.00    -0.336 OA
ATOM      3  N   UNL     1      -5.379 -11.548  16.884  0.00  0.00    -0.190 NA
ATOM      6  N   UNL     1      -6.421  -9.580  16.362  0.00  0.00    -0.056 NA
ATOM     15  C   UNL     1      -4.657 -10.863  16.033  0.00  0.00    +0.245 A 
ATOM     17  C   UNL     1      -6.450 -10.721  17.056  0.00  0.00    +0.207 A 
ENDROOT
BRANCH  17  20
ATOM      7  N   UNL     1      -8.609 -11.047  20.083  0.00  0.00    -0.220 NA
ATOM      8  N   UNL     1      -6.514  -9.980  19.817  0.00  0.00    -0.342 N 
ATOM      9  N   UNL     1      -9.668 -12.146  18.218  0.00  0.00    -0.243 NA
ATOM     20  C   UNL     1      -7.536 -11.067  17.929  0.00  0.00    +0.080 A 
ATOM     21  C   UNL     1      -7.587 -10.721  19.263  0.00  0.00    +0.130 A 
ATOM     22  C   UNL     1      -8.614 -11.787  17.456  0.00  0.00    +0.127 A 
ATOM     23  C   UNL     1      -9.600 -11.749  19.502  0.00  0.00    +0.223 A 
ATOM     25  H   UNL     1      -6.595  -9.737  20.797  0.00  0.00    +0.144 HD
ATOM     26  H   UNL     1      -5.580 -10.126  19.453  0.00  0.00    +0.144 HD
ENDBRANCH  17  20
BRANCH  15  10
ATOM      2  N   UNL     1      -3.054 -10.440  14.178  0.00  0.00    -0.284 NA
ATOM     10  C   UNL     1      -3.319 -11.205  15.412  0.00  0.00    +0.146 C 
ATOM     11  C   UNL     1      -2.134 -10.877  16.339  0.00  0.00    +0.030 C 
ATOM     12  C   UNL     1      -1.226  -9.973  15.518  0.00  0.00    +0.017 C 
ATOM     13  C   UNL     1      -1.601 -10.297  14.085  0.00  0.00    +0.085 C 
BRANCH   2  14
ATOM     14  C   UNL     1      -3.621 -11.058  12.986  0.00  0.00    +0.159 C 
BRANCH  14  16
ATOM      4  N   UNL     1      -5.682  -9.666  12.683  0.00  0.00    -0.347 N 
ATOM      5  N   UNL     1      -4.197  -9.564  11.035  0.00  0.00    -0.239 NA
ATOM     16  C   UNL     1      -4.475 -10.094  12.206  0.00  0.00    +0.121 A 
ATOM     18  C   UNL     1      -6.208  -8.809  11.757  0.00  0.00    +0.104 A 
ATOM     19  C   UNL     1      -5.273  -8.764  10.750  0.00  0.00    +0.130 A 
ATOM     24  H   UNL     1      -6.111  -9.936  13.558  0.00  0.00    +0.167 HD
ENDBRANCH  14  16
ENDBRANCH   2  14
ENDBRANCH  15  10
TORSDOF 4
ENDMDL
MODEL 6
REMARK VINA RESULT:      -6.8      4.582      6.844
REMARK  Name = 45783753
REMARK  4 active torsions:
REMARK  status: ('A' for Active; 'I' for Inactive)
REMARK    1  A    between atoms: N_2  and  C_14
REMARK    2  A    between atoms: C_10  and  C_15
REMARK    3  A    between atoms: C_14  and  C_16
REMARK    4  A    between atoms: C_17  and  C_20
REMARK                            x       y       z     vdW  Elec       q    Type
REMARK                         _______ _______ _______ _____ _____    ______ ____
ROOT
ATOM      1  O   UNL     1      13.702   8.424  16.370  0.00  0.00    -0.336 OA
ATOM      3  N   UNL     1      14.645  10.378  16.924  0.00  0.00    -0.190 NA
ATOM      6  N   UNL     1      13.998   9.069  15.163  0.00  0.00    -0.056 NA
ATOM     15  C   UNL     1      14.114   9.262  17.357  0.00  0.00    +0.245 A 
ATOM     17  C   UNL     1      14.552  10.214  15.573  0.00  0.00    +0.207 A 
ENDROOT
BRANCH  17  20
ATOM      7  N   UNL     1      14.632  13.001  13.091  0.00  0.00    -0.220 NA
ATOM      8  N   UNL     1      12.788  11.937  14.125  0.00  0.00    -0.342 N 
ATOM      9  N   UNL     1      16.884  12.311  13.598  0.00  0.00    -0.243 NA
ATOM     20  C   UNL     1      15.022  11.216  14.659  0.00  0.00    +0.080 A 
ATOM     21  C   UNL     1      14.189  12.058  13.951  0.00  0.00    +0.130 A 
ATOM     22  C   UNL     1      16.373  11.390  14.441  0.00  0.00    +0.127 A 
ATOM     23  C   UNL     1      15.971  13.070  12.966  0.00  0.00    +0.223 A 
ATOM     25  H   UNL     1      12.213  12.580  13.595  0.00  0.00    +0.144 HD
ATOM     26  H   UNL     1      12.398  11.024  14.325  0.00  0.00    +0.144 HD
ENDBRANCH  17  20
BRANCH  15  10
ATOM      2  N   UNL     1      12.814   7.795  18.889  0.00  0.00    -0.284 NA
ATOM     10  C   UNL     1      13.902   8.787  18.779  0.00  0.00    +0.146 C 
ATOM     11  C   UNL     1      15.140   8.077  19.357  0.00  0.00    +0.030 C 
ATOM     12  C   UNL     1      14.637   6.718  19.823  0.00  0.00    +0.017 C 
ATOM     13  C   UNL     1      13.151   6.938  20.026  0.00  0.00    +0.085 C 
BRANCH   2  14
ATOM     14  C   UNL     1      11.497   8.402  19.032  0.00  0.00    +0.159 C 
BRANCH  14  16
ATOM      4  N   UNL     1      10.494   8.062  21.302  0.00  0.00    -0.347 N 
ATOM      5  N   UNL     1      11.636   9.946  21.023  0.00  0.00    -0.239 NA
ATOM     16  C   UNL     1      11.229   8.835  20.448  0.00  0.00    +0.121 A 
ATOM     18  C   UNL     1      10.428   8.720  22.498  0.00  0.00    +0.104 A 
ATOM     19  C   UNL     1      11.140   9.879  22.300  0.00  0.00    +0.130 A 
ATOM     24  H   UNL     1      10.072   7.168  21.089  0.00  0.00    +0.167 HD
ENDBRANCH  14  16
ENDBRANCH   2  14
ENDBRANCH  15  10
TORSDOF 4
ENDMDL
MODEL 7
REMARK VINA RESULT:      -6.8      3.647      7.221
REMARK  Name = 45783753
REMARK  4 active torsions:
REMARK  status: ('A' for Active; 'I' for Inactive)
REMARK    1  A    between atoms: N_2  and  C_14
REMARK    2  A    between atoms: C_10  and  C_15
REMARK    3  A    between atoms: C_14  and  C_16
REMARK    4  A    between atoms: C_17  and  C_20
REMARK                            x       y       z     vdW  Elec       q    Type
REMARK                         _______ _______ _______ _____ _____    ______ ____
ROOT
ATOM      1  O   UNL     1      12.867   9.313  20.037  0.00  0.00    -0.336 OA
ATOM      3  N   UNL     1      13.292   8.817  22.179  0.00  0.00    -0.190 NA
ATOM      6  N   UNL     1      12.306  10.348  20.795  0.00  0.00    -0.056 NA
ATOM     15  C   UNL     1      13.427   8.453  20.929  0.00  0.00    +0.245 A 
ATOM     17  C   UNL     1      12.599   9.985  22.047  0.00  0.00    +0.207 A 
ENDROOT
BRANCH  17  20
ATOM      7  N   UNL     1      12.719  11.884  25.257  0.00  0.00    -0.220 NA
ATOM      8  N   UNL     1      14.445  10.765  24.087  0.00  0.00    -0.342 N 
ATOM      9  N   UNL     1      10.470  11.909  24.393  0.00  0.00    -0.243 NA
ATOM     20  C   UNL     1      12.212  10.764  23.188  0.00  0.00    +0.080 A 
ATOM     21  C   UNL     1      13.085  11.151  24.184  0.00  0.00    +0.130 A 
ATOM     22  C   UNL     1      10.904  11.175  23.347  0.00  0.00    +0.127 A 
ATOM     23  C   UNL     1      11.417  12.222  25.297  0.00  0.00    +0.223 A 
ATOM     25  H   UNL     1      15.054  11.078  24.833  0.00  0.00    +0.144 HD
ATOM     26  H   UNL     1      14.671   9.883  23.644  0.00  0.00    +0.144 HD
ENDBRANCH  17  20
BRANCH  15  10
ATOM      2  N   UNL     1      14.787   7.512  19.070  0.00  0.00    -0.284 NA
ATOM     10  C   UNL     1      14.109   7.231  20.351  0.00  0.00    +0.146 C 
ATOM     11  C   UNL     1      15.217   6.681  21.269  0.00  0.00    +0.030 C 
ATOM     12  C   UNL     1      16.465   6.632  20.399  0.00  0.00    +0.017 C 
ATOM     13  C   UNL     1      15.915   6.583  18.987  0.00  0.00    +0.085 C 
BRANCH   2  14
ATOM     14  C   UNL     1      13.903   7.406  17.917  0.00  0.00    +0.159 C 
BRANCH  14  16
ATOM      4  N   UNL     1      14.518   9.800  17.510  0.00  0.00    -0.347 N 
ATOM      5  N   UNL     1      13.474   8.773  15.840  0.00  0.00    -0.239 NA
ATOM     16  C   UNL     1      13.948   8.642  17.060  0.00  0.00    +0.121 A 
ATOM     18  C   UNL     1      14.402  10.729  16.514  0.00  0.00    +0.104 A 
ATOM     19  C   UNL     1      13.754  10.071  15.494  0.00  0.00    +0.130 A 
ATOM     24  H   UNL     1      14.945   9.946  18.415  0.00  0.00    +0.167 HD
ENDBRANCH  14  16
ENDBRANCH   2  14
ENDBRANCH  15  10
TORSDOF 4
ENDMDL
MODEL 8
REMARK VINA RESULT:      -6.7     26.919     28.976
REMARK  Name = 45783753
REMARK  4 active torsions:
REMARK  status: ('A' for Active; 'I' for Inactive)
REMARK    1  A    between atoms: N_2  and  C_14
REMARK    2  A    between atoms: C_10  and  C_15
REMARK    3  A    between atoms: C_14  and  C_16
REMARK    4  A    between atoms: C_17  and  C_20
REMARK                            x       y       z     vdW  Elec       q    Type
REMARK                         _______ _______ _______ _____ _____    ______ ____
ROOT
ATOM      1  O   UNL     1      -1.620 -11.190  15.206  0.00  0.00    -0.336 OA
ATOM      3  N   UNL     1      -3.671 -12.087  15.247  0.00  0.00    -0.190 NA
ATOM      6  N   UNL     1      -2.239 -10.692  16.359  0.00  0.00    -0.056 NA
ATOM     15  C   UNL     1      -2.531 -12.002  14.608  0.00  0.00    +0.245 A 
ATOM     17  C   UNL     1      -3.444 -11.267  16.314  0.00  0.00    +0.207 A 
ENDROOT
BRANCH  17  20
ATOM      7  N   UNL     1      -6.454  -9.970  18.099  0.00  0.00    -0.220 NA
ATOM      8  N   UNL     1      -5.637  -9.470  15.936  0.00  0.00    -0.342 N 
ATOM      9  N   UNL     1      -5.294 -11.538  19.514  0.00  0.00    -0.243 NA
ATOM     20  C   UNL     1      -4.446 -11.042  17.316  0.00  0.00    +0.080 A 
ATOM     21  C   UNL     1      -5.512 -10.181  17.156  0.00  0.00    +0.130 A 
ATOM     22  C   UNL     1      -4.388 -11.701  18.527  0.00  0.00    +0.127 A 
ATOM     23  C   UNL     1      -6.285 -10.671  19.237  0.00  0.00    +0.223 A 
ATOM     25  H   UNL     1      -6.438  -8.856  15.855  0.00  0.00    +0.144 HD
ATOM     26  H   UNL     1      -4.796  -9.202  15.438  0.00  0.00    +0.144 HD
ENDBRANCH  17  20
BRANCH  15  10
ATOM      2  N   UNL     1      -2.583 -14.063  13.216  0.00  0.00    -0.284 NA
ATOM     10  C   UNL     1      -2.097 -12.673  13.322  0.00  0.00    +0.146 C 
ATOM     11  C   UNL     1      -2.649 -11.968  12.070  0.00  0.00    +0.030 C 
ATOM     12  C   UNL     1      -3.377 -13.054  11.291  0.00  0.00    +0.017 C 
ATOM     13  C   UNL     1      -2.740 -14.337  11.787  0.00  0.00    +0.085 C 
BRANCH   2  14
ATOM     14  C   UNL     1      -1.706 -15.028  13.866  0.00  0.00    +0.159 C 
BRANCH  14  16
ATOM      4  N   UNL     1      -3.498 -15.315  15.594  0.00  0.00    -0.347 N 
ATOM      5  N   UNL     1      -2.165 -17.065  15.284  0.00  0.00    -0.239 NA
ATOM     16  C   UNL     1      -2.434 -15.833  14.909  0.00  0.00    +0.121 A 
ATOM     18  C   UNL     1      -3.936 -16.277  16.460  0.00  0.00    +0.104 A 
ATOM     19  C   UNL     1      -3.097 -17.347  16.250  0.00  0.00    +0.130 A 
ATOM     24  H   UNL     1      -3.888 -14.389  15.483  0.00  0.00    +0.167 HD
ENDBRANCH  14  16
ENDBRANCH   2  14
ENDBRANCH  15  10
TORSDOF 4
ENDMDL
MODEL 9
REMARK VINA RESULT:      -6.5     15.493     17.730
REMARK  Name = 45783753
REMARK  4 active torsions:
REMARK  status: ('A' for Active; 'I' for Inactive)
REMARK    1  A    between atoms: N_2  and  C_14
REMARK    2  A    between atoms: C_10  and  C_15
REMARK    3  A    between atoms: C_14  and  C_16
REMARK    4  A    between atoms: C_17  and  C_20
REMARK                            x       y       z     vdW  Elec       q    Type
REMARK                         _______ _______ _______ _____ _____    ______ ____
ROOT
ATOM      1  O   UNL     1      10.242   4.372   4.605  0.00  0.00    -0.336 OA
ATOM      3  N   UNL     1      10.592   6.133   3.266  0.00  0.00    -0.190 NA
ATOM      6  N   UNL     1      10.957   3.887   3.503  0.00  0.00    -0.056 NA
ATOM     15  C   UNL     1      10.068   5.702   4.386  0.00  0.00    +0.245 A 
ATOM     17  C   UNL     1      11.126   4.984   2.759  0.00  0.00    +0.207 A 
ENDROOT
BRANCH  17  20
ATOM      7  N   UNL     1      11.866   4.701  -0.888  0.00  0.00    -0.220 NA
ATOM      8  N   UNL     1       9.818   4.457   0.272  0.00  0.00    -0.342 N 
ATOM      9  N   UNL     1      13.895   5.213   0.306  0.00  0.00    -0.243 NA
ATOM     20  C   UNL     1      11.821   4.967   1.504  0.00  0.00    +0.080 A 
ATOM     21  C   UNL     1      11.211   4.716   0.293  0.00  0.00    +0.130 A 
ATOM     22  C   UNL     1      13.178   5.212   1.450  0.00  0.00    +0.127 A 
ATOM     23  C   UNL     1      13.186   4.953  -0.808  0.00  0.00    +0.223 A 
ATOM     25  H   UNL     1       9.407   4.287  -0.638  0.00  0.00    +0.144 HD
ATOM     26  H   UNL     1       9.396   3.988   1.064  0.00  0.00    +0.144 HD
ENDBRANCH  17  20
BRANCH  15  10
ATOM      2  N   UNL     1      10.118   7.548   6.053  0.00  0.00    -0.284 NA
ATOM     10  C   UNL     1       9.312   6.468   5.451  0.00  0.00    +0.146 C 
ATOM     11  C   UNL     1       8.061   7.175   4.897  0.00  0.00    +0.030 C 
ATOM     12  C   UNL     1       8.224   8.636   5.290  0.00  0.00    +0.017 C 
ATOM     13  C   UNL     1       9.174   8.585   6.470  0.00  0.00    +0.085 C 
BRANCH   2  14
ATOM     14  C   UNL     1      10.955   7.093   7.156  0.00  0.00    +0.159 C 
BRANCH  14  16
ATOM      4  N   UNL     1      10.574   4.721   7.866  0.00  0.00    -0.347 N 
ATOM      5  N   UNL     1       9.328   6.248   8.890  0.00  0.00    -0.239 NA
ATOM     16  C   UNL     1      10.264   6.046   7.989  0.00  0.00    +0.121 A 
ATOM     18  C   UNL     1       9.786   4.032   8.746  0.00  0.00    +0.104 A 
ATOM     19  C   UNL     1       9.026   4.997   9.365  0.00  0.00    +0.130 A 
ATOM     24  H   UNL     1      11.258   4.321   7.239  0.00  0.00    +0.167 HD
ENDBRANCH  14  16
ENDBRANCH   2  14
ENDBRANCH  15  10
TORSDOF 4
ENDMDL
MODEL 10
REMARK VINA RESULT:      -6.4     26.748     28.826
REMARK  Name = 45783753
REMARK  4 active torsions:
REMARK  status: ('A' for Active; 'I' for Inactive)
REMARK    1  A    between atoms: N_2  and  C_14
REMARK    2  A    between atoms: C_10  and  C_15
REMARK    3  A    between atoms: C_14  and  C_16
REMARK    4  A    between atoms: C_17  and  C_20
REMARK                            x       y       z     vdW  Elec       q    Type
REMARK                         _______ _______ _______ _____ _____    ______ ____
ROOT
ATOM      1  O   UNL     1      -4.593 -12.299  16.480  0.00  0.00    -0.336 OA
ATOM      3  N   UNL     1      -4.693 -10.230  15.628  0.00  0.00    -0.190 NA
ATOM      6  N   UNL     1      -3.988 -12.368  15.219  0.00  0.00    -0.056 NA
ATOM     15  C   UNL     1      -4.980 -11.007  16.643  0.00  0.00    +0.245 A 
ATOM     17  C   UNL     1      -4.086 -11.109  14.780  0.00  0.00    +0.207 A 
ENDROOT
BRANCH  17  20
ATOM      7  N   UNL     1      -3.931 -10.013  11.216  0.00  0.00    -0.220 NA
ATOM      8  N   UNL     1      -5.804 -10.506  12.575  0.00  0.00    -0.342 N 
ATOM      9  N   UNL     1      -1.696 -10.190  12.101  0.00  0.00    -0.243 NA
ATOM     20  C   UNL     1      -3.589 -10.697  13.498  0.00  0.00    +0.080 A 
ATOM     21  C   UNL     1      -4.399 -10.401  12.421  0.00  0.00    +0.130 A 
ATOM     22  C   UNL     1      -2.233 -10.572  13.278  0.00  0.00    +0.127 A 
ATOM     23  C   UNL     1      -2.589  -9.930  11.128  0.00  0.00    +0.223 A 
ATOM     25  H   UNL     1      -6.362 -10.271  11.764  0.00  0.00    +0.144 HD
ATOM     26  H   UNL     1      -6.175 -11.207  13.204  0.00  0.00    +0.144 HD
ENDBRANCH  17  20
BRANCH  15  10
ATOM      2  N   UNL     1      -7.136 -10.573  17.808  0.00  0.00    -0.284 NA
ATOM     10  C   UNL     1      -5.669 -10.668  17.948  0.00  0.00    +0.146 C 
ATOM     11  C   UNL     1      -5.448 -11.740  19.031  0.00  0.00    +0.030 C 
ATOM     12  C   UNL     1      -6.844 -12.143  19.483  0.00  0.00    +0.017 C 
ATOM     13  C   UNL     1      -7.700 -10.950  19.104  0.00  0.00    +0.085 C 
BRANCH   2  14
ATOM     14  C   UNL     1      -7.587  -9.257  17.375  0.00  0.00    +0.159 C 
BRANCH  14  16
ATOM      4  N   UNL     1      -7.928  -9.495  14.905  0.00  0.00    -0.347 N 
ATOM      5  N   UNL     1      -9.774  -9.269  16.118  0.00  0.00    -0.239 NA
ATOM     16  C   UNL     1      -8.462  -9.337  16.153  0.00  0.00    +0.121 A 
ATOM     18  C   UNL     1      -8.966  -9.531  14.016  0.00  0.00    +0.104 A 
ATOM     19  C   UNL     1     -10.094  -9.389  14.789  0.00  0.00    +0.130 A 
ATOM     24  H   UNL     1      -6.945  -9.569  14.678  0.00  0.00    +0.167 HD
ENDBRANCH  14  16
ENDBRANCH   2  14
ENDBRANCH  15  10
TORSDOF 4
ENDMDL
