REMARK  Name = 45783998
REMARK  12 active torsions:
REMARK  status: ('A' for Active; 'I' for Inactive)
REMARK    1  A    between atoms: O_1  and  C_21
REMARK    2  A    between atoms: N_3  and  C_11
REMARK    3  A    between atoms: C_6  and  C_10
REMARK    4  A    between atoms: C_7  and  C_11
REMARK    5  A    between atoms: C_9  and  C_14
REMARK    6  A    between atoms: C_10  and  C_17
REMARK    7  A    between atoms: C_10  and  C_18
REMARK    8  A    between atoms: C_13  and  C_22
REMARK    9  A    between atoms: C_14  and  C_23
REMARK   10  A    between atoms: C_24  and  C_25
REMARK   11  A    between atoms: C_25  and  C_26
REMARK   12  A    between atoms: C_26  and  C_27
REMARK                            x       y       z     vdW  Elec       q    Type
REMARK                         _______ _______ _______ _____ _____    ______ ____
ROOT
ATOM      6  C   UNL     1       0.674   1.746  -0.688  0.00  0.00    +0.000 C 
ATOM      7  C   UNL     1       0.809   1.575   0.843  0.00  0.00    +0.029 C 
ATOM      8  C   UNL     1      -0.724   1.315  -1.156  0.00  0.00    +0.012 C 
ATOM      9  C   UNL     1      -1.866   2.077  -0.451  0.00  0.00    +0.024 C 
ATOM     12  C   UNL     1      -0.404   2.069   1.590  0.00  0.00    -0.023 C 
ATOM     13  C   UNL     1      -1.603   2.311   1.029  0.00  0.00    -0.073 C 
ATOM     22  C   UNL     1      -2.723   2.885   1.852  0.00  0.00    +0.039 C 
ENDROOT
BRANCH   6  10
ATOM     10  C   UNL     1       0.984   3.185  -1.120  0.00  0.00    -0.013 C 
ATOM     17  C   UNL     1       0.438   3.450  -2.519  0.00  0.00    +0.007 C 
ATOM     18  C   UNL     1       2.487   3.444  -1.069  0.00  0.00    +0.007 C 
ENDBRANCH   6  10
BRANCH   7  11
ATOM     11  C   UNL     1       1.079   0.117   1.229  0.00  0.00    +0.092 C 
BRANCH  11   3
ATOM      3  N   UNL     1       2.266  -0.388   0.539  0.00  0.00    -0.302 NA
ATOM     15  C   UNL     1       3.487   0.144   1.161  0.00  0.00    +0.087 C 
ATOM     16  C   UNL     1       2.269  -1.858   0.531  0.00  0.00    +0.087 C 
ATOM     19  C   UNL     1       4.735  -0.336   0.420  0.00  0.00    +0.046 C 
ATOM     20  C   UNL     1       3.478  -2.401  -0.230  0.00  0.00    +0.046 C 
ATOM     21  C   UNL     1       4.784  -1.859   0.344  0.00  0.00    +0.117 C 
BRANCH  21   1
ATOM      1  O   UNL     1       5.861  -2.270  -0.488  0.00  0.00    -0.392 OA
ATOM     28  H   UNL     1       6.679  -1.905  -0.110  0.00  0.00    +0.210 HD
ENDBRANCH  21   1
ENDBRANCH  11   3
ENDBRANCH   7  11
BRANCH   9  14
ATOM     14  C   UNL     1      -3.183   1.336  -0.713  0.00  0.00    +0.105 C 
BRANCH  14  23
ATOM      2  O   UNL     1      -3.369  -1.092  -0.873  0.00  0.00    -0.425 OA
ATOM      4  N   UNL     1      -3.050  -0.334   1.207  0.00  0.00    -0.112 NA
ATOM      5  N   UNL     1      -3.135  -1.712   1.263  0.00  0.00    -0.112 NA
ATOM     23  C   UNL     1      -3.191  -0.016  -0.059  0.00  0.00    +0.218 A 
ATOM     24  C   UNL     1      -3.322  -2.112   0.027  0.00  0.00    +0.217 A 
BRANCH  24  25
ATOM     25  C   UNL     1      -3.479  -3.472  -0.503  0.00  0.00    +0.097 C 
BRANCH  25  26
ATOM     26  C   UNL     1      -2.143  -4.237  -0.610  0.00  0.00    +0.006 C 
ATOM     27  C   UNL     1      -1.157  -3.570  -1.556  0.00  0.00    +0.004 C 
ENDBRANCH  25  26
ENDBRANCH  24  25
ENDBRANCH  14  23
ENDBRANCH   9  14
TORSDOF 8
