MODEL 1
REMARK VINA RESULT:      -7.2      0.000      0.000
REMARK  Name = 45783651
REMARK  5 active torsions:
REMARK  status: ('A' for Active; 'I' for Inactive)
REMARK    1  A    between atoms: N_3  and  C_10
REMARK    2  A    between atoms: N_8  and  C_27
REMARK    3  A    between atoms: C_11  and  C_19
REMARK    4  A    between atoms: C_20  and  C_21
REMARK    5  A    between atoms: C_22  and  C_23
REMARK                            x       y       z     vdW  Elec       q    Type
REMARK                         _______ _______ _______ _____ _____    ______ ____
ROOT
ATOM      1  O   UNL     1      13.854   7.130  19.660  0.00  0.00    -0.336 OA
ATOM      5  N   UNL     1      15.688   8.402  19.847  0.00  0.00    -0.190 NA
ATOM      6  N   UNL     1      14.922   6.246  19.860  0.00  0.00    -0.056 NA
ATOM     19  C   UNL     1      14.391   8.377  19.666  0.00  0.00    +0.245 A 
ATOM     22  C   UNL     1      15.969   7.071  19.961  0.00  0.00    +0.204 A 
ENDROOT
BRANCH  22  23
ATOM      7  N   UNL     1      19.095   5.104  19.534  0.00  0.00    -0.237 NA
ATOM     23  C   UNL     1      17.307   6.599  20.174  0.00  0.00    +0.041 A 
ATOM     24  C   UNL     1      18.103   7.133  21.181  0.00  0.00    +0.017 A 
ATOM     25  C   UNL     1      17.844   5.595  19.386  0.00  0.00    +0.124 A 
ATOM     26  C   UNL     1      19.396   6.654  21.365  0.00  0.00    +0.047 A 
ATOM     27  C   UNL     1      19.840   5.647  20.522  0.00  0.00    +0.139 A 
BRANCH  27   8
ATOM      8  N   UNL     1      21.128   5.166  20.702  0.00  0.00    -0.290 N 
ATOM      9  N   UNL     1      22.773   3.768  21.221  0.00  0.00    -0.244 NA
ATOM     28  C   UNL     1      22.288   5.844  20.450  0.00  0.00    +0.114 A 
ATOM     29  C   UNL     1      21.469   3.925  21.162  0.00  0.00    +0.205 A 
ATOM     30  C   UNL     1      23.290   4.961  20.779  0.00  0.00    +0.130 A 
ENDBRANCH  27   8
ENDBRANCH  22  23
BRANCH  19  11
ATOM      3  N   UNL     1      13.749  10.691  20.318  0.00  0.00    -0.288 NA
ATOM     11  C   UNL     1      13.428   9.528  19.467  0.00  0.00    +0.146 C 
ATOM     12  C   UNL     1      13.286  11.875  19.593  0.00  0.00    +0.085 C 
ATOM     13  C   UNL     1      13.448  10.078  18.029  0.00  0.00    +0.030 C 
ATOM     16  C   UNL     1      13.728  11.567  18.176  0.00  0.00    +0.017 C 
BRANCH   3  10
ATOM      2  O   UNL     1       9.864  12.997  24.488  0.00  0.00    -0.276 OA
ATOM      4  N   UNL     1      11.778  11.831  23.878  0.00  0.00    -0.302 N 
ATOM     10  C   UNL     1      13.168  10.603  21.655  0.00  0.00    +0.060 C 
ATOM     14  C   UNL     1      13.874  11.581  22.602  0.00  0.00    +0.038 C 
ATOM     15  C   UNL     1      11.664  10.905  21.597  0.00  0.00    +0.038 C 
ATOM     17  C   UNL     1      13.220  11.575  23.984  0.00  0.00    +0.109 C 
ATOM     18  C   UNL     1      11.055  10.912  22.997  0.00  0.00    +0.109 C 
ATOM     20  C   UNL     1      11.083  12.824  24.567  0.00  0.00    +0.212 C 
ATOM     21  C   UNL     1      11.899  13.733  25.451  0.00  0.00    +0.109 C 
ENDBRANCH   3  10
ENDBRANCH  19  11
TORSDOF 4
ENDMDL
MODEL 2
REMARK VINA RESULT:      -6.9     28.923     31.938
REMARK  Name = 45783651
REMARK  5 active torsions:
REMARK  status: ('A' for Active; 'I' for Inactive)
REMARK    1  A    between atoms: N_3  and  C_10
REMARK    2  A    between atoms: N_8  and  C_27
REMARK    3  A    between atoms: C_11  and  C_19
REMARK    4  A    between atoms: C_20  and  C_21
REMARK    5  A    between atoms: C_22  and  C_23
REMARK                            x       y       z     vdW  Elec       q    Type
REMARK                         _______ _______ _______ _____ _____    ______ ____
ROOT
ATOM      1  O   UNL     1      -9.815 -11.352  17.358  0.00  0.00    -0.336 OA
ATOM      5  N   UNL     1      -8.848  -9.423  16.758  0.00  0.00    -0.190 NA
ATOM      6  N   UNL     1     -10.818 -10.586  16.751  0.00  0.00    -0.056 NA
ATOM     19  C   UNL     1      -8.688 -10.595  17.321  0.00  0.00    +0.245 A 
ATOM     22  C   UNL     1     -10.170  -9.463  16.424  0.00  0.00    +0.204 A 
ENDROOT
BRANCH  22  23
ATOM      7  N   UNL     1     -12.062  -7.538  13.868  0.00  0.00    -0.237 NA
ATOM     23  C   UNL     1     -10.815  -8.363  15.766  0.00  0.00    +0.041 A 
ATOM     24  C   UNL     1     -10.831  -7.095  16.337  0.00  0.00    +0.017 A 
ATOM     25  C   UNL     1     -11.438  -8.530  14.541  0.00  0.00    +0.124 A 
ATOM     26  C   UNL     1     -11.462  -6.048  15.675  0.00  0.00    +0.047 A 
ATOM     27  C   UNL     1     -12.058  -6.320  14.453  0.00  0.00    +0.139 A 
BRANCH  27   8
ATOM      8  N   UNL     1     -12.689  -5.279  13.789  0.00  0.00    -0.290 N 
ATOM      9  N   UNL     1     -12.946  -3.446  12.562  0.00  0.00    -0.244 NA
ATOM     28  C   UNL     1     -14.036  -5.058  13.725  0.00  0.00    +0.114 A 
ATOM     29  C   UNL     1     -12.076  -4.287  13.076  0.00  0.00    +0.205 A 
ATOM     30  C   UNL     1     -14.171  -3.921  12.963  0.00  0.00    +0.130 A 
ENDBRANCH  27   8
ENDBRANCH  22  23
BRANCH  19  11
ATOM      3  N   UNL     1      -6.201 -10.588  17.417  0.00  0.00    -0.288 NA
ATOM     11  C   UNL     1      -7.442 -11.209  17.923  0.00  0.00    +0.146 C 
ATOM     12  C   UNL     1      -5.212 -10.709  18.488  0.00  0.00    +0.085 C 
ATOM     13  C   UNL     1      -7.372 -11.032  19.451  0.00  0.00    +0.030 C 
ATOM     16  C   UNL     1      -6.032 -10.360  19.713  0.00  0.00    +0.017 C 
BRANCH   3  10
ATOM      2  O   UNL     1      -1.457 -12.397  13.950  0.00  0.00    -0.276 OA
ATOM      4  N   UNL     1      -3.628 -11.617  14.227  0.00  0.00    -0.302 N 
ATOM     10  C   UNL     1      -5.733 -11.178  16.166  0.00  0.00    +0.060 C 
ATOM     14  C   UNL     1      -5.291 -10.075  15.196  0.00  0.00    +0.038 C 
ATOM     15  C   UNL     1      -4.573 -12.144  16.441  0.00  0.00    +0.038 C 
ATOM     17  C   UNL     1      -4.708 -10.672  13.915  0.00  0.00    +0.109 C 
ATOM     18  C   UNL     1      -4.005 -12.700  15.137  0.00  0.00    +0.109 C 
ATOM     20  C   UNL     1      -2.338 -11.570  13.700  0.00  0.00    +0.212 C 
ATOM     21  C   UNL     1      -2.027 -10.422  12.773  0.00  0.00    +0.109 C 
ENDBRANCH   3  10
ENDBRANCH  19  11
TORSDOF 4
ENDMDL
MODEL 3
REMARK VINA RESULT:      -6.8      1.733      2.059
REMARK  Name = 45783651
REMARK  5 active torsions:
REMARK  status: ('A' for Active; 'I' for Inactive)
REMARK    1  A    between atoms: N_3  and  C_10
REMARK    2  A    between atoms: N_8  and  C_27
REMARK    3  A    between atoms: C_11  and  C_19
REMARK    4  A    between atoms: C_20  and  C_21
REMARK    5  A    between atoms: C_22  and  C_23
REMARK                            x       y       z     vdW  Elec       q    Type
REMARK                         _______ _______ _______ _____ _____    ______ ____
ROOT
ATOM      1  O   UNL     1      15.089   9.492  20.982  0.00  0.00    -0.336 OA
ATOM      5  N   UNL     1      15.407   7.337  21.500  0.00  0.00    -0.190 NA
ATOM      6  N   UNL     1      16.452   9.241  20.781  0.00  0.00    -0.056 NA
ATOM     19  C   UNL     1      14.548   8.321  21.405  0.00  0.00    +0.245 A 
ATOM     22  C   UNL     1      16.562   7.949  21.107  0.00  0.00    +0.204 A 
ENDROOT
BRANCH  22  23
ATOM      7  N   UNL     1      19.136   5.469  20.085  0.00  0.00    -0.237 NA
ATOM     23  C   UNL     1      17.809   7.242  21.052  0.00  0.00    +0.041 A 
ATOM     24  C   UNL     1      18.874   7.604  21.870  0.00  0.00    +0.017 A 
ATOM     25  C   UNL     1      17.989   6.177  20.186  0.00  0.00    +0.124 A 
ATOM     26  C   UNL     1      20.071   6.899  21.796  0.00  0.00    +0.047 A 
ATOM     27  C   UNL     1      20.149   5.849  20.895  0.00  0.00    +0.139 A 
BRANCH  27   8
ATOM      8  N   UNL     1      21.340   5.142  20.817  0.00  0.00    -0.290 N 
ATOM      9  N   UNL     1      23.497   4.730  20.490  0.00  0.00    -0.244 NA
ATOM     28  C   UNL     1      21.508   3.810  21.070  0.00  0.00    +0.114 A 
ATOM     29  C   UNL     1      22.560   5.652  20.473  0.00  0.00    +0.205 A 
ATOM     30  C   UNL     1      22.848   3.578  20.862  0.00  0.00    +0.130 A 
ENDBRANCH  27   8
ENDBRANCH  22  23
BRANCH  19  11
ATOM      3  N   UNL     1      12.475   9.682  21.606  0.00  0.00    -0.288 NA
ATOM     11  C   UNL     1      13.062   8.330  21.696  0.00  0.00    +0.146 C 
ATOM     12  C   UNL     1      11.081   9.501  21.201  0.00  0.00    +0.085 C 
ATOM     13  C   UNL     1      12.255   7.487  20.691  0.00  0.00    +0.030 C 
ATOM     16  C   UNL     1      11.201   8.432  20.134  0.00  0.00    +0.017 C 
BRANCH   3  10
ATOM      2  O   UNL     1      10.163  13.995  25.329  0.00  0.00    -0.276 OA
ATOM      4  N   UNL     1      11.923  12.760  24.449  0.00  0.00    -0.302 N 
ATOM     10  C   UNL     1      12.593  10.443  22.847  0.00  0.00    +0.060 C 
ATOM     14  C   UNL     1      13.209  11.819  22.566  0.00  0.00    +0.038 C 
ATOM     15  C   UNL     1      11.214  10.598  23.503  0.00  0.00    +0.038 C 
ATOM     17  C   UNL     1      13.255  12.670  23.835  0.00  0.00    +0.109 C 
ATOM     18  C   UNL     1      11.299  11.471  24.753  0.00  0.00    +0.109 C 
ATOM     20  C   UNL     1      11.268  13.945  24.781  0.00  0.00    +0.212 C 
ATOM     21  C   UNL     1      11.974  15.231  24.432  0.00  0.00    +0.109 C 
ENDBRANCH   3  10
ENDBRANCH  19  11
TORSDOF 4
ENDMDL
MODEL 4
REMARK VINA RESULT:      -6.8     17.009     19.614
REMARK  Name = 45783651
REMARK  5 active torsions:
REMARK  status: ('A' for Active; 'I' for Inactive)
REMARK    1  A    between atoms: N_3  and  C_10
REMARK    2  A    between atoms: N_8  and  C_27
REMARK    3  A    between atoms: C_11  and  C_19
REMARK    4  A    between atoms: C_20  and  C_21
REMARK    5  A    between atoms: C_22  and  C_23
REMARK                            x       y       z     vdW  Elec       q    Type
REMARK                         _______ _______ _______ _____ _____    ______ ____
ROOT
ATOM      1  O   UNL     1      10.193   4.290   5.410  0.00  0.00    -0.336 OA
ATOM      5  N   UNL     1      11.082   5.751   3.965  0.00  0.00    -0.190 NA
ATOM      6  N   UNL     1      10.411   3.579   4.224  0.00  0.00    -0.056 NA
ATOM     19  C   UNL     1      10.615   5.559   5.173  0.00  0.00    +0.245 A 
ATOM     22  C   UNL     1      10.937   4.509   3.419  0.00  0.00    +0.204 A 
ENDROOT
BRANCH  22  23
ATOM      7  N   UNL     1      10.744   4.171  -0.278  0.00  0.00    -0.237 NA
ATOM     23  C   UNL     1      11.326   4.229   2.067  0.00  0.00    +0.041 A 
ATOM     24  C   UNL     1      12.600   3.759   1.771  0.00  0.00    +0.017 A 
ATOM     25  C   UNL     1      10.443   4.416   1.017  0.00  0.00    +0.124 A 
ATOM     26  C   UNL     1      12.948   3.495   0.450  0.00  0.00    +0.047 A 
ATOM     27  C   UNL     1      11.992   3.716  -0.529  0.00  0.00    +0.139 A 
BRANCH  27   8
ATOM      8  N   UNL     1      12.334   3.454  -1.847  0.00  0.00    -0.290 N 
ATOM      9  N   UNL     1      12.495   2.372  -3.779  0.00  0.00    -0.244 NA
ATOM     28  C   UNL     1      13.031   4.281  -2.682  0.00  0.00    +0.114 A 
ATOM     29  C   UNL     1      12.033   2.321  -2.549  0.00  0.00    +0.205 A 
ATOM     30  C   UNL     1      13.119   3.592  -3.868  0.00  0.00    +0.130 A 
ENDBRANCH  27   8
ENDBRANCH  22  23
BRANCH  19  11
ATOM      3  N   UNL     1       9.143   7.152   6.392  0.00  0.00    -0.288 NA
ATOM     11  C   UNL     1      10.485   6.539   6.320  0.00  0.00    +0.146 C 
ATOM     12  C   UNL     1       8.906   7.463   7.802  0.00  0.00    +0.085 C 
ATOM     13  C   UNL     1      10.686   5.876   7.694  0.00  0.00    +0.030 C 
ATOM     16  C   UNL     1       9.436   6.221   8.490  0.00  0.00    +0.017 C 
BRANCH   3  10
ATOM      2  O   UNL     1       6.171  12.395   5.175  0.00  0.00    -0.276 OA
ATOM      4  N   UNL     1       7.414  10.536   4.544  0.00  0.00    -0.302 N 
ATOM     10  C   UNL     1       9.001   8.328   5.538  0.00  0.00    +0.060 C 
ATOM     14  C   UNL     1       7.869   8.112   4.527  0.00  0.00    +0.038 C 
ATOM     15  C   UNL     1       8.723   9.571   6.396  0.00  0.00    +0.038 C 
ATOM     17  C   UNL     1       7.639   9.366   3.684  0.00  0.00    +0.109 C 
ATOM     18  C   UNL     1       8.477  10.795   5.517  0.00  0.00    +0.109 C 
ATOM     20  C   UNL     1       6.320  11.397   4.464  0.00  0.00    +0.212 C 
ATOM     21  C   UNL     1       5.267  11.060   3.439  0.00  0.00    +0.109 C 
ENDBRANCH   3  10
ENDBRANCH  19  11
TORSDOF 4
ENDMDL
MODEL 5
REMARK VINA RESULT:      -6.8     27.435     31.759
REMARK  Name = 45783651
REMARK  5 active torsions:
REMARK  status: ('A' for Active; 'I' for Inactive)
REMARK    1  A    between atoms: N_3  and  C_10
REMARK    2  A    between atoms: N_8  and  C_27
REMARK    3  A    between atoms: C_11  and  C_19
REMARK    4  A    between atoms: C_20  and  C_21
REMARK    5  A    between atoms: C_22  and  C_23
REMARK                            x       y       z     vdW  Elec       q    Type
REMARK                         _______ _______ _______ _____ _____    ______ ____
ROOT
ATOM      1  O   UNL     1     -14.803   8.410  31.429  0.00  0.00    -0.336 OA
ATOM      5  N   UNL     1     -13.684   7.475  33.129  0.00  0.00    -0.190 NA
ATOM      6  N   UNL     1     -13.676   9.214  31.643  0.00  0.00    -0.056 NA
ATOM     19  C   UNL     1     -14.731   7.410  32.345  0.00  0.00    +0.245 A 
ATOM     22  C   UNL     1     -13.067   8.598  32.660  0.00  0.00    +0.204 A 
ENDROOT
BRANCH  22  23
ATOM      7  N   UNL     1      -9.602   9.924  32.902  0.00  0.00    -0.237 NA
ATOM     23  C   UNL     1     -11.842   9.078  33.232  0.00  0.00    +0.041 A 
ATOM     24  C   UNL     1     -11.681   9.169  34.610  0.00  0.00    +0.017 A 
ATOM     25  C   UNL     1     -10.782   9.464  32.428  0.00  0.00    +0.124 A 
ATOM     26  C   UNL     1     -10.481   9.637  35.135  0.00  0.00    +0.047 A 
ATOM     27  C   UNL     1      -9.482   9.999  34.246  0.00  0.00    +0.139 A 
BRANCH  27   8
ATOM      8  N   UNL     1      -8.284  10.466  34.764  0.00  0.00    -0.290 N 
ATOM      9  N   UNL     1      -6.459  10.563  36.026  0.00  0.00    -0.244 NA
ATOM     28  C   UNL     1      -7.622  11.598  34.378  0.00  0.00    +0.114 A 
ATOM     29  C   UNL     1      -7.548   9.878  35.755  0.00  0.00    +0.205 A 
ATOM     30  C   UNL     1      -6.499  11.637  35.171  0.00  0.00    +0.130 A 
ENDBRANCH  27   8
ENDBRANCH  22  23
BRANCH  19  11
ATOM      3  N   UNL     1     -15.375   5.018  32.591  0.00  0.00    -0.288 NA
ATOM     11  C   UNL     1     -15.851   6.391  32.321  0.00  0.00    +0.146 C 
ATOM     12  C   UNL     1     -16.490   4.312  33.222  0.00  0.00    +0.085 C 
ATOM     13  C   UNL     1     -16.917   6.654  33.399  0.00  0.00    +0.030 C 
ATOM     16  C   UNL     1     -17.016   5.355  34.187  0.00  0.00    +0.017 C 
BRANCH   3  10
ATOM      2  O   UNL     1     -15.906   0.261  28.733  0.00  0.00    -0.276 OA
ATOM      4  N   UNL     1     -14.685   1.932  29.788  0.00  0.00    -0.302 N 
ATOM     10  C   UNL     1     -14.895   4.331  31.395  0.00  0.00    +0.060 C 
ATOM     14  C   UNL     1     -13.960   3.180  31.788  0.00  0.00    +0.038 C 
ATOM     15  C   UNL     1     -16.082   3.801  30.579  0.00  0.00    +0.038 C 
ATOM     17  C   UNL     1     -13.520   2.387  30.558  0.00  0.00    +0.109 C 
ATOM     18  C   UNL     1     -15.601   2.997  29.374  0.00  0.00    +0.109 C 
ATOM     20  C   UNL     1     -14.938   0.613  29.411  0.00  0.00    +0.212 C 
ATOM     21  C   UNL     1     -13.950  -0.426  29.879  0.00  0.00    +0.109 C 
ENDBRANCH   3  10
ENDBRANCH  19  11
TORSDOF 4
ENDMDL
MODEL 6
REMARK VINA RESULT:      -6.7      1.730      2.498
REMARK  Name = 45783651
REMARK  5 active torsions:
REMARK  status: ('A' for Active; 'I' for Inactive)
REMARK    1  A    between atoms: N_3  and  C_10
REMARK    2  A    between atoms: N_8  and  C_27
REMARK    3  A    between atoms: C_11  and  C_19
REMARK    4  A    between atoms: C_20  and  C_21
REMARK    5  A    between atoms: C_22  and  C_23
REMARK                            x       y       z     vdW  Elec       q    Type
REMARK                         _______ _______ _______ _____ _____    ______ ____
ROOT
ATOM      1  O   UNL     1      16.349   9.078  20.756  0.00  0.00    -0.336 OA
ATOM      5  N   UNL     1      16.386   6.862  21.071  0.00  0.00    -0.190 NA
ATOM      6  N   UNL     1      17.698   8.728  20.894  0.00  0.00    -0.056 NA
ATOM     19  C   UNL     1      15.645   7.923  20.872  0.00  0.00    +0.245 A 
ATOM     22  C   UNL     1      17.637   7.405  21.077  0.00  0.00    +0.204 A 
ENDROOT
BRANCH  22  23
ATOM      7  N   UNL     1      20.659   5.949  22.681  0.00  0.00    -0.237 NA
ATOM     23  C   UNL     1      18.808   6.598  21.269  0.00  0.00    +0.041 A 
ATOM     24  C   UNL     1      19.238   5.713  20.286  0.00  0.00    +0.017 A 
ATOM     25  C   UNL     1      19.547   6.679  22.437  0.00  0.00    +0.124 A 
ATOM     26  C   UNL     1      20.377   4.945  20.500  0.00  0.00    +0.047 A 
ATOM     27  C   UNL     1      21.046   5.099  21.704  0.00  0.00    +0.139 A 
BRANCH  27   8
ATOM      8  N   UNL     1      22.183   4.336  21.923  0.00  0.00    -0.290 N 
ATOM      9  N   UNL     1      24.113   3.684  22.805  0.00  0.00    -0.244 NA
ATOM     28  C   UNL     1      22.528   3.190  21.262  0.00  0.00    +0.114 A 
ATOM     29  C   UNL     1      23.164   4.593  22.839  0.00  0.00    +0.205 A 
ATOM     30  C   UNL     1      23.723   2.806  21.824  0.00  0.00    +0.130 A 
ENDBRANCH  27   8
ENDBRANCH  22  23
BRANCH  19  11
ATOM      3  N   UNL     1      13.711   9.311  20.146  0.00  0.00    -0.288 NA
ATOM     11  C   UNL     1      14.139   8.035  20.757  0.00  0.00    +0.146 C 
ATOM     12  C   UNL     1      12.447   9.037  19.463  0.00  0.00    +0.085 C 
ATOM     13  C   UNL     1      13.530   6.947  19.855  0.00  0.00    +0.030 C 
ATOM     16  C   UNL     1      12.728   7.702  18.805  0.00  0.00    +0.017 C 
BRANCH   3  10
ATOM      2  O   UNL     1      10.207  12.343  24.187  0.00  0.00    -0.276 OA
ATOM      4  N   UNL     1      11.952  12.218  22.658  0.00  0.00    -0.302 N 
ATOM     10  C   UNL     1      13.590  10.399  21.113  0.00  0.00    +0.060 C 
ATOM     14  C   UNL     1      12.900  11.605  20.465  0.00  0.00    +0.038 C 
ATOM     15  C   UNL     1      12.801   9.926  22.342  0.00  0.00    +0.038 C 
ATOM     17  C   UNL     1      12.677  12.722  21.485  0.00  0.00    +0.109 C 
ATOM     18  C   UNL     1      12.582  11.075  23.323  0.00  0.00    +0.109 C 
ATOM     20  C   UNL     1      10.779  12.763  23.177  0.00  0.00    +0.212 C 
ATOM     21  C   UNL     1      10.191  13.937  22.434  0.00  0.00    +0.109 C 
ENDBRANCH   3  10
ENDBRANCH  19  11
TORSDOF 4
ENDMDL
MODEL 7
REMARK VINA RESULT:      -6.6     26.243     31.437
REMARK  Name = 45783651
REMARK  5 active torsions:
REMARK  status: ('A' for Active; 'I' for Inactive)
REMARK    1  A    between atoms: N_3  and  C_10
REMARK    2  A    between atoms: N_8  and  C_27
REMARK    3  A    between atoms: C_11  and  C_19
REMARK    4  A    between atoms: C_20  and  C_21
REMARK    5  A    between atoms: C_22  and  C_23
REMARK                            x       y       z     vdW  Elec       q    Type
REMARK                         _______ _______ _______ _____ _____    ______ ____
ROOT
ATOM      1  O   UNL     1     -13.696   7.375  34.739  0.00  0.00    -0.336 OA
ATOM      5  N   UNL     1     -13.018   8.117  32.739  0.00  0.00    -0.190 NA
ATOM      6  N   UNL     1     -12.595   8.204  34.986  0.00  0.00    -0.056 NA
ATOM     19  C   UNL     1     -13.878   7.378  33.393  0.00  0.00    +0.245 A 
ATOM     22  C   UNL     1     -12.251   8.604  33.757  0.00  0.00    +0.204 A 
ENDROOT
BRANCH  22  23
ATOM      7  N   UNL     1     -10.065  11.088  32.063  0.00  0.00    -0.237 NA
ATOM     23  C   UNL     1     -11.146   9.486  33.514  0.00  0.00    +0.041 A 
ATOM     24  C   UNL     1     -10.111   9.610  34.435  0.00  0.00    +0.017 A 
ATOM     25  C   UNL     1     -11.076  10.240  32.354  0.00  0.00    +0.124 A 
ATOM     26  C   UNL     1      -9.053  10.473  34.171  0.00  0.00    +0.047 A 
ATOM     27  C   UNL     1      -9.077  11.183  32.981  0.00  0.00    +0.139 A 
BRANCH  27   8
ATOM      8  N   UNL     1      -8.024  12.045  32.713  0.00  0.00    -0.290 N 
ATOM      9  N   UNL     1      -6.173  13.229  33.028  0.00  0.00    -0.244 NA
ATOM     28  C   UNL     1      -7.795  12.701  31.536  0.00  0.00    +0.114 A 
ATOM     29  C   UNL     1      -7.025  12.392  33.578  0.00  0.00    +0.205 A 
ATOM     30  C   UNL     1      -6.647  13.426  31.755  0.00  0.00    +0.130 A 
ENDBRANCH  27   8
ENDBRANCH  22  23
BRANCH  19  11
ATOM      3  N   UNL     1     -15.354   5.406  33.748  0.00  0.00    -0.288 NA
ATOM     11  C   UNL     1     -15.026   6.544  32.865  0.00  0.00    +0.146 C 
ATOM     12  C   UNL     1     -16.782   5.144  33.570  0.00  0.00    +0.085 C 
ATOM     13  C   UNL     1     -16.337   7.342  32.753  0.00  0.00    +0.030 C 
ATOM     16  C   UNL     1     -17.358   6.545  33.552  0.00  0.00    +0.017 C 
BRANCH   3  10
ATOM      2  O   UNL     1     -13.576   1.066  29.773  0.00  0.00    -0.276 OA
ATOM      4  N   UNL     1     -13.983   1.850  31.921  0.00  0.00    -0.302 N 
ATOM     10  C   UNL     1     -14.540   4.222  33.485  0.00  0.00    +0.060 C 
ATOM     14  C   UNL     1     -15.394   2.956  33.616  0.00  0.00    +0.038 C 
ATOM     15  C   UNL     1     -13.921   4.309  32.083  0.00  0.00    +0.038 C 
ATOM     17  C   UNL     1     -14.587   1.709  33.253  0.00  0.00    +0.109 C 
ATOM     18  C   UNL     1     -13.143   3.038  31.751  0.00  0.00    +0.109 C 
ATOM     20  C   UNL     1     -14.123   0.943  30.872  0.00  0.00    +0.212 C 
ATOM     21  C   UNL     1     -15.007  -0.252  31.124  0.00  0.00    +0.109 C 
ENDBRANCH   3  10
ENDBRANCH  19  11
TORSDOF 4
ENDMDL
MODEL 8
REMARK VINA RESULT:      -6.6     29.404     31.285
REMARK  Name = 45783651
REMARK  5 active torsions:
REMARK  status: ('A' for Active; 'I' for Inactive)
REMARK    1  A    between atoms: N_3  and  C_10
REMARK    2  A    between atoms: N_8  and  C_27
REMARK    3  A    between atoms: C_11  and  C_19
REMARK    4  A    between atoms: C_20  and  C_21
REMARK    5  A    between atoms: C_22  and  C_23
REMARK                            x       y       z     vdW  Elec       q    Type
REMARK                         _______ _______ _______ _____ _____    ______ ____
ROOT
ATOM      1  O   UNL     1      -9.586 -10.750  20.018  0.00  0.00    -0.336 OA
ATOM      5  N   UNL     1      -9.133  -9.832  18.027  0.00  0.00    -0.190 NA
ATOM      6  N   UNL     1      -8.248 -11.058  19.744  0.00  0.00    -0.056 NA
ATOM     19  C   UNL     1     -10.032 -10.028  18.958  0.00  0.00    +0.245 A 
ATOM     22  C   UNL     1      -8.055 -10.482  18.552  0.00  0.00    +0.204 A 
ENDROOT
BRANCH  22  23
ATOM      7  N   UNL     1      -5.491  -9.987  15.906  0.00  0.00    -0.237 NA
ATOM     23  C   UNL     1      -6.799 -10.540  17.862  0.00  0.00    +0.041 A 
ATOM     24  C   UNL     1      -5.698 -11.174  18.428  0.00  0.00    +0.017 A 
ATOM     25  C   UNL     1      -6.645  -9.967  16.610  0.00  0.00    +0.124 A 
ATOM     26  C   UNL     1      -4.494 -11.215  17.734  0.00  0.00    +0.047 A 
ATOM     27  C   UNL     1      -4.443 -10.611  16.487  0.00  0.00    +0.139 A 
BRANCH  27   8
ATOM      8  N   UNL     1      -3.245 -10.649  15.791  0.00  0.00    -0.290 N 
ATOM      9  N   UNL     1      -1.057 -10.707  15.416  0.00  0.00    -0.244 NA
ATOM     28  C   UNL     1      -3.098 -10.672  14.432  0.00  0.00    +0.114 A 
ATOM     29  C   UNL     1      -1.993 -10.672  16.339  0.00  0.00    +0.205 A 
ATOM     30  C   UNL     1      -1.739 -10.707  14.225  0.00  0.00    +0.130 A 
ENDBRANCH  27   8
ENDBRANCH  22  23
BRANCH  19  11
ATOM      3  N   UNL     1     -12.175  -9.739  17.726  0.00  0.00    -0.288 NA
ATOM     11  C   UNL     1     -11.473  -9.567  19.015  0.00  0.00    +0.146 C 
ATOM     12  C   UNL     1     -13.586  -9.954  18.049  0.00  0.00    +0.085 C 
ATOM     13  C   UNL     1     -12.314 -10.366  20.027  0.00  0.00    +0.030 C 
ATOM     16  C   UNL     1     -13.497 -10.898  19.231  0.00  0.00    +0.017 C 
BRANCH   3  10
ATOM      2  O   UNL     1     -14.310  -6.420  13.011  0.00  0.00    -0.276 OA
ATOM      4  N   UNL     1     -12.590  -7.270  14.321  0.00  0.00    -0.302 N 
ATOM     10  C   UNL     1     -11.985  -8.616  16.813  0.00  0.00    +0.060 C 
ATOM     14  C   UNL     1     -11.424  -9.113  15.475  0.00  0.00    +0.038 C 
ATOM     15  C   UNL     1     -13.315  -7.882  16.596  0.00  0.00    +0.038 C 
ATOM     17  C   UNL     1     -11.305  -7.967  14.470  0.00  0.00    +0.109 C 
ATOM     18  C   UNL     1     -13.159  -6.761  15.571  0.00  0.00    +0.109 C 
ATOM     20  C   UNL     1     -13.248  -7.040  13.114  0.00  0.00    +0.212 C 
ATOM     21  C   UNL     1     -12.599  -7.599  11.873  0.00  0.00    +0.109 C 
ENDBRANCH   3  10
ENDBRANCH  19  11
TORSDOF 4
ENDMDL
MODEL 9
REMARK VINA RESULT:      -6.5     28.365     30.442
REMARK  Name = 45783651
REMARK  5 active torsions:
REMARK  status: ('A' for Active; 'I' for Inactive)
REMARK    1  A    between atoms: N_3  and  C_10
REMARK    2  A    between atoms: N_8  and  C_27
REMARK    3  A    between atoms: C_11  and  C_19
REMARK    4  A    between atoms: C_20  and  C_21
REMARK    5  A    between atoms: C_22  and  C_23
REMARK                            x       y       z     vdW  Elec       q    Type
REMARK                         _______ _______ _______ _____ _____    ______ ____
ROOT
ATOM      1  O   UNL     1      -1.804 -10.190  11.946  0.00  0.00    -0.336 OA
ATOM      5  N   UNL     1      -3.932 -10.873  11.809  0.00  0.00    -0.190 NA
ATOM      6  N   UNL     1      -2.348  -9.546  10.828  0.00  0.00    -0.056 NA
ATOM     19  C   UNL     1      -2.802 -10.951  12.466  0.00  0.00    +0.245 A 
ATOM     22  C   UNL     1      -3.606 -10.000  10.813  0.00  0.00    +0.204 A 
ENDROOT
BRANCH  22  23
ATOM      7  N   UNL     1      -6.436  -8.213   9.195  0.00  0.00    -0.237 NA
ATOM     23  C   UNL     1      -4.559  -9.602   9.818  0.00  0.00    +0.041 A 
ATOM     24  C   UNL     1      -4.558 -10.181   8.553  0.00  0.00    +0.017 A 
ATOM     25  C   UNL     1      -5.510  -8.632  10.086  0.00  0.00    +0.124 A 
ATOM     26  C   UNL     1      -5.495  -9.776   7.609  0.00  0.00    +0.047 A 
ATOM     27  C   UNL     1      -6.404  -8.797   7.976  0.00  0.00    +0.139 A 
BRANCH  27   8
ATOM      8  N   UNL     1      -7.341  -8.389   7.039  0.00  0.00    -0.290 N 
ATOM      9  N   UNL     1      -9.021  -7.254   6.133  0.00  0.00    -0.244 NA
ATOM     28  C   UNL     1      -7.499  -8.896   5.779  0.00  0.00    +0.114 A 
ATOM     29  C   UNL     1      -8.276  -7.407   7.206  0.00  0.00    +0.205 A 
ATOM     30  C   UNL     1      -8.541  -8.180   5.240  0.00  0.00    +0.130 A 
ENDBRANCH  27   8
ENDBRANCH  22  23
BRANCH  19  11
ATOM      3  N   UNL     1      -3.660 -12.155  14.467  0.00  0.00    -0.288 NA
ATOM     11  C   UNL     1      -2.461 -11.757  13.701  0.00  0.00    +0.146 C 
ATOM     12  C   UNL     1      -3.326 -13.414  15.134  0.00  0.00    +0.085 C 
ATOM     13  C   UNL     1      -1.753 -13.083  13.369  0.00  0.00    +0.030 C 
ATOM     16  C   UNL     1      -2.590 -14.162  14.040  0.00  0.00    +0.017 C 
BRANCH   3  10
ATOM      2  O   UNL     1      -6.931 -10.741  19.477  0.00  0.00    -0.276 OA
ATOM      4  N   UNL     1      -5.964 -10.215  17.432  0.00  0.00    -0.302 N 
ATOM     10  C   UNL     1      -4.104 -11.133  15.412  0.00  0.00    +0.060 C 
ATOM     14  C   UNL     1      -5.514 -10.655  15.046  0.00  0.00    +0.038 C 
ATOM     15  C   UNL     1      -4.081 -11.692  16.841  0.00  0.00    +0.038 C 
ATOM     17  C   UNL     1      -6.038  -9.653  16.076  0.00  0.00    +0.109 C 
ATOM     18  C   UNL     1      -4.632 -10.671  17.834  0.00  0.00    +0.109 C 
ATOM     20  C   UNL     1      -7.027 -10.297  18.330  0.00  0.00    +0.212 C 
ATOM     21  C   UNL     1      -8.367  -9.809  17.839  0.00  0.00    +0.109 C 
ENDBRANCH   3  10
ENDBRANCH  19  11
TORSDOF 4
ENDMDL
MODEL 10
REMARK VINA RESULT:      -6.3     33.070     35.906
REMARK  Name = 45783651
REMARK  5 active torsions:
REMARK  status: ('A' for Active; 'I' for Inactive)
REMARK    1  A    between atoms: N_3  and  C_10
REMARK    2  A    between atoms: N_8  and  C_27
REMARK    3  A    between atoms: C_11  and  C_19
REMARK    4  A    between atoms: C_20  and  C_21
REMARK    5  A    between atoms: C_22  and  C_23
REMARK                            x       y       z     vdW  Elec       q    Type
REMARK                         _______ _______ _______ _____ _____    ______ ____
ROOT
ATOM      1  O   UNL     1      -0.710 -15.501  -0.397  0.00  0.00    -0.336 OA
ATOM      5  N   UNL     1      -0.240 -13.996   1.194  0.00  0.00    -0.190 NA
ATOM      6  N   UNL     1      -1.938 -15.135   0.168  0.00  0.00    -0.056 NA
ATOM     19  C   UNL     1       0.237 -14.785   0.264  0.00  0.00    +0.245 A 
ATOM     22  C   UNL     1      -1.578 -14.245   1.098  0.00  0.00    +0.204 A 
ENDROOT
BRANCH  22  23
ATOM      7  N   UNL     1      -4.737 -12.647   2.234  0.00  0.00    -0.237 NA
ATOM     23  C   UNL     1      -2.529 -13.588   1.947  0.00  0.00    +0.041 A 
ATOM     24  C   UNL     1      -2.208 -13.252   3.258  0.00  0.00    +0.017 A 
ATOM     25  C   UNL     1      -3.795 -13.266   1.487  0.00  0.00    +0.124 A 
ATOM     26  C   UNL     1      -3.150 -12.614   4.057  0.00  0.00    +0.047 A 
ATOM     27  C   UNL     1      -4.389 -12.336   3.502  0.00  0.00    +0.139 A 
BRANCH  27   8
ATOM      8  N   UNL     1      -5.333 -11.700   4.295  0.00  0.00    -0.290 N 
ATOM      9  N   UNL     1      -6.229 -10.688   6.057  0.00  0.00    -0.244 NA
ATOM     28  C   UNL     1      -6.621 -11.410   3.944  0.00  0.00    +0.114 A 
ATOM     29  C   UNL     1      -5.143 -11.248   5.571  0.00  0.00    +0.205 A 
ATOM     30  C   UNL     1      -7.154 -10.786   5.047  0.00  0.00    +0.130 A 
ENDBRANCH  27   8
ENDBRANCH  22  23
BRANCH  19  11
ATOM      3  N   UNL     1       2.165 -13.935  -1.060  0.00  0.00    -0.288 NA
ATOM     11  C   UNL     1       1.671 -15.004  -0.168  0.00  0.00    +0.146 C 
ATOM     12  C   UNL     1       3.608 -13.843  -0.835  0.00  0.00    +0.085 C 
ATOM     13  C   UNL     1       2.654 -15.009   1.017  0.00  0.00    +0.030 C 
ATOM     16  C   UNL     1       3.698 -13.955   0.673  0.00  0.00    +0.017 C 
BRANCH   3  10
ATOM      2  O   UNL     1       3.932 -13.650  -6.942  0.00  0.00    -0.276 OA
ATOM      4  N   UNL     1       2.316 -13.640  -5.273  0.00  0.00    -0.302 N 
ATOM     10  C   UNL     1       1.841 -14.165  -2.466  0.00  0.00    +0.060 C 
ATOM     14  C   UNL     1       1.395 -12.854  -3.125  0.00  0.00    +0.038 C 
ATOM     15  C   UNL     1       3.058 -14.745  -3.199  0.00  0.00    +0.038 C 
ATOM     17  C   UNL     1       1.141 -13.050  -4.620  0.00  0.00    +0.109 C 
ATOM     18  C   UNL     1       2.771 -14.904  -4.690  0.00  0.00    +0.109 C 
ATOM     20  C   UNL     1       2.968 -13.116  -6.389  0.00  0.00    +0.212 C 
ATOM     21  C   UNL     1       2.441 -11.809  -6.928  0.00  0.00    +0.109 C 
ENDBRANCH   3  10
ENDBRANCH  19  11
TORSDOF 4
ENDMDL
