MODEL 1
REMARK VINA RESULT:      -8.3      0.000      0.000
REMARK  Name = 7155625
REMARK  5 active torsions:
REMARK  status: ('A' for Active; 'I' for Inactive)
REMARK    1  A    between atoms: N_7  and  C_22
REMARK    2  A    between atoms: N_8  and  C_20
REMARK    3  A    between atoms: C_23  and  C_26
REMARK    4  A    between atoms: C_29  and  C_32
REMARK    5  A    between atoms: C_32  and  C_35
REMARK                            x       y       z     vdW  Elec       q    Type
REMARK                         _______ _______ _______ _____ _____    ______ ____
ROOT
ATOM      1  O   UNL     1      15.088  11.570  18.145  0.00  0.00    -0.266 OA
ATOM      2  O   UNL     1      15.183   6.009  20.168  0.00  0.00    -0.252 OA
ATOM      5  N   UNL     1      13.813   7.653  21.051  0.00  0.00    -0.284 N 
ATOM      6  N   UNL     1      13.520   9.995  18.872  0.00  0.00    -0.310 N 
ATOM      7  N   UNL     1      16.095   7.548  21.646  0.00  0.00    -0.269 N 
ATOM     10  C   UNL     1      12.687   9.884  21.287  0.00  0.00    +0.027 C 
ATOM     11  C   UNL     1      11.854   8.269  19.637  0.00  0.00    +0.054 C 
ATOM     12  C   UNL     1      11.421   9.292  20.683  0.00  0.00    +0.018 C 
ATOM     13  C   UNL     1      13.551   8.791  21.947  0.00  0.00    +0.114 C 
ATOM     14  C   UNL     1      13.453  10.635  20.191  0.00  0.00    +0.130 C 
ATOM     15  C   UNL     1      12.642   7.143  20.327  0.00  0.00    +0.119 C 
ATOM     16  C   UNL     1      12.704   8.907  18.554  0.00  0.00    +0.027 A 
ATOM     17  C   UNL     1      12.694   8.410  17.305  0.00  0.00    +0.024 A 
ATOM     18  C   UNL     1      14.365  10.598  17.917  0.00  0.00    +0.273 A 
ATOM     19  C   UNL     1      15.055   6.998  20.895  0.00  0.00    +0.306 C 
ATOM     20  C   UNL     1      14.345   9.999  16.544  0.00  0.00    +0.099 A 
ATOM     21  C   UNL     1      13.534   8.968  16.284  0.00  0.00    +0.030 A 
ATOM     36  H   UNL     1      15.862   8.027  22.509  0.00  0.00    +0.156 HD
ENDROOT
BRANCH   7  22
ATOM     22  C   UNL     1      17.482   7.478  21.370  0.00  0.00    +0.035 A 
ATOM     24  C   UNL     1      18.023   6.313  20.832  0.00  0.00    +0.024 A 
ATOM     25  C   UNL     1      18.297   8.574  21.639  0.00  0.00    +0.024 A 
ATOM     27  C   UNL     1      19.389   6.245  20.558  0.00  0.00    +0.013 A 
ATOM     28  C   UNL     1      19.663   8.505  21.366  0.00  0.00    +0.013 A 
ATOM     29  C   UNL     1      20.209   7.341  20.825  0.00  0.00    +0.017 A 
BRANCH  29  32
ATOM      4  O   UNL     1      22.192   8.099  19.797  0.00  0.00    -0.292 OA
ATOM     32  C   UNL     1      21.634   7.269  20.542  0.00  0.00    +0.160 C 
ATOM     35  C   UNL     1      22.485   6.163  21.157  0.00  0.00    +0.091 C 
ENDBRANCH  29  32
ENDBRANCH   7  22
BRANCH  20   8
ATOM      3  O   UNL     1      13.511  11.517  14.277  0.00  0.00    -0.270 OA
ATOM      8  N   UNL     1      15.160  10.543  15.597  0.00  0.00    -0.277 N 
ATOM     23  C   UNL     1      14.692  11.275  14.513  0.00  0.00    +0.248 C 
ATOM     37  H   UNL     1      16.144  10.610  15.844  0.00  0.00    +0.155 HD
BRANCH  23  26
ATOM      9  N   UNL     1      17.671  12.801  11.895  0.00  0.00    -0.263 NA
ATOM     26  C   UNL     1      15.734  11.808  13.598  0.00  0.00    +0.040 A 
ATOM     30  C   UNL     1      15.422  11.996  12.272  0.00  0.00    +0.033 A 
ATOM     31  C   UNL     1      16.978  12.099  14.103  0.00  0.00    +0.033 A 
ATOM     33  C   UNL     1      16.428  12.497  11.460  0.00  0.00    +0.111 A 
ATOM     34  C   UNL     1      17.915  12.595  13.209  0.00  0.00    +0.111 A 
ENDBRANCH  23  26
ENDBRANCH  20   8
TORSDOF 4
ENDMDL
MODEL 2
REMARK VINA RESULT:      -8.2     12.361     15.665
REMARK  Name = 7155625
REMARK  5 active torsions:
REMARK  status: ('A' for Active; 'I' for Inactive)
REMARK    1  A    between atoms: N_7  and  C_22
REMARK    2  A    between atoms: N_8  and  C_20
REMARK    3  A    between atoms: C_23  and  C_26
REMARK    4  A    between atoms: C_29  and  C_32
REMARK    5  A    between atoms: C_32  and  C_35
REMARK                            x       y       z     vdW  Elec       q    Type
REMARK                         _______ _______ _______ _____ _____    ______ ____
ROOT
ATOM      1  O   UNL     1      13.759   6.387   7.060  0.00  0.00    -0.266 OA
ATOM      2  O   UNL     1       9.663   7.802   3.031  0.00  0.00    -0.252 OA
ATOM      5  N   UNL     1       9.139   7.044   5.154  0.00  0.00    -0.284 N 
ATOM      6  N   UNL     1      11.699   7.492   7.041  0.00  0.00    -0.310 N 
ATOM      7  N   UNL     1       9.786   5.526   3.466  0.00  0.00    -0.269 N 
ATOM     10  C   UNL     1       9.486   6.306   7.528  0.00  0.00    +0.027 C 
ATOM     11  C   UNL     1       9.490   8.701   6.984  0.00  0.00    +0.054 C 
ATOM     12  C   UNL     1       9.013   7.672   8.005  0.00  0.00    +0.018 C 
ATOM     13  C   UNL     1       8.909   5.974   6.138  0.00  0.00    +0.114 C 
ATOM     14  C   UNL     1      11.020   6.287   7.531  0.00  0.00    +0.130 C 
ATOM     15  C   UNL     1       8.838   8.402   5.624  0.00  0.00    +0.119 C 
ATOM     16  C   UNL     1      11.001   8.688   6.848  0.00  0.00    +0.027 A 
ATOM     17  C   UNL     1      11.660   9.810   6.513  0.00  0.00    +0.024 A 
ATOM     18  C   UNL     1      13.098   7.412   6.882  0.00  0.00    +0.273 A 
ATOM     19  C   UNL     1       9.550   6.856   3.815  0.00  0.00    +0.306 C 
ATOM     20  C   UNL     1      13.792   8.678   6.484  0.00  0.00    +0.099 A 
ATOM     21  C   UNL     1      13.083   9.801   6.326  0.00  0.00    +0.030 A 
ATOM     36  H   UNL     1       9.278   4.802   3.962  0.00  0.00    +0.156 HD
ENDROOT
BRANCH   7  22
ATOM     22  C   UNL     1      10.637   5.047   2.441  0.00  0.00    +0.035 A 
ATOM     24  C   UNL     1      10.131   4.843   1.159  0.00  0.00    +0.024 A 
ATOM     25  C   UNL     1      11.975   4.782   2.720  0.00  0.00    +0.024 A 
ATOM     27  C   UNL     1      10.970   4.373   0.149  0.00  0.00    +0.013 A 
ATOM     28  C   UNL     1      12.814   4.311   1.709  0.00  0.00    +0.013 A 
ATOM     29  C   UNL     1      12.311   4.108   0.425  0.00  0.00    +0.017 A 
BRANCH  29  32
ATOM      4  O   UNL     1      14.422   3.780  -0.579  0.00  0.00    -0.292 OA
ATOM     32  C   UNL     1      13.186   3.615  -0.628  0.00  0.00    +0.160 C 
ATOM     35  C   UNL     1      12.604   2.879  -1.830  0.00  0.00    +0.091 C 
ENDBRANCH  29  32
ENDBRANCH   7  22
BRANCH  20   8
ATOM      3  O   UNL     1      15.149   8.253   4.010  0.00  0.00    -0.270 OA
ATOM      8  N   UNL     1      15.143   8.638   6.304  0.00  0.00    -0.277 N 
ATOM     23  C   UNL     1      15.744   8.427   5.070  0.00  0.00    +0.248 C 
ATOM     37  H   UNL     1      15.703   9.018   7.062  0.00  0.00    +0.155 HD
BRANCH  23  26
ATOM      9  N   UNL     1      19.993   8.463   5.061  0.00  0.00    -0.263 NA
ATOM     26  C   UNL     1      17.230   8.440   5.067  0.00  0.00    +0.040 A 
ATOM     30  C   UNL     1      17.896   8.134   3.903  0.00  0.00    +0.033 A 
ATOM     31  C   UNL     1      17.896   8.757   6.227  0.00  0.00    +0.033 A 
ATOM     33  C   UNL     1      19.281   8.160   3.953  0.00  0.00    +0.111 A 
ATOM     34  C   UNL     1      19.281   8.755   6.172  0.00  0.00    +0.111 A 
ENDBRANCH  23  26
ENDBRANCH  20   8
TORSDOF 4
ENDMDL
MODEL 3
REMARK VINA RESULT:      -7.9     13.442     18.194
REMARK  Name = 7155625
REMARK  5 active torsions:
REMARK  status: ('A' for Active; 'I' for Inactive)
REMARK    1  A    between atoms: N_7  and  C_22
REMARK    2  A    between atoms: N_8  and  C_20
REMARK    3  A    between atoms: C_23  and  C_26
REMARK    4  A    between atoms: C_29  and  C_32
REMARK    5  A    between atoms: C_32  and  C_35
REMARK                            x       y       z     vdW  Elec       q    Type
REMARK                         _______ _______ _______ _____ _____    ______ ____
ROOT
ATOM      1  O   UNL     1      10.260   4.626   2.988  0.00  0.00    -0.266 OA
ATOM      2  O   UNL     1       9.610  10.152   5.004  0.00  0.00    -0.252 OA
ATOM      5  N   UNL     1       9.419   8.282   6.355  0.00  0.00    -0.284 N 
ATOM      6  N   UNL     1      10.888   5.829   4.891  0.00  0.00    -0.310 N 
ATOM      7  N   UNL     1       7.630   8.942   4.964  0.00  0.00    -0.269 N 
ATOM     10  C   UNL     1       9.489   5.865   7.031  0.00  0.00    +0.027 C 
ATOM     11  C   UNL     1      11.573   7.159   6.917  0.00  0.00    +0.054 C 
ATOM     12  C   UNL     1      10.815   6.117   7.735  0.00  0.00    +0.018 C 
ATOM     13  C   UNL     1       8.659   7.161   6.932  0.00  0.00    +0.114 C 
ATOM     14  C   UNL     1       9.771   5.259   5.651  0.00  0.00    +0.130 C 
ATOM     15  C   UNL     1      10.769   8.470   6.900  0.00  0.00    +0.119 C 
ATOM     16  C   UNL     1      11.815   6.682   5.498  0.00  0.00    +0.027 A 
ATOM     17  C   UNL     1      12.896   7.100   4.818  0.00  0.00    +0.024 A 
ATOM     18  C   UNL     1      11.039   5.392   3.558  0.00  0.00    +0.273 A 
ATOM     19  C   UNL     1       8.932   9.198   5.396  0.00  0.00    +0.306 C 
ATOM     20  C   UNL     1      12.242   5.900   2.827  0.00  0.00    +0.099 A 
ATOM     21  C   UNL     1      13.110   6.701   3.455  0.00  0.00    +0.030 A 
ATOM     36  H   UNL     1       6.999   8.466   5.598  0.00  0.00    +0.156 HD
ENDROOT
BRANCH   7  22
ATOM     22  C   UNL     1       7.047   9.318   3.729  0.00  0.00    +0.035 A 
ATOM     24  C   UNL     1       7.652   8.938   2.533  0.00  0.00    +0.024 A 
ATOM     25  C   UNL     1       5.872  10.065   3.718  0.00  0.00    +0.024 A 
ATOM     27  C   UNL     1       7.076   9.306   1.318  0.00  0.00    +0.013 A 
ATOM     28  C   UNL     1       5.297  10.434   2.501  0.00  0.00    +0.013 A 
ATOM     29  C   UNL     1       5.899  10.054   1.302  0.00  0.00    +0.017 A 
BRANCH  29  32
ATOM      4  O   UNL     1       5.439  11.591  -0.428  0.00  0.00    -0.292 OA
ATOM     32  C   UNL     1       5.300  10.440   0.034  0.00  0.00    +0.160 C 
ATOM     35  C   UNL     1       4.478   9.435  -0.765  0.00  0.00    +0.091 C 
ENDBRANCH  29  32
ENDBRANCH   7  22
BRANCH  20   8
ATOM      3  O   UNL     1      13.623   3.567   1.936  0.00  0.00    -0.270 OA
ATOM      8  N   UNL     1      12.415   5.513   1.532  0.00  0.00    -0.277 N 
ATOM     23  C   UNL     1      13.098   4.362   1.161  0.00  0.00    +0.248 C 
ATOM     37  H   UNL     1      11.810   5.963   0.850  0.00  0.00    +0.155 HD
BRANCH  23  26
ATOM      9  N   UNL     1      13.284   3.593  -3.014  0.00  0.00    -0.263 NA
ATOM     26  C   UNL     1      13.163   4.093  -0.299  0.00  0.00    +0.040 A 
ATOM     30  C   UNL     1      14.193   4.636  -1.030  0.00  0.00    +0.033 A 
ATOM     31  C   UNL     1      12.192   3.310  -0.875  0.00  0.00    +0.033 A 
ATOM     33  C   UNL     1      14.209   4.354  -2.388  0.00  0.00    +0.111 A 
ATOM     34  C   UNL     1      12.297   3.088  -2.239  0.00  0.00    +0.111 A 
ENDBRANCH  23  26
ENDBRANCH  20   8
TORSDOF 4
ENDMDL
MODEL 4
REMARK VINA RESULT:      -7.8     12.384     15.557
REMARK  Name = 7155625
REMARK  5 active torsions:
REMARK  status: ('A' for Active; 'I' for Inactive)
REMARK    1  A    between atoms: N_7  and  C_22
REMARK    2  A    between atoms: N_8  and  C_20
REMARK    3  A    between atoms: C_23  and  C_26
REMARK    4  A    between atoms: C_29  and  C_32
REMARK    5  A    between atoms: C_32  and  C_35
REMARK                            x       y       z     vdW  Elec       q    Type
REMARK                         _______ _______ _______ _____ _____    ______ ____
ROOT
ATOM      1  O   UNL     1      10.634   7.331   2.332  0.00  0.00    -0.266 OA
ATOM      2  O   UNL     1      13.583   6.205   7.337  0.00  0.00    -0.252 OA
ATOM      5  N   UNL     1      11.643   7.466   7.269  0.00  0.00    -0.284 N 
ATOM      6  N   UNL     1      10.095   6.782   4.539  0.00  0.00    -0.310 N 
ATOM      7  N   UNL     1      13.715   8.422   6.663  0.00  0.00    -0.269 N 
ATOM     10  C   UNL     1       9.584   8.544   6.320  0.00  0.00    +0.027 C 
ATOM     11  C   UNL     1       9.547   6.163   6.918  0.00  0.00    +0.054 C 
ATOM     12  C   UNL     1       8.737   7.456   6.964  0.00  0.00    +0.018 C 
ATOM     13  C   UNL     1      10.915   8.731   7.076  0.00  0.00    +0.114 C 
ATOM     14  C   UNL     1       9.808   8.188   4.845  0.00  0.00    +0.130 C 
ATOM     15  C   UNL     1      10.830   6.342   7.746  0.00  0.00    +0.119 C 
ATOM     16  C   UNL     1       9.900   5.779   5.493  0.00  0.00    +0.027 A 
ATOM     17  C   UNL     1      10.054   4.487   5.159  0.00  0.00    +0.024 A 
ATOM     18  C   UNL     1      10.469   6.484   3.212  0.00  0.00    +0.273 A 
ATOM     19  C   UNL     1      13.034   7.284   7.097  0.00  0.00    +0.306 C 
ATOM     20  C   UNL     1      10.656   5.035   2.886  0.00  0.00    +0.099 A 
ATOM     21  C   UNL     1      10.442   4.111   3.829  0.00  0.00    +0.030 A 
ATOM     36  H   UNL     1      13.334   9.330   6.904  0.00  0.00    +0.156 HD
ENDROOT
BRANCH   7  22
ATOM     22  C   UNL     1      14.936   8.469   5.948  0.00  0.00    +0.035 A 
ATOM     24  C   UNL     1      15.955   9.320   6.372  0.00  0.00    +0.024 A 
ATOM     25  C   UNL     1      15.112   7.665   4.825  0.00  0.00    +0.024 A 
ATOM     27  C   UNL     1      17.158   9.365   5.669  0.00  0.00    +0.013 A 
ATOM     28  C   UNL     1      16.316   7.711   4.122  0.00  0.00    +0.013 A 
ATOM     29  C   UNL     1      17.338   8.560   4.544  0.00  0.00    +0.017 A 
BRANCH  29  32
ATOM      4  O   UNL     1      18.726   9.325   2.795  0.00  0.00    -0.292 OA
ATOM     32  C   UNL     1      18.593   8.609   3.809  0.00  0.00    +0.160 C 
ATOM     35  C   UNL     1      19.785   7.776   4.267  0.00  0.00    +0.091 C 
ENDBRANCH  29  32
ENDBRANCH   7  22
BRANCH  20   8
ATOM      3  O   UNL     1      13.324   4.547   1.998  0.00  0.00    -0.270 OA
ATOM      8  N   UNL     1      11.035   4.708   1.618  0.00  0.00    -0.277 N 
ATOM     23  C   UNL     1      12.354   4.481   1.247  0.00  0.00    +0.248 C 
ATOM     37  H   UNL     1      10.292   4.388   1.002  0.00  0.00    +0.155 HD
BRANCH  23  26
ATOM      9  N   UNL     1      12.968   3.427  -2.823  0.00  0.00    -0.263 NA
ATOM     26  C   UNL     1      12.569   4.112  -0.176  0.00  0.00    +0.040 A 
ATOM     30  C   UNL     1      11.522   3.579  -0.891  0.00  0.00    +0.033 A 
ATOM     31  C   UNL     1      13.807   4.315  -0.737  0.00  0.00    +0.033 A 
ATOM     33  C   UNL     1      11.773   3.253  -2.214  0.00  0.00    +0.111 A 
ATOM     34  C   UNL     1      13.956   3.956  -2.067  0.00  0.00    +0.111 A 
ENDBRANCH  23  26
ENDBRANCH  20   8
TORSDOF 4
ENDMDL
MODEL 5
REMARK VINA RESULT:      -7.6     28.282     30.350
REMARK  Name = 7155625
REMARK  5 active torsions:
REMARK  status: ('A' for Active; 'I' for Inactive)
REMARK    1  A    between atoms: N_7  and  C_22
REMARK    2  A    between atoms: N_8  and  C_20
REMARK    3  A    between atoms: C_23  and  C_26
REMARK    4  A    between atoms: C_29  and  C_32
REMARK    5  A    between atoms: C_32  and  C_35
REMARK                            x       y       z     vdW  Elec       q    Type
REMARK                         _______ _______ _______ _____ _____    ______ ____
ROOT
ATOM      1  O   UNL     1      -6.040 -12.014  10.919  0.00  0.00    -0.266 OA
ATOM      2  O   UNL     1      -3.524 -10.371  16.017  0.00  0.00    -0.252 OA
ATOM      5  N   UNL     1      -3.245 -12.473  15.089  0.00  0.00    -0.284 N 
ATOM      6  N   UNL     1      -3.969 -12.296  11.964  0.00  0.00    -0.310 N 
ATOM      7  N   UNL     1      -5.212 -11.941  16.281  0.00  0.00    -0.269 N 
ATOM     10  C   UNL     1      -3.412 -14.331  13.409  0.00  0.00    +0.027 C 
ATOM     11  C   UNL     1      -1.738 -12.561  13.104  0.00  0.00    +0.054 C 
ATOM     12  C   UNL     1      -1.972 -14.065  12.995  0.00  0.00    +0.018 C 
ATOM     13  C   UNL     1      -3.669 -13.863  14.855  0.00  0.00    +0.114 C 
ATOM     14  C   UNL     1      -4.349 -13.641  12.410  0.00  0.00    +0.130 C 
ATOM     15  C   UNL     1      -1.917 -12.127  14.569  0.00  0.00    +0.119 C 
ATOM     16  C   UNL     1      -2.692 -11.785  12.215  0.00  0.00    +0.027 A 
ATOM     17  C   UNL     1      -2.323 -10.601  11.698  0.00  0.00    +0.024 A 
ATOM     18  C   UNL     1      -4.911 -11.595  11.183  0.00  0.00    +0.273 A 
ATOM     19  C   UNL     1      -3.974 -11.502  15.811  0.00  0.00    +0.306 C 
ATOM     20  C   UNL     1      -4.471 -10.269  10.646  0.00  0.00    +0.099 A 
ATOM     21  C   UNL     1      -3.234  -9.829  10.900  0.00  0.00    +0.030 A 
ATOM     36  H   UNL     1      -5.329 -12.930  16.473  0.00  0.00    +0.156 HD
ENDROOT
BRANCH   7  22
ATOM     22  C   UNL     1      -6.347 -11.149  16.579  0.00  0.00    +0.035 A 
ATOM     24  C   UNL     1      -6.742 -10.974  17.904  0.00  0.00    +0.024 A 
ATOM     25  C   UNL     1      -7.061 -10.547  15.546  0.00  0.00    +0.024 A 
ATOM     27  C   UNL     1      -7.858 -10.192  18.197  0.00  0.00    +0.013 A 
ATOM     28  C   UNL     1      -8.178  -9.765  15.841  0.00  0.00    +0.013 A 
ATOM     29  C   UNL     1      -8.576  -9.587  17.165  0.00  0.00    +0.017 A 
BRANCH  29  32
ATOM      4  O   UNL     1      -9.811  -7.577  17.121  0.00  0.00    -0.292 OA
ATOM     32  C   UNL     1      -9.742  -8.772  17.472  0.00  0.00    +0.160 C 
ATOM     35  C   UNL     1     -10.917  -9.370  18.237  0.00  0.00    +0.091 C 
ENDBRANCH  29  32
ENDBRANCH   7  22
BRANCH  20   8
ATOM      3  O   UNL     1      -4.857 -10.479   7.827  0.00  0.00    -0.270 OA
ATOM      8  N   UNL     1      -5.360  -9.553   9.901  0.00  0.00    -0.277 N 
ATOM     23  C   UNL     1      -5.501  -9.702   8.527  0.00  0.00    +0.248 C 
ATOM     37  H   UNL     1      -6.096  -9.082  10.420  0.00  0.00    +0.155 HD
BRANCH  23  26
ATOM      9  N   UNL     1      -8.470  -7.269   6.705  0.00  0.00    -0.263 NA
ATOM     26  C   UNL     1      -6.539  -8.851   7.890  0.00  0.00    +0.040 A 
ATOM     30  C   UNL     1      -6.866  -9.074   6.573  0.00  0.00    +0.033 A 
ATOM     31  C   UNL     1      -7.143  -7.867   8.635  0.00  0.00    +0.033 A 
ATOM     33  C   UNL     1      -7.841  -8.254   6.026  0.00  0.00    +0.111 A 
ATOM     34  C   UNL     1      -8.105  -7.101   7.996  0.00  0.00    +0.111 A 
ENDBRANCH  23  26
ENDBRANCH  20   8
TORSDOF 4
ENDMDL
MODEL 6
REMARK VINA RESULT:      -7.4     28.759     31.416
REMARK  Name = 7155625
REMARK  5 active torsions:
REMARK  status: ('A' for Active; 'I' for Inactive)
REMARK    1  A    between atoms: N_7  and  C_22
REMARK    2  A    between atoms: N_8  and  C_20
REMARK    3  A    between atoms: C_23  and  C_26
REMARK    4  A    between atoms: C_29  and  C_32
REMARK    5  A    between atoms: C_32  and  C_35
REMARK                            x       y       z     vdW  Elec       q    Type
REMARK                         _______ _______ _______ _____ _____    ______ ____
ROOT
ATOM      1  O   UNL     1      -8.449  -8.505  17.109  0.00  0.00    -0.266 OA
ATOM      2  O   UNL     1      -5.662 -13.089  14.611  0.00  0.00    -0.252 OA
ATOM      5  N   UNL     1      -5.122 -12.272  16.708  0.00  0.00    -0.284 N 
ATOM      6  N   UNL     1      -7.624 -10.580  17.802  0.00  0.00    -0.310 N 
ATOM      7  N   UNL     1      -4.352 -11.180  14.762  0.00  0.00    -0.269 N 
ATOM     10  C   UNL     1      -5.286 -10.881  18.791  0.00  0.00    +0.027 C 
ATOM     11  C   UNL     1      -6.749 -12.833  18.512  0.00  0.00    +0.054 C 
ATOM     12  C   UNL     1      -5.892 -12.072  19.520  0.00  0.00    +0.018 C 
ATOM     13  C   UNL     1      -4.417 -11.341  17.604  0.00  0.00    +0.114 C 
ATOM     14  C   UNL     1      -6.417  -9.947  18.345  0.00  0.00    +0.130 C 
ATOM     15  C   UNL     1      -5.851 -13.355  17.378  0.00  0.00    +0.119 C 
ATOM     16  C   UNL     1      -7.846 -11.953  17.940  0.00  0.00    +0.027 A 
ATOM     17  C   UNL     1      -9.009 -12.495  17.542  0.00  0.00    +0.024 A 
ATOM     18  C   UNL     1      -8.590  -9.723  17.234  0.00  0.00    +0.273 A 
ATOM     19  C   UNL     1      -5.092 -12.235  15.296  0.00  0.00    +0.306 C 
ATOM     20  C   UNL     1      -9.862 -10.369  16.780  0.00  0.00    +0.099 A 
ATOM     21  C   UNL     1     -10.034 -11.684  16.948  0.00  0.00    +0.030 A 
ATOM     36  H   UNL     1      -3.584 -10.807  15.310  0.00  0.00    +0.156 HD
ENDROOT
BRANCH   7  22
ATOM     22  C   UNL     1      -4.512 -10.577  13.491  0.00  0.00    +0.035 A 
ATOM     24  C   UNL     1      -3.478 -10.640  12.559  0.00  0.00    +0.024 A 
ATOM     25  C   UNL     1      -5.702  -9.925  13.179  0.00  0.00    +0.024 A 
ATOM     27  C   UNL     1      -3.637 -10.048  11.306  0.00  0.00    +0.013 A 
ATOM     28  C   UNL     1      -5.860  -9.333  11.925  0.00  0.00    +0.013 A 
ATOM     29  C   UNL     1      -4.828  -9.395  10.990  0.00  0.00    +0.017 A 
BRANCH  29  32
ATOM      4  O   UNL     1      -4.029  -8.636   8.903  0.00  0.00    -0.292 OA
ATOM     32  C   UNL     1      -4.992  -8.775   9.684  0.00  0.00    +0.160 C 
ATOM     35  C   UNL     1      -6.362  -8.276   9.237  0.00  0.00    +0.091 C 
ENDBRANCH  29  32
ENDBRANCH   7  22
BRANCH  20   8
ATOM      3  O   UNL     1     -11.963  -9.010  18.152  0.00  0.00    -0.270 OA
ATOM      8  N   UNL     1     -10.814  -9.576  16.210  0.00  0.00    -0.277 N 
ATOM     23  C   UNL     1     -11.813  -8.940  16.935  0.00  0.00    +0.248 C 
ATOM     37  H   UNL     1     -10.621  -9.261  15.264  0.00  0.00    +0.155 HD
BRANCH  23  26
ATOM      9  N   UNL     1     -14.483  -6.533  14.669  0.00  0.00    -0.263 NA
ATOM     26  C   UNL     1     -12.747  -8.098  16.143  0.00  0.00    +0.040 A 
ATOM     30  C   UNL     1     -12.337  -6.851  15.737  0.00  0.00    +0.033 A 
ATOM     31  C   UNL     1     -13.994  -8.592  15.839  0.00  0.00    +0.033 A 
ATOM     33  C   UNL     1     -13.244  -6.105  15.000  0.00  0.00    +0.111 A 
ATOM     34  C   UNL     1     -14.827  -7.769  15.097  0.00  0.00    +0.111 A 
ENDBRANCH  23  26
ENDBRANCH  20   8
TORSDOF 4
ENDMDL
MODEL 7
REMARK VINA RESULT:      -7.2     12.361     15.490
REMARK  Name = 7155625
REMARK  5 active torsions:
REMARK  status: ('A' for Active; 'I' for Inactive)
REMARK    1  A    between atoms: N_7  and  C_22
REMARK    2  A    between atoms: N_8  and  C_20
REMARK    3  A    between atoms: C_23  and  C_26
REMARK    4  A    between atoms: C_29  and  C_32
REMARK    5  A    between atoms: C_32  and  C_35
REMARK                            x       y       z     vdW  Elec       q    Type
REMARK                         _______ _______ _______ _____ _____    ______ ____
ROOT
ATOM      1  O   UNL     1      11.240   7.392   1.695  0.00  0.00    -0.266 OA
ATOM      2  O   UNL     1      12.730   6.244   7.306  0.00  0.00    -0.252 OA
ATOM      5  N   UNL     1      10.664   7.088   6.694  0.00  0.00    -0.284 N 
ATOM      6  N   UNL     1      10.207   6.465   3.575  0.00  0.00    -0.310 N 
ATOM      7  N   UNL     1      12.543   8.510   6.843  0.00  0.00    -0.269 N 
ATOM     10  C   UNL     1       8.793   7.844   5.200  0.00  0.00    +0.027 C 
ATOM     11  C   UNL     1       9.130   5.447   5.612  0.00  0.00    +0.054 C 
ATOM     12  C   UNL     1       8.067   6.534   5.472  0.00  0.00    +0.018 C 
ATOM     13  C   UNL     1       9.756   8.195   6.352  0.00  0.00    +0.114 C 
ATOM     14  C   UNL     1       9.525   7.734   3.857  0.00  0.00    +0.130 C 
ATOM     15  C   UNL     1      10.028   5.771   6.817  0.00  0.00    +0.119 C 
ATOM     16  C   UNL     1       9.972   5.329   4.356  0.00  0.00    +0.027 A 
ATOM     17  C   UNL     1      10.514   4.149   4.012  0.00  0.00    +0.024 A 
ATOM     18  C   UNL     1      11.020   6.423   2.424  0.00  0.00    +0.273 A 
ATOM     19  C   UNL     1      12.045   7.212   6.966  0.00  0.00    +0.306 C 
ATOM     20  C   UNL     1      11.626   5.095   2.089  0.00  0.00    +0.099 A 
ATOM     21  C   UNL     1      11.358   4.033   2.857  0.00  0.00    +0.030 A 
ATOM     36  H   UNL     1      11.908   9.284   7.002  0.00  0.00    +0.156 HD
ENDROOT
BRANCH   7  22
ATOM     22  C   UNL     1      13.876   8.894   6.561  0.00  0.00    +0.035 A 
ATOM     24  C   UNL     1      14.803   7.935   6.159  0.00  0.00    +0.024 A 
ATOM     25  C   UNL     1      14.253  10.228   6.686  0.00  0.00    +0.024 A 
ATOM     27  C   UNL     1      16.116   8.314   5.880  0.00  0.00    +0.013 A 
ATOM     28  C   UNL     1      15.567  10.606   6.407  0.00  0.00    +0.013 A 
ATOM     29  C   UNL     1      16.497   9.649   6.004  0.00  0.00    +0.017 A 
BRANCH  29  32
ATOM      4  O   UNL     1      18.359   9.901   4.576  0.00  0.00    -0.292 OA
ATOM     32  C   UNL     1      17.867  10.044   5.714  0.00  0.00    +0.160 C 
ATOM     35  C   UNL     1      18.741  10.647   6.808  0.00  0.00    +0.091 C 
ENDBRANCH  29  32
ENDBRANCH   7  22
BRANCH  20   8
ATOM      3  O   UNL     1      14.478   5.163   2.088  0.00  0.00    -0.270 OA
ATOM      8  N   UNL     1      12.431   5.017   0.993  0.00  0.00    -0.277 N 
ATOM     23  C   UNL     1      13.818   5.055   1.058  0.00  0.00    +0.248 C 
ATOM     37  H   UNL     1      11.991   4.677   0.142  0.00  0.00    +0.155 HD
BRANCH  23  26
ATOM      9  N   UNL     1      15.847   4.706  -2.659  0.00  0.00    -0.263 NA
ATOM     26  C   UNL     1      14.527   4.933  -0.242  0.00  0.00    +0.040 A 
ATOM     30  C   UNL     1      15.899   4.838  -0.245  0.00  0.00    +0.033 A 
ATOM     31  C   UNL     1      13.792   4.919  -1.403  0.00  0.00    +0.033 A 
ATOM     33  C   UNL     1      16.513   4.725  -1.483  0.00  0.00    +0.111 A 
ATOM     34  C   UNL     1      14.500   4.803  -2.589  0.00  0.00    +0.111 A 
ENDBRANCH  23  26
ENDBRANCH  20   8
TORSDOF 4
ENDMDL
MODEL 8
REMARK VINA RESULT:      -7.2     29.006     32.548
REMARK  Name = 7155625
REMARK  5 active torsions:
REMARK  status: ('A' for Active; 'I' for Inactive)
REMARK    1  A    between atoms: N_7  and  C_22
REMARK    2  A    between atoms: N_8  and  C_20
REMARK    3  A    between atoms: C_23  and  C_26
REMARK    4  A    between atoms: C_29  and  C_32
REMARK    5  A    between atoms: C_32  and  C_35
REMARK                            x       y       z     vdW  Elec       q    Type
REMARK                         _______ _______ _______ _____ _____    ______ ____
ROOT
ATOM      1  O   UNL     1     -10.432 -10.197  14.661  0.00  0.00    -0.266 OA
ATOM      2  O   UNL     1     -12.319  -4.933  12.725  0.00  0.00    -0.252 OA
ATOM      5  N   UNL     1     -13.749  -6.594  13.468  0.00  0.00    -0.284 N 
ATOM      6  N   UNL     1     -12.060  -8.638  15.281  0.00  0.00    -0.310 N 
ATOM      7  N   UNL     1     -12.835  -6.686  11.294  0.00  0.00    -0.269 N 
ATOM     10  C   UNL     1     -14.483  -8.773  14.476  0.00  0.00    +0.027 C 
ATOM     11  C   UNL     1     -13.787  -6.928  15.939  0.00  0.00    +0.054 C 
ATOM     12  C   UNL     1     -14.814  -8.044  15.771  0.00  0.00    +0.018 C 
ATOM     13  C   UNL     1     -14.547  -7.815  13.270  0.00  0.00    +0.114 C 
ATOM     14  C   UNL     1     -13.103  -9.427  14.616  0.00  0.00    +0.130 C 
ATOM     15  C   UNL     1     -13.922  -5.938  14.770  0.00  0.00    +0.119 C 
ATOM     16  C   UNL     1     -12.374  -7.476  15.992  0.00  0.00    +0.027 A 
ATOM     17  C   UNL     1     -11.424  -6.834  16.691  0.00  0.00    +0.024 A 
ATOM     18  C   UNL     1     -10.752  -9.167  15.257  0.00  0.00    +0.273 A 
ATOM     19  C   UNL     1     -12.910  -5.994  12.503  0.00  0.00    +0.306 C 
ATOM     20  C   UNL     1      -9.717  -8.408  16.028  0.00  0.00    +0.099 A 
ATOM     21  C   UNL     1     -10.070  -7.310  16.706  0.00  0.00    +0.030 A 
ATOM     36  H   UNL     1     -13.630  -7.252  11.015  0.00  0.00    +0.156 HD
ENDROOT
BRANCH   7  22
ATOM     22  C   UNL     1     -11.777  -6.658  10.354  0.00  0.00    +0.035 A 
ATOM     24  C   UNL     1     -11.517  -5.493   9.637  0.00  0.00    +0.024 A 
ATOM     25  C   UNL     1     -11.001  -7.797  10.153  0.00  0.00    +0.024 A 
ATOM     27  C   UNL     1     -10.473  -5.466   8.713  0.00  0.00    +0.013 A 
ATOM     28  C   UNL     1      -9.956  -7.769   9.228  0.00  0.00    +0.013 A 
ATOM     29  C   UNL     1      -9.693  -6.604   8.509  0.00  0.00    +0.017 A 
BRANCH  29  32
ATOM      4  O   UNL     1      -7.465  -6.179   7.859  0.00  0.00    -0.292 OA
ATOM     32  C   UNL     1      -8.605  -6.576   7.544  0.00  0.00    +0.160 C 
ATOM     35  C   UNL     1      -8.838  -7.035   6.109  0.00  0.00    +0.091 C 
ENDBRANCH  29  32
ENDBRANCH   7  22
BRANCH  20   8
ATOM      3  O   UNL     1      -8.470  -9.949  18.079  0.00  0.00    -0.270 OA
ATOM      8  N   UNL     1      -8.438  -8.877  16.015  0.00  0.00    -0.277 N 
ATOM     23  C   UNL     1      -7.887  -9.625  17.048  0.00  0.00    +0.248 C 
ATOM     37  H   UNL     1      -7.974  -8.876  15.111  0.00  0.00    +0.155 HD
BRANCH  23  26
ATOM      9  N   UNL     1      -3.873 -10.892  16.466  0.00  0.00    -0.263 NA
ATOM     26  C   UNL     1      -6.484 -10.068  16.845  0.00  0.00    +0.040 A 
ATOM     30  C   UNL     1      -5.916  -9.932  15.600  0.00  0.00    +0.033 A 
ATOM     31  C   UNL     1      -5.793 -10.602  17.907  0.00  0.00    +0.033 A 
ATOM     33  C   UNL     1      -4.604 -10.359  15.462  0.00  0.00    +0.111 A 
ATOM     34  C   UNL     1      -4.487 -10.999  17.666  0.00  0.00    +0.111 A 
ENDBRANCH  23  26
ENDBRANCH  20   8
TORSDOF 4
ENDMDL
MODEL 9
REMARK VINA RESULT:      -6.9      3.585      8.082
REMARK  Name = 7155625
REMARK  5 active torsions:
REMARK  status: ('A' for Active; 'I' for Inactive)
REMARK    1  A    between atoms: N_7  and  C_22
REMARK    2  A    between atoms: N_8  and  C_20
REMARK    3  A    between atoms: C_23  and  C_26
REMARK    4  A    between atoms: C_29  and  C_32
REMARK    5  A    between atoms: C_32  and  C_35
REMARK                            x       y       z     vdW  Elec       q    Type
REMARK                         _______ _______ _______ _____ _____    ______ ____
ROOT
ATOM      1  O   UNL     1      17.600   9.932  21.118  0.00  0.00    -0.266 OA
ATOM      2  O   UNL     1      23.077   8.454  19.434  0.00  0.00    -0.252 OA
ATOM      5  N   UNL     1      22.605   9.444  21.472  0.00  0.00    -0.284 N 
ATOM      6  N   UNL     1      19.491   8.986  22.114  0.00  0.00    -0.310 N 
ATOM      7  N   UNL     1      22.718  10.745  19.506  0.00  0.00    -0.269 N 
ATOM     10  C   UNL     1      21.240  10.373  23.363  0.00  0.00    +0.027 C 
ATOM     11  C   UNL     1      21.536   7.944  23.153  0.00  0.00    +0.054 C 
ATOM     12  C   UNL     1      21.494   9.097  24.153  0.00  0.00    +0.018 C 
ATOM     13  C   UNL     1      22.356  10.616  22.327  0.00  0.00    +0.114 C 
ATOM     14  C   UNL     1      19.858  10.278  22.704  0.00  0.00    +0.130 C 
ATOM     15  C   UNL     1      22.707   8.162  22.180  0.00  0.00    +0.119 C 
ATOM     16  C   UNL     1      20.235   7.833  22.380  0.00  0.00    +0.027 A 
ATOM     17  C   UNL     1      19.817   6.638  21.928  0.00  0.00    +0.024 A 
ATOM     18  C   UNL     1      18.299   8.947  21.361  0.00  0.00    +0.273 A 
ATOM     19  C   UNL     1      22.813   9.474  20.075  0.00  0.00    +0.306 C 
ATOM     20  C   UNL     1      17.881   7.602  20.854  0.00  0.00    +0.099 A 
ATOM     21  C   UNL     1      18.617   6.525  21.148  0.00  0.00    +0.030 A 
ATOM     36  H   UNL     1      22.941  11.548  20.084  0.00  0.00    +0.156 HD
ENDROOT
BRANCH   7  22
ATOM     22  C   UNL     1      22.385  11.062  18.166  0.00  0.00    +0.035 A 
ATOM     24  C   UNL     1      21.296  11.888  17.900  0.00  0.00    +0.024 A 
ATOM     25  C   UNL     1      23.151  10.547  17.123  0.00  0.00    +0.024 A 
ATOM     27  C   UNL     1      20.970  12.202  16.581  0.00  0.00    +0.013 A 
ATOM     28  C   UNL     1      22.824  10.861  15.804  0.00  0.00    +0.013 A 
ATOM     29  C   UNL     1      21.734  11.689  15.533  0.00  0.00    +0.017 A 
BRANCH  29  32
ATOM      4  O   UNL     1      22.225  11.897  13.234  0.00  0.00    -0.292 OA
ATOM     32  C   UNL     1      21.393  12.015  14.157  0.00  0.00    +0.160 C 
ATOM     35  C   UNL     1      19.995  12.515  13.809  0.00  0.00    +0.091 C 
ENDBRANCH  29  32
ENDBRANCH   7  22
BRANCH  20   8
ATOM      3  O   UNL     1      15.233   7.238  21.854  0.00  0.00    -0.270 OA
ATOM      8  N   UNL     1      16.743   7.525  20.108  0.00  0.00    -0.277 N 
ATOM     23  C   UNL     1      15.479   7.348  20.656  0.00  0.00    +0.248 C 
ATOM     37  H   UNL     1      16.818   7.854  19.149  0.00  0.00    +0.155 HD
BRANCH  23  26
ATOM      9  N   UNL     1      12.264   7.244  17.879  0.00  0.00    -0.263 NA
ATOM     26  C   UNL     1      14.355   7.311  19.684  0.00  0.00    +0.040 A 
ATOM     30  C   UNL     1      13.115   6.906  20.117  0.00  0.00    +0.033 A 
ATOM     31  C   UNL     1      14.588   7.684  18.382  0.00  0.00    +0.033 A 
ATOM     33  C   UNL     1      12.100   6.890  19.173  0.00  0.00    +0.111 A 
ATOM     34  C   UNL     1      13.507   7.634  17.516  0.00  0.00    +0.111 A 
ENDBRANCH  23  26
ENDBRANCH  20   8
TORSDOF 4
ENDMDL
MODEL 10
REMARK VINA RESULT:      -6.8      5.563     12.056
REMARK  Name = 7155625
REMARK  5 active torsions:
REMARK  status: ('A' for Active; 'I' for Inactive)
REMARK    1  A    between atoms: N_7  and  C_22
REMARK    2  A    between atoms: N_8  and  C_20
REMARK    3  A    between atoms: C_23  and  C_26
REMARK    4  A    between atoms: C_29  and  C_32
REMARK    5  A    between atoms: C_32  and  C_35
REMARK                            x       y       z     vdW  Elec       q    Type
REMARK                         _______ _______ _______ _____ _____    ______ ____
ROOT
ATOM      1  O   UNL     1      23.153   7.374  24.924  0.00  0.00    -0.266 OA
ATOM      2  O   UNL     1      20.755   3.488  21.160  0.00  0.00    -0.252 OA
ATOM      5  N   UNL     1      22.891   4.342  20.905  0.00  0.00    -0.284 N 
ATOM      6  N   UNL     1      23.862   5.484  23.747  0.00  0.00    -0.310 N 
ATOM      7  N   UNL     1      21.009   5.612  20.260  0.00  0.00    -0.269 N 
ATOM     10  C   UNL     1      24.982   5.620  21.451  0.00  0.00    +0.027 C 
ATOM     11  C   UNL     1      24.590   3.428  22.486  0.00  0.00    +0.054 C 
ATOM     12  C   UNL     1      25.656   4.315  21.850  0.00  0.00    +0.018 C 
ATOM     13  C   UNL     1      23.840   5.369  20.446  0.00  0.00    +0.114 C 
ATOM     14  C   UNL     1      24.484   6.326  22.718  0.00  0.00    +0.130 C 
ATOM     15  C   UNL     1      23.502   3.120  21.443  0.00  0.00    +0.119 C 
ATOM     16  C   UNL     1      23.968   4.090  23.701  0.00  0.00    +0.027 A 
ATOM     17  C   UNL     1      23.495   3.342  24.712  0.00  0.00    +0.024 A 
ATOM     18  C   UNL     1      23.252   6.150  24.830  0.00  0.00    +0.273 A 
ATOM     19  C   UNL     1      21.484   4.419  20.807  0.00  0.00    +0.306 C 
ATOM     20  C   UNL     1      22.715   5.280  25.924  0.00  0.00    +0.099 A 
ATOM     21  C   UNL     1      22.855   3.952  25.843  0.00  0.00    +0.030 A 
ATOM     36  H   UNL     1      21.606   6.114  19.612  0.00  0.00    +0.156 HD
ENDROOT
BRANCH   7  22
ATOM     22  C   UNL     1      19.740   6.205  20.467  0.00  0.00    +0.035 A 
ATOM     24  C   UNL     1      19.597   7.230  21.399  0.00  0.00    +0.024 A 
ATOM     25  C   UNL     1      18.642   5.760  19.735  0.00  0.00    +0.024 A 
ATOM     27  C   UNL     1      18.347   7.815  21.600  0.00  0.00    +0.013 A 
ATOM     28  C   UNL     1      17.391   6.345  19.937  0.00  0.00    +0.013 A 
ATOM     29  C   UNL     1      17.245   7.372  20.869  0.00  0.00    +0.017 A 
BRANCH  29  32
ATOM      4  O   UNL     1      15.740   8.782  22.016  0.00  0.00    -0.292 OA
ATOM     32  C   UNL     1      15.940   7.981  21.080  0.00  0.00    +0.160 C 
ATOM     35  C   UNL     1      14.777   7.648  20.152  0.00  0.00    +0.091 C 
ENDBRANCH  29  32
ENDBRANCH   7  22
BRANCH  20   8
ATOM      3  O   UNL     1      20.024   6.225  25.996  0.00  0.00    -0.270 OA
ATOM      8  N   UNL     1      22.103   5.885  26.981  0.00  0.00    -0.277 N 
ATOM     23  C   UNL     1      20.786   6.324  26.954  0.00  0.00    +0.248 C 
ATOM     37  H   UNL     1      22.565   5.781  27.880  0.00  0.00    +0.155 HD
BRANCH  23  26
ATOM      9  N   UNL     1      19.357   8.084  30.547  0.00  0.00    -0.263 NA
ATOM     26  C   UNL     1      20.286   6.939  28.210  0.00  0.00    +0.040 A 
ATOM     30  C   UNL     1      20.110   6.143  29.317  0.00  0.00    +0.033 A 
ATOM     31  C   UNL     1      20.014   8.286  28.230  0.00  0.00    +0.033 A 
ATOM     33  C   UNL     1      19.643   6.765  30.465  0.00  0.00    +0.111 A 
ATOM     34  C   UNL     1      19.551   8.813  29.425  0.00  0.00    +0.111 A 
ENDBRANCH  23  26
ENDBRANCH  20   8
TORSDOF 4
ENDMDL
