REMARK  Name = 11883053
REMARK  10 active torsions:
REMARK  status: ('A' for Active; 'I' for Inactive)
REMARK    1  A    between atoms: O_4  and  C_16
REMARK    2  A    between atoms: O_5  and  C_21
REMARK    3  A    between atoms: N_9  and  C_27
REMARK    4  A    between atoms: C_11  and  C_19
REMARK    5  A    between atoms: C_13  and  C_21
REMARK    6  A    between atoms: C_13  and  C_22
REMARK    7  A    between atoms: C_14  and  C_24
REMARK    8  A    between atoms: C_24  and  C_25
REMARK    9  A    between atoms: C_27  and  C_30
REMARK   10  A    between atoms: C_28  and  C_29
REMARK                            x       y       z     vdW  Elec       q    Type
REMARK                         _______ _______ _______ _____ _____    ______ ____
ROOT
ATOM      1  S   UNL     1       0.189   2.362  -0.361  0.00  0.00    -0.057 S 
ATOM      7  O   UNL     1       3.371  -0.924   0.503  0.00  0.00    -0.270 OA
ATOM      8  N   UNL     1       0.534  -0.127   0.256  0.00  0.00    -0.229 NA
ATOM     10  N   UNL     1       2.521   1.207  -0.033  0.00  0.00    -0.261 N 
ATOM     11  C   UNL     1      -3.289  -0.419   0.669  0.00  0.00    -0.019 C 
ATOM     12  C   UNL     1      -3.572   0.689  -0.439  0.00  0.00    +0.011 C 
ATOM     13  C   UNL     1      -5.075   1.120  -0.652  0.00  0.00    +0.021 C 
ATOM     14  C   UNL     1      -1.825  -1.007   0.415  0.00  0.00    +0.054 C 
ATOM     15  C   UNL     1      -4.312  -1.574   0.518  0.00  0.00    +0.010 C 
ATOM     16  C   UNL     1      -5.966  -0.152  -0.736  0.00  0.00    +0.123 C 
ATOM     17  C   UNL     1      -2.588   1.888  -0.310  0.00  0.00    +0.049 C 
ATOM     18  C   UNL     1      -5.759  -1.108   0.433  0.00  0.00    +0.032 C 
ATOM     19  C   UNL     1      -3.377   0.138   2.112  0.00  0.00    +0.012 C 
ATOM     20  C   UNL     1      -0.828   0.100   0.185  0.00  0.00    +0.058 A 
ATOM     22  C   UNL     1      -5.201   1.863  -2.012  0.00  0.00    +0.016 C 
ATOM     23  C   UNL     1      -1.192   1.387  -0.157  0.00  0.00    +0.015 A 
ATOM     26  C   UNL     1       1.167   0.996  -0.006  0.00  0.00    +0.165 A 
ATOM     28  C   UNL     1       3.525   0.258   0.217  0.00  0.00    +0.255 C 
ATOM     40  H   UNL     1       2.787   2.155  -0.283  0.00  0.00    +0.157 HD
ENDROOT
BRANCH  28  29
ATOM      2  F   UNL     1       4.208   2.926   0.747  0.00  0.00    -0.205 F 
ATOM      3  F   UNL     1       5.639  -1.407  -0.570  0.00  0.00    -0.205 F 
ATOM     29  C   UNL     1       4.919   0.758   0.088  0.00  0.00    +0.107 A 
ATOM     31  C   UNL     1       5.179   2.083   0.366  0.00  0.00    +0.138 A 
ATOM     32  C   UNL     1       5.907  -0.121  -0.304  0.00  0.00    +0.138 A 
ATOM     34  C   UNL     1       6.487   2.552   0.245  0.00  0.00    +0.039 A 
ATOM     35  C   UNL     1       7.215   0.348  -0.425  0.00  0.00    +0.039 A 
ATOM     36  C   UNL     1       7.505   1.684  -0.150  0.00  0.00    +0.006 A 
ENDBRANCH  28  29
BRANCH  16   4
ATOM      4  O   UNL     1      -7.346   0.205  -0.799  0.00  0.00    -0.391 OA
ATOM     37  H   UNL     1      -7.532   0.528  -1.696  0.00  0.00    +0.210 HD
ENDBRANCH  16   4
BRANCH  13  21
ATOM     21  C   UNL     1      -5.616   2.102   0.410  0.00  0.00    +0.165 C 
BRANCH  21   5
ATOM      5  O   UNL     1      -6.954   2.400   0.081  0.00  0.00    -0.394 OA
ATOM     38  H   UNL     1      -6.953   3.151  -0.536  0.00  0.00    +0.209 HD
ENDBRANCH  21   5
ENDBRANCH  13  21
BRANCH  14  24
ATOM     24  C   UNL     1      -1.336  -1.988   1.489  0.00  0.00    +0.106 C 
BRANCH  24  25
ATOM      6  O   UNL     1       1.008  -2.512   1.782  0.00  0.00    -0.276 OA
ATOM      9  N   UNL     1      -0.131  -3.343  -0.066  0.00  0.00    -0.304 N 
ATOM     25  C   UNL     1      -0.018  -2.626   1.117  0.00  0.00    +0.214 C 
ATOM     39  H   UNL     1      -1.034  -3.423  -0.523  0.00  0.00    +0.150 HD
BRANCH   9  27
ATOM     27  C   UNL     1       0.974  -4.056  -0.665  0.00  0.00    +0.193 C 
BRANCH  27  30
ATOM     30  C   UNL     1       1.713  -3.200  -1.592  0.00  0.00    -0.087 C 
ATOM     33  C   UNL     1       2.322  -2.500  -2.355  0.00  0.00    +0.005 C 
ENDBRANCH  27  30
ENDBRANCH   9  27
ENDBRANCH  24  25
ENDBRANCH  14  24
TORSDOF 8
