REMARK  Name = 26744082
REMARK  6 active torsions:
REMARK  status: ('A' for Active; 'I' for Inactive)
REMARK    1  A    between atoms: O_2  and  C_9
REMARK    2  A    between atoms: N_4  and  C_11
REMARK    3  A    between atoms: C_7  and  C_12
REMARK    4  A    between atoms: C_11  and  C_13
REMARK    5  A    between atoms: C_14  and  C_17
REMARK    6  A    between atoms: C_17  and  C_20
REMARK                            x       y       z     vdW  Elec       q    Type
REMARK                         _______ _______ _______ _____ _____    ______ ____
ROOT
ATOM      4  N   UNL     1       1.924   1.141   0.225  0.00  0.00    -0.285 NA
ATOM      7  C   UNL     1       1.214   2.382   0.595  0.00  0.00    +0.149 C 
ATOM      8  C   UNL     1       1.891   3.487  -0.237  0.00  0.00    +0.061 C 
ATOM      9  C   UNL     1       2.997   2.778  -1.009  0.00  0.00    +0.130 C 
ATOM     10  C   UNL     1       3.272   1.540  -0.176  0.00  0.00    +0.116 C 
ENDROOT
BRANCH   7  12
ATOM      3  O   UNL     1      -1.068   3.071   1.139  0.00  0.00    -0.336 OA
ATOM      5  N   UNL     1      -0.935   1.572  -0.519  0.00  0.00    -0.194 NA
ATOM      6  N   UNL     1      -2.385   2.822   0.733  0.00  0.00    -0.061 NA
ATOM     12  C   UNL     1      -0.278   2.296   0.351  0.00  0.00    +0.245 A 
ATOM     14  C   UNL     1      -2.224   1.928  -0.247  0.00  0.00    +0.176 A 
BRANCH  14  17
ATOM     17  C   UNL     1      -3.363   1.367  -0.981  0.00  0.00    +0.114 C 
BRANCH  17  20
ATOM     20  C   UNL     1      -3.765  -0.043  -0.557  0.00  0.00    -0.040 A 
ATOM     22  C   UNL     1      -3.050  -1.143  -1.029  0.00  0.00    +0.004 A 
ATOM     23  C   UNL     1      -4.847  -0.230   0.303  0.00  0.00    +0.004 A 
ATOM     24  C   UNL     1      -3.417  -2.432  -0.641  0.00  0.00    +0.000 A 
ATOM     25  C   UNL     1      -5.214  -1.519   0.691  0.00  0.00    +0.000 A 
ATOM     26  C   UNL     1      -4.499  -2.620   0.219  0.00  0.00    +0.000 A 
ENDBRANCH  17  20
ENDBRANCH  14  17
ENDBRANCH   7  12
BRANCH   9   2
ATOM      2  O   UNL     1       4.141   3.602  -1.117  0.00  0.00    -0.390 OA
ATOM     27  H   UNL     1       3.876   4.408  -1.593  0.00  0.00    +0.210 HD
ENDBRANCH   9   2
BRANCH   4  11
ATOM     11  C   UNL     1       1.940   0.149   1.291  0.00  0.00    +0.120 C 
BRANCH  11  13
ATOM      1  F   UNL     1       2.940  -5.034  -0.683  0.00  0.00    -0.205 F 
ATOM     13  C   UNL     1       2.207  -1.236   0.764  0.00  0.00    -0.033 A 
ATOM     15  C   UNL     1       1.144  -2.052   0.375  0.00  0.00    +0.008 A 
ATOM     16  C   UNL     1       3.518  -1.704   0.663  0.00  0.00    +0.008 A 
ATOM     18  C   UNL     1       1.392  -3.335  -0.113  0.00  0.00    +0.038 A 
ATOM     19  C   UNL     1       3.765  -2.986   0.175  0.00  0.00    +0.038 A 
ATOM     21  C   UNL     1       2.702  -3.802  -0.213  0.00  0.00    +0.123 A 
ENDBRANCH  11  13
ENDBRANCH   4  11
TORSDOF 6
