MODEL 1
REMARK VINA RESULT:      -8.0      0.000      0.000
REMARK  Name = 75536084
REMARK  6 active torsions:
REMARK  status: ('A' for Active; 'I' for Inactive)
REMARK    1  A    between atoms: O_5  and  C_13
REMARK    2  A    between atoms: O_6  and  C_15
REMARK    3  A    between atoms: N_8  and  C_12
REMARK    4  A    between atoms: C_11  and  C_16
REMARK    5  A    between atoms: C_19  and  C_22
REMARK    6  A    between atoms: C_21  and  C_23
REMARK                            x       y       z     vdW  Elec       q    Type
REMARK                         _______ _______ _______ _____ _____    ______ ____
ROOT
ATOM     11  C   UNL     1      14.032   9.058  18.911  0.00  0.00    +0.046 C 
ATOM     12  C   UNL     1      12.818   8.862  19.846  0.00  0.00    +0.112 C 
ATOM     13  C   UNL     1      11.621   8.961  18.903  0.00  0.00    +0.164 C 
ATOM     14  C   UNL     1      13.539   8.667  17.493  0.00  0.00    +0.044 C 
ATOM     15  C   UNL     1      12.092   8.208  17.666  0.00  0.00    +0.145 C 
ENDROOT
BRANCH  11  16
ATOM      9  N   UNL     1      17.327   8.299  20.629  0.00  0.00    -0.251 NA
ATOM     16  C   UNL     1      15.263   8.306  19.371  0.00  0.00    -0.024 A 
ATOM     17  C   UNL     1      15.480   6.986  18.992  0.00  0.00    +0.007 A 
ATOM     18  C   UNL     1      16.208   8.912  20.183  0.00  0.00    +0.115 A 
ATOM     20  C   UNL     1      16.620   6.321  19.430  0.00  0.00    +0.032 A 
ATOM     21  C   UNL     1      17.505   7.016  20.240  0.00  0.00    +0.144 A 
BRANCH  21  23
ATOM      2  F   UNL     1      18.722   6.125  22.078  0.00  0.00    -0.164 F 
ATOM      3  F   UNL     1      18.943   5.105  20.169  0.00  0.00    -0.164 F 
ATOM      4  F   UNL     1      19.885   7.034  20.480  0.00  0.00    -0.164 F 
ATOM     23  C   UNL     1      18.739   6.334  20.730  0.00  0.00    +0.434 C 
ENDBRANCH  21  23
ENDBRANCH  11  16
BRANCH  12   8
ATOM      7  O   UNL     1      11.451   8.655  22.363  0.00  0.00    -0.268 OA
ATOM      8  N   UNL     1      12.769   9.862  20.884  0.00  0.00    -0.304 N 
ATOM     19  C   UNL     1      12.079   9.670  22.073  0.00  0.00    +0.270 C 
ATOM     30  H   UNL     1      13.290  10.723  20.751  0.00  0.00    +0.149 HD
BRANCH  19  22
ATOM      1  S   UNL     1      13.582  11.561  23.445  0.00  0.00    -0.063 S 
ATOM     10  N   UNL     1      11.022  11.285  23.600  0.00  0.00    -0.234 NA
ATOM     22  C   UNL     1      12.104  10.807  23.031  0.00  0.00    +0.164 A 
ATOM     24  C   UNL     1      12.729  12.639  24.486  0.00  0.00    +0.040 A 
ATOM     25  C   UNL     1      11.365  12.337  24.437  0.00  0.00    +0.079 A 
ATOM     26  C   UNL     1      13.230  13.677  25.287  0.00  0.00    +0.017 A 
ATOM     27  C   UNL     1      10.473  13.102  25.220  0.00  0.00    +0.029 A 
ATOM     28  C   UNL     1      12.326  14.419  26.051  0.00  0.00    +0.001 A 
ATOM     29  C   UNL     1      10.965  14.137  26.019  0.00  0.00    +0.002 A 
ENDBRANCH  19  22
ENDBRANCH  12   8
BRANCH  13   5
ATOM      5  O   UNL     1      10.457   8.369  19.449  0.00  0.00    -0.387 OA
ATOM     31  H   UNL     1       9.699   8.917  19.183  0.00  0.00    +0.210 HD
ENDBRANCH  13   5
BRANCH  15   6
ATOM      6  O   UNL     1      12.085   6.801  17.890  0.00  0.00    -0.389 OA
ATOM     32  H   UNL     1      12.646   6.626  18.665  0.00  0.00    +0.210 HD
ENDBRANCH  15   6
TORSDOF 6
ENDMDL
MODEL 2
REMARK VINA RESULT:      -7.4      4.611      7.608
REMARK  Name = 75536084
REMARK  6 active torsions:
REMARK  status: ('A' for Active; 'I' for Inactive)
REMARK    1  A    between atoms: O_5  and  C_13
REMARK    2  A    between atoms: O_6  and  C_15
REMARK    3  A    between atoms: N_8  and  C_12
REMARK    4  A    between atoms: C_11  and  C_16
REMARK    5  A    between atoms: C_19  and  C_22
REMARK    6  A    between atoms: C_21  and  C_23
REMARK                            x       y       z     vdW  Elec       q    Type
REMARK                         _______ _______ _______ _____ _____    ______ ____
ROOT
ATOM     11  C   UNL     1      13.181   9.267  20.380  0.00  0.00    +0.046 C 
ATOM     12  C   UNL     1      13.353   7.736  20.481  0.00  0.00    +0.112 C 
ATOM     13  C   UNL     1      12.417   7.346  21.623  0.00  0.00    +0.164 C 
ATOM     14  C   UNL     1      11.795   9.578  21.004  0.00  0.00    +0.044 C 
ATOM     15  C   UNL     1      11.196   8.225  21.385  0.00  0.00    +0.145 C 
ENDROOT
BRANCH  11  16
ATOM      9  N   UNL     1      14.446  11.348  17.471  0.00  0.00    -0.251 NA
ATOM     16  C   UNL     1      13.361   9.793  18.972  0.00  0.00    -0.024 A 
ATOM     17  C   UNL     1      12.653   9.247  17.906  0.00  0.00    +0.007 A 
ATOM     18  C   UNL     1      14.237  10.832  18.703  0.00  0.00    +0.115 A 
ATOM     20  C   UNL     1      12.840   9.751  16.624  0.00  0.00    +0.032 A 
ATOM     21  C   UNL     1      13.740  10.792  16.461  0.00  0.00    +0.144 A 
BRANCH  21  23
ATOM      2  F   UNL     1      14.304  12.679  15.127  0.00  0.00    -0.164 F 
ATOM      3  F   UNL     1      14.969  10.737  14.409  0.00  0.00    -0.164 F 
ATOM      4  F   UNL     1      12.871  11.276  14.285  0.00  0.00    -0.164 F 
ATOM     23  C   UNL     1      13.966  11.357  15.098  0.00  0.00    +0.434 C 
ENDBRANCH  21  23
ENDBRANCH  11  16
BRANCH  12   8
ATOM      7  O   UNL     1      15.348   6.998  18.551  0.00  0.00    -0.268 OA
ATOM      8  N   UNL     1      14.719   7.363  20.754  0.00  0.00    -0.304 N 
ATOM     19  C   UNL     1      15.614   7.020  19.750  0.00  0.00    +0.270 C 
ATOM     30  H   UNL     1      15.045   7.387  21.716  0.00  0.00    +0.149 HD
BRANCH  19  22
ATOM      1  S   UNL     1      17.946   5.599  19.242  0.00  0.00    -0.063 S 
ATOM     10  N   UNL     1      17.506   7.055  21.324  0.00  0.00    -0.234 NA
ATOM     22  C   UNL     1      16.978   6.635  20.198  0.00  0.00    +0.164 A 
ATOM     24  C   UNL     1      19.202   5.701  20.418  0.00  0.00    +0.040 A 
ATOM     25  C   UNL     1      18.782   6.529  21.464  0.00  0.00    +0.079 A 
ATOM     26  C   UNL     1      20.468   5.094  20.417  0.00  0.00    +0.017 A 
ATOM     27  C   UNL     1      19.661   6.754  22.545  0.00  0.00    +0.029 A 
ATOM     28  C   UNL     1      21.319   5.335  21.498  0.00  0.00    +0.001 A 
ATOM     29  C   UNL     1      20.923   6.153  22.549  0.00  0.00    +0.002 A 
ENDBRANCH  19  22
ENDBRANCH  12   8
BRANCH  13   5
ATOM      5  O   UNL     1      12.072   5.973  21.591  0.00  0.00    -0.387 OA
ATOM     31  H   UNL     1      11.105   5.913  21.670  0.00  0.00    +0.210 HD
ENDBRANCH  13   5
BRANCH  15   6
ATOM      6  O   UNL     1      10.425   7.743  20.288  0.00  0.00    -0.389 OA
ATOM     32  H   UNL     1      10.846   6.927  19.971  0.00  0.00    +0.210 HD
ENDBRANCH  15   6
TORSDOF 6
ENDMDL
MODEL 3
REMARK VINA RESULT:      -7.1      4.284      7.833
REMARK  Name = 75536084
REMARK  6 active torsions:
REMARK  status: ('A' for Active; 'I' for Inactive)
REMARK    1  A    between atoms: O_5  and  C_13
REMARK    2  A    between atoms: O_6  and  C_15
REMARK    3  A    between atoms: N_8  and  C_12
REMARK    4  A    between atoms: C_11  and  C_16
REMARK    5  A    between atoms: C_19  and  C_22
REMARK    6  A    between atoms: C_21  and  C_23
REMARK                            x       y       z     vdW  Elec       q    Type
REMARK                         _______ _______ _______ _____ _____    ______ ____
ROOT
ATOM     11  C   UNL     1      12.616   8.862  22.075  0.00  0.00    +0.046 C 
ATOM     12  C   UNL     1      13.060   7.938  20.920  0.00  0.00    +0.112 C 
ATOM     13  C   UNL     1      12.108   6.749  21.028  0.00  0.00    +0.164 C 
ATOM     14  C   UNL     1      11.144   8.480  22.380  0.00  0.00    +0.044 C 
ATOM     15  C   UNL     1      10.773   7.404  21.361  0.00  0.00    +0.145 C 
ENDROOT
BRANCH  11  16
ATOM      9  N   UNL     1      13.521  12.515  22.547  0.00  0.00    -0.251 NA
ATOM     16  C   UNL     1      12.830  10.331  21.776  0.00  0.00    -0.024 A 
ATOM     17  C   UNL     1      12.551  10.854  20.518  0.00  0.00    +0.007 A 
ATOM     18  C   UNL     1      13.308  11.196  22.747  0.00  0.00    +0.115 A 
ATOM     20  C   UNL     1      12.758  12.207  20.273  0.00  0.00    +0.032 A 
ATOM     21  C   UNL     1      13.240  12.988  21.311  0.00  0.00    +0.144 A 
BRANCH  21  23
ATOM      2  F   UNL     1      12.665  15.231  21.851  0.00  0.00    -0.164 F 
ATOM      3  F   UNL     1      14.749  14.844  21.365  0.00  0.00    -0.164 F 
ATOM      4  F   UNL     1      13.253  14.838  19.794  0.00  0.00    -0.164 F 
ATOM     23  C   UNL     1      13.474  14.445  21.084  0.00  0.00    +0.434 C 
ENDBRANCH  21  23
ENDBRANCH  11  16
BRANCH  12   8
ATOM      7  O   UNL     1      14.831   7.181  18.790  0.00  0.00    -0.268 OA
ATOM      8  N   UNL     1      14.439   7.537  21.048  0.00  0.00    -0.304 N 
ATOM     19  C   UNL     1      15.219   7.187  19.955  0.00  0.00    +0.270 C 
ATOM     30  H   UNL     1      14.861   7.545  21.972  0.00  0.00    +0.149 HD
BRANCH  19  22
ATOM      1  S   UNL     1      17.453   5.714  19.208  0.00  0.00    -0.063 S 
ATOM     10  N   UNL     1      17.266   7.180  21.321  0.00  0.00    -0.234 NA
ATOM     22  C   UNL     1      16.614   6.771  20.257  0.00  0.00    +0.164 A 
ATOM     24  C   UNL     1      18.828   5.789  20.245  0.00  0.00    +0.040 A 
ATOM     25  C   UNL     1      18.538   6.625  21.326  0.00  0.00    +0.079 A 
ATOM     26  C   UNL     1      20.073   5.153  20.111  0.00  0.00    +0.017 A 
ATOM     27  C   UNL     1      19.531   6.831  22.309  0.00  0.00    +0.029 A 
ATOM     28  C   UNL     1      21.038   5.375  21.096  0.00  0.00    +0.001 A 
ATOM     29  C   UNL     1      20.773   6.202  22.182  0.00  0.00    +0.002 A 
ENDBRANCH  19  22
ENDBRANCH  12   8
BRANCH  13   5
ATOM      5  O   UNL     1      12.029   6.012  19.822  0.00  0.00    -0.387 OA
ATOM     31  H   UNL     1      11.108   6.054  19.514  0.00  0.00    +0.210 HD
ENDBRANCH  13   5
BRANCH  15   6
ATOM      6  O   UNL     1      10.214   8.036  20.214  0.00  0.00    -0.389 OA
ATOM     32  H   UNL     1       9.355   8.408  20.474  0.00  0.00    +0.210 HD
ENDBRANCH  15   6
TORSDOF 6
ENDMDL
MODEL 4
REMARK VINA RESULT:      -6.8     28.287     30.350
REMARK  Name = 75536084
REMARK  6 active torsions:
REMARK  status: ('A' for Active; 'I' for Inactive)
REMARK    1  A    between atoms: O_5  and  C_13
REMARK    2  A    between atoms: O_6  and  C_15
REMARK    3  A    between atoms: N_8  and  C_12
REMARK    4  A    between atoms: C_11  and  C_16
REMARK    5  A    between atoms: C_19  and  C_22
REMARK    6  A    between atoms: C_21  and  C_23
REMARK                            x       y       z     vdW  Elec       q    Type
REMARK                         _______ _______ _______ _____ _____    ______ ____
ROOT
ATOM     11  C   UNL     1     -16.779   4.258  24.109  0.00  0.00    +0.046 C 
ATOM     12  C   UNL     1     -16.190   2.989  24.764  0.00  0.00    +0.112 C 
ATOM     13  C   UNL     1     -17.357   2.004  24.744  0.00  0.00    +0.164 C 
ATOM     14  C   UNL     1     -17.973   3.773  23.246  0.00  0.00    +0.044 C 
ATOM     15  C   UNL     1     -17.996   2.251  23.383  0.00  0.00    +0.145 C 
ENDROOT
BRANCH  11  16
ATOM      9  N   UNL     1     -13.683   5.119  22.093  0.00  0.00    -0.251 NA
ATOM     16  C   UNL     1     -15.749   5.066  23.348  0.00  0.00    -0.024 A 
ATOM     17  C   UNL     1     -15.887   6.441  23.194  0.00  0.00    +0.007 A 
ATOM     18  C   UNL     1     -14.639   4.458  22.784  0.00  0.00    +0.115 A 
ATOM     20  C   UNL     1     -14.924   7.156  22.490  0.00  0.00    +0.032 A 
ATOM     21  C   UNL     1     -13.851   6.455  21.964  0.00  0.00    +0.144 A 
BRANCH  21  23
ATOM      2  F   UNL     1     -13.119   7.345  19.884  0.00  0.00    -0.164 F 
ATOM      3  F   UNL     1     -12.562   8.449  21.673  0.00  0.00    -0.164 F 
ATOM      4  F   UNL     1     -11.582   6.570  21.214  0.00  0.00    -0.164 F 
ATOM     23  C   UNL     1     -12.799   7.190  21.201  0.00  0.00    +0.434 C 
ENDBRANCH  21  23
ENDBRANCH  11  16
BRANCH  12   8
ATOM      7  O   UNL     1     -17.807   3.273  27.121  0.00  0.00    -0.268 OA
ATOM      8  N   UNL     1     -15.722   3.241  26.104  0.00  0.00    -0.304 N 
ATOM     19  C   UNL     1     -16.584   3.363  27.186  0.00  0.00    +0.270 C 
ATOM     30  H   UNL     1     -14.721   3.296  26.265  0.00  0.00    +0.149 HD
BRANCH  19  22
ATOM      1  S   UNL     1     -16.482   4.957  29.459  0.00  0.00    -0.063 S 
ATOM     10  N   UNL     1     -14.957   2.932  28.982  0.00  0.00    -0.234 NA
ATOM     22  C   UNL     1     -15.945   3.648  28.498  0.00  0.00    +0.164 A 
ATOM     24  C   UNL     1     -15.300   4.555  30.649  0.00  0.00    +0.040 A 
ATOM     25  C   UNL     1     -14.577   3.440  30.216  0.00  0.00    +0.079 A 
ATOM     26  C   UNL     1     -15.032   5.182  31.876  0.00  0.00    +0.017 A 
ATOM     27  C   UNL     1     -13.549   2.936  31.042  0.00  0.00    +0.029 A 
ATOM     28  C   UNL     1     -14.011   4.663  32.675  0.00  0.00    +0.001 A 
ATOM     29  C   UNL     1     -13.278   3.555  32.265  0.00  0.00    +0.002 A 
ENDBRANCH  19  22
ENDBRANCH  12   8
BRANCH  13   5
ATOM      5  O   UNL     1     -16.928   0.661  24.870  0.00  0.00    -0.387 OA
ATOM     31  H   UNL     1     -16.498   0.412  24.034  0.00  0.00    +0.210 HD
ENDBRANCH  13   5
BRANCH  15   6
ATOM      6  O   UNL     1     -17.207   1.689  22.339  0.00  0.00    -0.389 OA
ATOM     32  H   UNL     1     -16.397   1.335  22.742  0.00  0.00    +0.210 HD
ENDBRANCH  15   6
TORSDOF 6
ENDMDL
MODEL 5
REMARK VINA RESULT:      -6.8      5.136      8.418
REMARK  Name = 75536084
REMARK  6 active torsions:
REMARK  status: ('A' for Active; 'I' for Inactive)
REMARK    1  A    between atoms: O_5  and  C_13
REMARK    2  A    between atoms: O_6  and  C_15
REMARK    3  A    between atoms: N_8  and  C_12
REMARK    4  A    between atoms: C_11  and  C_16
REMARK    5  A    between atoms: C_19  and  C_22
REMARK    6  A    between atoms: C_21  and  C_23
REMARK                            x       y       z     vdW  Elec       q    Type
REMARK                         _______ _______ _______ _____ _____    ______ ____
ROOT
ATOM     11  C   UNL     1      13.115   9.097  20.710  0.00  0.00    +0.046 C 
ATOM     12  C   UNL     1      12.690   8.849  19.246  0.00  0.00    +0.112 C 
ATOM     13  C   UNL     1      12.854   7.340  19.077  0.00  0.00    +0.164 C 
ATOM     14  C   UNL     1      12.920   7.742  21.441  0.00  0.00    +0.044 C 
ATOM     15  C   UNL     1      12.339   6.786  20.400  0.00  0.00    +0.145 C 
ENDROOT
BRANCH  11  16
ATOM      9  N   UNL     1      11.876  12.623  21.360  0.00  0.00    -0.251 NA
ATOM     16  C   UNL     1      12.387  10.260  21.351  0.00  0.00    -0.024 A 
ATOM     17  C   UNL     1      11.586  10.074  22.473  0.00  0.00    +0.007 A 
ATOM     18  C   UNL     1      12.498  11.542  20.838  0.00  0.00    +0.115 A 
ATOM     20  C   UNL     1      10.930  11.161  23.039  0.00  0.00    +0.032 A 
ATOM     21  C   UNL     1      11.106  12.404  22.450  0.00  0.00    +0.144 A 
BRANCH  21  23
ATOM      2  F   UNL     1       9.450  14.092  22.209  0.00  0.00    -0.164 F 
ATOM      3  F   UNL     1       9.793  13.337  24.219  0.00  0.00    -0.164 F 
ATOM      4  F   UNL     1      11.256  14.640  23.288  0.00  0.00    -0.164 F 
ATOM     23  C   UNL     1      10.417  13.593  23.032  0.00  0.00    +0.434 C 
ENDBRANCH  21  23
ENDBRANCH  11  16
BRANCH  12   8
ATOM      7  O   UNL     1      12.041   9.482  16.521  0.00  0.00    -0.268 OA
ATOM      8  N   UNL     1      13.508   9.587  18.315  0.00  0.00    -0.304 N 
ATOM     19  C   UNL     1      13.107   9.844  17.011  0.00  0.00    +0.270 C 
ATOM     30  H   UNL     1      14.394   9.960  18.639  0.00  0.00    +0.149 HD
BRANCH  19  22
ATOM      1  S   UNL     1      15.201  11.665  16.883  0.00  0.00    -0.063 S 
ATOM     10  N   UNL     1      14.120  10.484  14.862  0.00  0.00    -0.234 NA
ATOM     22  C   UNL     1      14.074  10.595  16.169  0.00  0.00    +0.164 A 
ATOM     24  C   UNL     1      15.828  12.034  15.320  0.00  0.00    +0.040 A 
ATOM     25  C   UNL     1      15.122  11.303  14.361  0.00  0.00    +0.079 A 
ATOM     26  C   UNL     1      16.871  12.907  14.969  0.00  0.00    +0.017 A 
ATOM     27  C   UNL     1      15.472  11.453  13.001  0.00  0.00    +0.029 A 
ATOM     28  C   UNL     1      17.198  13.036  13.617  0.00  0.00    +0.001 A 
ATOM     29  C   UNL     1      16.509  12.320  12.644  0.00  0.00    +0.002 A 
ENDBRANCH  19  22
ENDBRANCH  12   8
BRANCH  13   5
ATOM      5  O   UNL     1      12.104   6.838  17.987  0.00  0.00    -0.387 OA
ATOM     31  H   UNL     1      12.735   6.498  17.330  0.00  0.00    +0.210 HD
ENDBRANCH  13   5
BRANCH  15   6
ATOM      6  O   UNL     1      10.918   6.853  20.464  0.00  0.00    -0.389 OA
ATOM     32  H   UNL     1      10.613   6.095  20.990  0.00  0.00    +0.210 HD
ENDBRANCH  15   6
TORSDOF 6
ENDMDL
MODEL 6
REMARK VINA RESULT:      -6.7     15.778     19.712
REMARK  Name = 75536084
REMARK  6 active torsions:
REMARK  status: ('A' for Active; 'I' for Inactive)
REMARK    1  A    between atoms: O_5  and  C_13
REMARK    2  A    between atoms: O_6  and  C_15
REMARK    3  A    between atoms: N_8  and  C_12
REMARK    4  A    between atoms: C_11  and  C_16
REMARK    5  A    between atoms: C_19  and  C_22
REMARK    6  A    between atoms: C_21  and  C_23
REMARK                            x       y       z     vdW  Elec       q    Type
REMARK                         _______ _______ _______ _____ _____    ______ ____
ROOT
ATOM     11  C   UNL     1       8.322   8.109   4.461  0.00  0.00    +0.046 C 
ATOM     12  C   UNL     1       9.595   8.529   3.693  0.00  0.00    +0.112 C 
ATOM     13  C   UNL     1       9.210   9.871   3.072  0.00  0.00    +0.164 C 
ATOM     14  C   UNL     1       7.543   9.422   4.738  0.00  0.00    +0.044 C 
ATOM     15  C   UNL     1       8.412  10.548   4.180  0.00  0.00    +0.145 C 
ENDROOT
BRANCH  11  16
ATOM      9  N   UNL     1       8.718   7.151   8.110  0.00  0.00    -0.251 NA
ATOM     16  C   UNL     1       8.620   7.289   5.698  0.00  0.00    -0.024 A 
ATOM     17  C   UNL     1       9.052   5.971   5.598  0.00  0.00    +0.007 A 
ATOM     18  C   UNL     1       8.470   7.827   6.966  0.00  0.00    +0.115 A 
ATOM     20  C   UNL     1       9.318   5.242   6.752  0.00  0.00    +0.032 A 
ATOM     21  C   UNL     1       9.136   5.873   7.973  0.00  0.00    +0.144 A 
BRANCH  21  23
ATOM      2  F   UNL     1       9.519   3.776   9.028  0.00  0.00    -0.164 F 
ATOM      3  F   UNL     1      10.571   5.493   9.849  0.00  0.00    -0.164 F 
ATOM      4  F   UNL     1       8.439   5.271  10.181  0.00  0.00    -0.164 F 
ATOM     23  C   UNL     1       9.411   5.121   9.233  0.00  0.00    +0.434 C 
ENDBRANCH  21  23
ENDBRANCH  11  16
BRANCH  12   8
ATOM      7  O   UNL     1      11.943   6.876   3.694  0.00  0.00    -0.268 OA
ATOM      8  N   UNL     1       9.966   7.560   2.691  0.00  0.00    -0.304 N 
ATOM     19  C   UNL     1      11.127   6.804   2.779  0.00  0.00    +0.270 C 
ATOM     30  H   UNL     1       9.335   7.403   1.912  0.00  0.00    +0.149 HD
BRANCH  19  22
ATOM      1  S   UNL     1      12.699   4.780   1.706  0.00  0.00    -0.063 S 
ATOM     10  N   UNL     1      10.627   5.823   0.578  0.00  0.00    -0.234 NA
ATOM     22  C   UNL     1      11.380   5.868   1.653  0.00  0.00    +0.164 A 
ATOM     24  C   UNL     1      12.248   4.172   0.157  0.00  0.00    +0.040 A 
ATOM     25  C   UNL     1      11.112   4.854  -0.288  0.00  0.00    +0.079 A 
ATOM     26  C   UNL     1      12.856   3.164  -0.609  0.00  0.00    +0.017 A 
ATOM     27  C   UNL     1      10.567   4.514  -1.546  0.00  0.00    +0.029 A 
ATOM     28  C   UNL     1      12.296   2.846  -1.848  0.00  0.00    +0.001 A 
ATOM     29  C   UNL     1      11.166   3.511  -2.312  0.00  0.00    +0.002 A 
ENDBRANCH  19  22
ENDBRANCH  12   8
BRANCH  13   5
ATOM      5  O   UNL     1      10.342  10.642   2.715  0.00  0.00    -0.387 OA
ATOM     31  H   UNL     1      10.050  11.307   2.069  0.00  0.00    +0.210 HD
ENDBRANCH  13   5
BRANCH  15   6
ATOM      6  O   UNL     1       9.270  11.017   5.215  0.00  0.00    -0.389 OA
ATOM     32  H   UNL     1       8.730  11.546   5.825  0.00  0.00    +0.210 HD
ENDBRANCH  15   6
TORSDOF 6
ENDMDL
MODEL 7
REMARK VINA RESULT:      -6.5     28.859     30.808
REMARK  Name = 75536084
REMARK  6 active torsions:
REMARK  status: ('A' for Active; 'I' for Inactive)
REMARK    1  A    between atoms: O_5  and  C_13
REMARK    2  A    between atoms: O_6  and  C_15
REMARK    3  A    between atoms: N_8  and  C_12
REMARK    4  A    between atoms: C_11  and  C_16
REMARK    5  A    between atoms: C_19  and  C_22
REMARK    6  A    between atoms: C_21  and  C_23
REMARK                            x       y       z     vdW  Elec       q    Type
REMARK                         _______ _______ _______ _____ _____    ______ ____
ROOT
ATOM     11  C   UNL     1      -8.865  -8.558   8.220  0.00  0.00    +0.046 C 
ATOM     12  C   UNL     1      -7.350  -8.556   8.520  0.00  0.00    +0.112 C 
ATOM     13  C   UNL     1      -6.767  -9.442   7.422  0.00  0.00    +0.164 C 
ATOM     14  C   UNL     1      -8.997  -8.911   6.715  0.00  0.00    +0.044 C 
ATOM     15  C   UNL     1      -7.568  -9.039   6.190  0.00  0.00    +0.145 C 
ENDROOT
BRANCH  11  16
ATOM      9  N   UNL     1     -11.410  -6.172   9.711  0.00  0.00    -0.251 NA
ATOM     16  C   UNL     1      -9.552  -7.270   8.620  0.00  0.00    -0.024 A 
ATOM     17  C   UNL     1      -9.003  -6.034   8.293  0.00  0.00    +0.007 A 
ATOM     18  C   UNL     1     -10.746  -7.284   9.323  0.00  0.00    +0.115 A 
ATOM     20  C   UNL     1      -9.657  -4.867   8.675  0.00  0.00    +0.032 A 
ATOM     21  C   UNL     1     -10.847  -4.989   9.376  0.00  0.00    +0.144 A 
BRANCH  21  23
ATOM      2  F   UNL     1     -12.834  -3.688   9.281  0.00  0.00    -0.164 F 
ATOM      3  F   UNL     1     -11.729  -3.655  11.154  0.00  0.00    -0.164 F 
ATOM      4  F   UNL     1     -10.956  -2.600   9.424  0.00  0.00    -0.164 F 
ATOM     23  C   UNL     1     -11.575  -3.758   9.802  0.00  0.00    +0.434 C 
ENDBRANCH  21  23
ENDBRANCH  11  16
BRANCH  12   8
ATOM      7  O   UNL     1      -4.953  -8.118  10.039  0.00  0.00    -0.268 OA
ATOM      8  N   UNL     1      -7.059  -9.068   9.836  0.00  0.00    -0.304 N 
ATOM     19  C   UNL     1      -5.866  -8.801  10.494  0.00  0.00    +0.270 C 
ATOM     30  H   UNL     1      -7.770  -9.615  10.311  0.00  0.00    +0.149 HD
BRANCH  19  22
ATOM      1  S   UNL     1      -7.030  -9.504  12.916  0.00  0.00    -0.063 S 
ATOM     10  N   UNL     1      -4.575  -9.936  12.255  0.00  0.00    -0.234 NA
ATOM     22  C   UNL     1      -5.709  -9.424  11.834  0.00  0.00    +0.164 A 
ATOM     24  C   UNL     1      -6.025 -10.296  14.072  0.00  0.00    +0.040 A 
ATOM     25  C   UNL     1      -4.742 -10.440  13.537  0.00  0.00    +0.079 A 
ATOM     26  C   UNL     1      -6.348 -10.755  15.358  0.00  0.00    +0.017 A 
ATOM     27  C   UNL     1      -3.748 -11.067  14.320  0.00  0.00    +0.029 A 
ATOM     28  C   UNL     1      -5.347 -11.373  16.111  0.00  0.00    +0.001 A 
ATOM     29  C   UNL     1      -4.063 -11.528  15.601  0.00  0.00    +0.002 A 
ENDBRANCH  19  22
ENDBRANCH  12   8
BRANCH  13   5
ATOM      5  O   UNL     1      -5.384  -9.217   7.227  0.00  0.00    -0.387 OA
ATOM     31  H   UNL     1      -5.039  -8.799   8.034  0.00  0.00    +0.210 HD
ENDBRANCH  13   5
BRANCH  15   6
ATOM      6  O   UNL     1      -7.148  -7.769   5.701  0.00  0.00    -0.389 OA
ATOM     32  H   UNL     1      -7.546  -7.647   4.822  0.00  0.00    +0.210 HD
ENDBRANCH  15   6
TORSDOF 6
ENDMDL
MODEL 8
REMARK VINA RESULT:      -6.5     27.482     29.151
REMARK  Name = 75536084
REMARK  6 active torsions:
REMARK  status: ('A' for Active; 'I' for Inactive)
REMARK    1  A    between atoms: O_5  and  C_13
REMARK    2  A    between atoms: O_6  and  C_15
REMARK    3  A    between atoms: N_8  and  C_12
REMARK    4  A    between atoms: C_11  and  C_16
REMARK    5  A    between atoms: C_19  and  C_22
REMARK    6  A    between atoms: C_21  and  C_23
REMARK                            x       y       z     vdW  Elec       q    Type
REMARK                         _______ _______ _______ _____ _____    ______ ____
ROOT
ATOM     11  C   UNL     1      -5.680 -11.774  16.994  0.00  0.00    +0.046 C 
ATOM     12  C   UNL     1      -5.961 -10.602  17.959  0.00  0.00    +0.112 C 
ATOM     13  C   UNL     1      -6.201 -11.292  19.300  0.00  0.00    +0.164 C 
ATOM     14  C   UNL     1      -5.194 -12.947  17.886  0.00  0.00    +0.044 C 
ATOM     15  C   UNL     1      -5.154 -12.399  19.312  0.00  0.00    +0.145 C 
ENDROOT
BRANCH  11  16
ATOM      9  N   UNL     1      -4.358 -11.057  13.512  0.00  0.00    -0.251 NA
ATOM     16  C   UNL     1      -4.729 -11.407  15.876  0.00  0.00    -0.024 A 
ATOM     17  C   UNL     1      -3.400 -11.091  16.139  0.00  0.00    +0.007 A 
ATOM     18  C   UNL     1      -5.154 -11.376  14.557  0.00  0.00    +0.115 A 
ATOM     20  C   UNL     1      -2.550 -10.758  15.090  0.00  0.00    +0.032 A 
ATOM     21  C   UNL     1      -3.073 -10.755  13.807  0.00  0.00    +0.144 A 
BRANCH  21  23
ATOM      2  F   UNL     1      -1.208  -9.518  13.003  0.00  0.00    -0.164 F 
ATOM      3  F   UNL     1      -1.542 -11.475  12.115  0.00  0.00    -0.164 F 
ATOM      4  F   UNL     1      -2.855  -9.822  11.615  0.00  0.00    -0.164 F 
ATOM     23  C   UNL     1      -2.189 -10.401  12.657  0.00  0.00    +0.434 C 
ENDBRANCH  21  23
ENDBRANCH  11  16
BRANCH  12   8
ATOM      7  O   UNL     1      -8.721 -11.383  18.111  0.00  0.00    -0.268 OA
ATOM      8  N   UNL     1      -7.101  -9.822  17.544  0.00  0.00    -0.304 N 
ATOM     19  C   UNL     1      -8.404 -10.286  17.657  0.00  0.00    +0.270 C 
ATOM     30  H   UNL     1      -6.942  -8.884  17.188  0.00  0.00    +0.149 HD
BRANCH  19  22
ATOM      1  S   UNL     1     -11.114  -9.819  17.261  0.00  0.00    -0.063 S 
ATOM     10  N   UNL     1      -9.208  -8.201  16.628  0.00  0.00    -0.234 NA
ATOM     22  C   UNL     1      -9.466  -9.373  17.160  0.00  0.00    +0.164 A 
ATOM     24  C   UNL     1     -11.555  -8.321  16.531  0.00  0.00    +0.040 A 
ATOM     25  C   UNL     1     -10.397  -7.585  16.263  0.00  0.00    +0.079 A 
ATOM     26  C   UNL     1     -12.833  -7.831  16.218  0.00  0.00    +0.017 A 
ATOM     27  C   UNL     1     -10.525  -6.315  15.659  0.00  0.00    +0.029 A 
ATOM     28  C   UNL     1     -12.932  -6.572  15.623  0.00  0.00    +0.001 A 
ATOM     29  C   UNL     1     -11.795  -5.822  15.346  0.00  0.00    +0.002 A 
ENDBRANCH  19  22
ENDBRANCH  12   8
BRANCH  13   5
ATOM      5  O   UNL     1      -6.027 -10.413  20.396  0.00  0.00    -0.387 OA
ATOM     31  H   UNL     1      -6.886 -10.329  20.842  0.00  0.00    +0.210 HD
ENDBRANCH  13   5
BRANCH  15   6
ATOM      6  O   UNL     1      -3.855 -11.871  19.560  0.00  0.00    -0.389 OA
ATOM     32  H   UNL     1      -3.284 -12.136  18.819  0.00  0.00    +0.210 HD
ENDBRANCH  15   6
TORSDOF 6
ENDMDL
MODEL 9
REMARK VINA RESULT:      -6.5     28.934     30.596
REMARK  Name = 75536084
REMARK  6 active torsions:
REMARK  status: ('A' for Active; 'I' for Inactive)
REMARK    1  A    between atoms: O_5  and  C_13
REMARK    2  A    between atoms: O_6  and  C_15
REMARK    3  A    between atoms: N_8  and  C_12
REMARK    4  A    between atoms: C_11  and  C_16
REMARK    5  A    between atoms: C_19  and  C_22
REMARK    6  A    between atoms: C_21  and  C_23
REMARK                            x       y       z     vdW  Elec       q    Type
REMARK                         _______ _______ _______ _____ _____    ______ ____
ROOT
ATOM     11  C   UNL     1      -6.579 -10.095  17.970  0.00  0.00    +0.046 C 
ATOM     12  C   UNL     1      -6.096 -11.250  17.065  0.00  0.00    +0.112 C 
ATOM     13  C   UNL     1      -4.926 -11.848  17.844  0.00  0.00    +0.164 C 
ATOM     14  C   UNL     1      -6.100 -10.452  19.402  0.00  0.00    +0.044 C 
ATOM     15  C   UNL     1      -5.417 -11.814  19.286  0.00  0.00    +0.145 C 
ENDROOT
BRANCH  11  16
ATOM      9  N   UNL     1     -10.325 -10.492  18.418  0.00  0.00    -0.251 NA
ATOM     16  C   UNL     1      -8.066  -9.836  17.858  0.00  0.00    -0.024 A 
ATOM     17  C   UNL     1      -8.552  -8.755  17.129  0.00  0.00    +0.007 A 
ATOM     18  C   UNL     1      -8.986 -10.667  18.477  0.00  0.00    +0.115 A 
ATOM     20  C   UNL     1      -9.924  -8.542  17.044  0.00  0.00    +0.032 A 
ATOM     21  C   UNL     1     -10.760  -9.431  17.701  0.00  0.00    +0.144 A 
BRANCH  21  23
ATOM      2  F   UNL     1     -12.581  -8.042  17.060  0.00  0.00    -0.164 F 
ATOM      3  F   UNL     1     -12.884 -10.190  16.903  0.00  0.00    -0.164 F 
ATOM      4  F   UNL     1     -12.848  -9.243  18.854  0.00  0.00    -0.164 F 
ATOM     23  C   UNL     1     -12.238  -9.233  17.631  0.00  0.00    +0.434 C 
ENDBRANCH  21  23
ENDBRANCH  11  16
BRANCH  12   8
ATOM      7  O   UNL     1      -7.705 -11.198  14.687  0.00  0.00    -0.268 OA
ATOM      8  N   UNL     1      -5.692 -10.783  15.762  0.00  0.00    -0.304 N 
ATOM     19  C   UNL     1      -6.544 -10.797  14.667  0.00  0.00    +0.270 C 
ATOM     30  H   UNL     1      -4.758 -10.398  15.654  0.00  0.00    +0.149 HD
BRANCH  19  22
ATOM      1  S   UNL     1      -6.951  -9.497  12.246  0.00  0.00    -0.063 S 
ATOM     10  N   UNL     1      -4.704 -10.460  13.068  0.00  0.00    -0.234 NA
ATOM     22  C   UNL     1      -5.968 -10.306  13.388  0.00  0.00    +0.164 A 
ATOM     24  C   UNL     1      -5.585  -9.321  11.208  0.00  0.00    +0.040 A 
ATOM     25  C   UNL     1      -4.470  -9.900  11.820  0.00  0.00    +0.079 A 
ATOM     26  C   UNL     1      -5.506  -8.715   9.944  0.00  0.00    +0.017 A 
ATOM     27  C   UNL     1      -3.232  -9.870  11.141  0.00  0.00    +0.029 A 
ATOM     28  C   UNL     1      -4.270  -8.698   9.295  0.00  0.00    +0.001 A 
ATOM     29  C   UNL     1      -3.146  -9.267   9.883  0.00  0.00    +0.002 A 
ENDBRANCH  19  22
ENDBRANCH  12   8
BRANCH  13   5
ATOM      5  O   UNL     1      -4.630 -13.171  17.438  0.00  0.00    -0.387 OA
ATOM     31  H   UNL     1      -4.235 -13.629  18.198  0.00  0.00    +0.210 HD
ENDBRANCH  13   5
BRANCH  15   6
ATOM      6  O   UNL     1      -6.387 -12.830  19.521  0.00  0.00    -0.389 OA
ATOM     32  H   UNL     1      -6.150 -13.593  18.967  0.00  0.00    +0.210 HD
ENDBRANCH  15   6
TORSDOF 6
ENDMDL
MODEL 10
REMARK VINA RESULT:      -6.5     27.648     29.726
REMARK  Name = 75536084
REMARK  6 active torsions:
REMARK  status: ('A' for Active; 'I' for Inactive)
REMARK    1  A    between atoms: O_5  and  C_13
REMARK    2  A    between atoms: O_6  and  C_15
REMARK    3  A    between atoms: N_8  and  C_12
REMARK    4  A    between atoms: C_11  and  C_16
REMARK    5  A    between atoms: C_19  and  C_22
REMARK    6  A    between atoms: C_21  and  C_23
REMARK                            x       y       z     vdW  Elec       q    Type
REMARK                         _______ _______ _______ _____ _____    ______ ____
ROOT
ATOM     11  C   UNL     1      -7.132 -11.929  17.345  0.00  0.00    +0.046 C 
ATOM     12  C   UNL     1      -7.879 -10.707  17.922  0.00  0.00    +0.112 C 
ATOM     13  C   UNL     1      -8.666 -11.290  19.094  0.00  0.00    +0.164 C 
ATOM     14  C   UNL     1      -7.044 -12.956  18.504  0.00  0.00    +0.044 C 
ATOM     15  C   UNL     1      -7.683 -12.276  19.714  0.00  0.00    +0.145 C 
ENDROOT
BRANCH  11  16
ATOM      9  N   UNL     1      -4.173 -11.922  14.972  0.00  0.00    -0.251 NA
ATOM     16  C   UNL     1      -5.797 -11.571  16.728  0.00  0.00    -0.024 A 
ATOM     17  C   UNL     1      -4.977 -10.604  17.303  0.00  0.00    +0.007 A 
ATOM     18  C   UNL     1      -5.352 -12.194  15.573  0.00  0.00    +0.115 A 
ATOM     20  C   UNL     1      -3.756 -10.297  16.714  0.00  0.00    +0.032 A 
ATOM     21  C   UNL     1      -3.403 -10.977  15.559  0.00  0.00    +0.144 A 
BRANCH  21  23
ATOM      2  F   UNL     1      -1.281 -11.761  14.826  0.00  0.00    -0.164 F 
ATOM      3  F   UNL     1      -2.229 -10.223  13.616  0.00  0.00    -0.164 F 
ATOM      4  F   UNL     1      -1.374  -9.710  15.543  0.00  0.00    -0.164 F 
ATOM     23  C   UNL     1      -2.099 -10.672  14.899  0.00  0.00    +0.434 C 
ENDBRANCH  21  23
ENDBRANCH  11  16
BRANCH  12   8
ATOM      7  O   UNL     1      -8.957  -8.047  18.019  0.00  0.00    -0.268 OA
ATOM      8  N   UNL     1      -8.745 -10.092  16.946  0.00  0.00    -0.304 N 
ATOM     19  C   UNL     1      -9.218  -8.794  17.080  0.00  0.00    +0.270 C 
ATOM     30  H   UNL     1      -8.987 -10.620  16.114  0.00  0.00    +0.149 HD
BRANCH  19  22
ATOM      1  S   UNL     1     -10.592  -9.364  14.734  0.00  0.00    -0.063 S 
ATOM     10  N   UNL     1     -10.597  -7.094  15.957  0.00  0.00    -0.234 NA
ATOM     22  C   UNL     1     -10.121  -8.316  16.001  0.00  0.00    +0.164 A 
ATOM     24  C   UNL     1     -11.526  -8.092  14.041  0.00  0.00    +0.040 A 
ATOM     25  C   UNL     1     -11.406  -6.950  14.839  0.00  0.00    +0.079 A 
ATOM     26  C   UNL     1     -12.309  -8.103  12.875  0.00  0.00    +0.017 A 
ATOM     27  C   UNL     1     -12.094  -5.779  14.454  0.00  0.00    +0.029 A 
ATOM     28  C   UNL     1     -12.981  -6.931  12.518  0.00  0.00    +0.001 A 
ATOM     29  C   UNL     1     -12.876  -5.783  13.295  0.00  0.00    +0.002 A 
ENDBRANCH  19  22
ENDBRANCH  12   8
BRANCH  13   5
ATOM      5  O   UNL     1      -9.053 -10.300  20.028  0.00  0.00    -0.387 OA
ATOM     31  H   UNL     1      -9.387 -10.758  20.818  0.00  0.00    +0.210 HD
ENDBRANCH  13   5
BRANCH  15   6
ATOM      6  O   UNL     1      -6.667 -11.595  20.442  0.00  0.00    -0.389 OA
ATOM     32  H   UNL     1      -6.958 -10.675  20.560  0.00  0.00    +0.210 HD
ENDBRANCH  15   6
TORSDOF 6
ENDMDL
