MODEL 1
REMARK VINA RESULT:      -6.7      0.000      0.000
REMARK  Name = 75536761
REMARK  7 active torsions:
REMARK  status: ('A' for Active; 'I' for Inactive)
REMARK    1  A    between atoms: O_2  and  C_11
REMARK    2  A    between atoms: N_5  and  C_10
REMARK    3  A    between atoms: N_5  and  C_15
REMARK    4  A    between atoms: N_6  and  C_14
REMARK    5  A    between atoms: N_8  and  C_23
REMARK    6  A    between atoms: C_12  and  C_14
REMARK    7  A    between atoms: C_15  and  C_17
REMARK                            x       y       z     vdW  Elec       q    Type
REMARK                         _______ _______ _______ _____ _____    ______ ____
ROOT
ATOM      1  O   UNL     1      13.029   6.584  20.791  0.00  0.00    -0.371 OA
ATOM     10  C   UNL     1      10.961   7.739  20.976  0.00  0.00    +0.111 C 
ATOM     11  C   UNL     1      11.690   8.223  19.735  0.00  0.00    +0.164 C 
ATOM     12  C   UNL     1      12.653   7.068  19.492  0.00  0.00    +0.165 C 
ATOM     13  C   UNL     1      12.095   7.095  21.758  0.00  0.00    +0.181 C 
ENDROOT
BRANCH  11   2
ATOM      2  O   UNL     1      10.822   8.426  18.637  0.00  0.00    -0.388 OA
ATOM     27  H   UNL     1      11.316   8.882  17.936  0.00  0.00    +0.210 HD
ENDBRANCH  11   2
BRANCH  10   5
ATOM      5  N   UNL     1      10.297   8.801  21.712  0.00  0.00    -0.302 NA
ATOM     25  H   UNL     1       9.483   8.417  22.194  0.00  0.00    +0.123 HD
BRANCH   5  15
ATOM     15  C   UNL     1      11.193   9.394  22.699  0.00  0.00    +0.156 C 
BRANCH  15  17
ATOM      8  N   UNL     1      11.266  11.748  23.586  0.00  0.00    -0.336 N 
ATOM      9  N   UNL     1      11.454  11.523  21.384  0.00  0.00    -0.239 NA
ATOM     17  C   UNL     1      11.307  10.886  22.526  0.00  0.00    +0.123 A 
ATOM     22  C   UNL     1      11.395  13.015  23.090  0.00  0.00    +0.106 A 
ATOM     23  C   UNL     1      11.115  11.403  24.980  0.00  0.00    +0.150 C 
ATOM     24  C   UNL     1      11.508  12.850  21.729  0.00  0.00    +0.130 A 
ENDBRANCH  15  17
ENDBRANCH   5  15
ENDBRANCH  10   5
BRANCH  12  14
ATOM     14  C   UNL     1      13.893   7.474  18.716  0.00  0.00    +0.140 C 
BRANCH  14   6
ATOM      3  O   UNL     1      19.495   7.989  21.804  0.00  0.00    -0.377 OA
ATOM      4  O   UNL     1      16.190   5.849  18.808  0.00  0.00    -0.253 OA
ATOM      6  N   UNL     1      15.027   7.665  19.593  0.00  0.00    -0.297 N 
ATOM      7  N   UNL     1      17.145   7.127  20.492  0.00  0.00    -0.281 N 
ATOM     16  C   UNL     1      16.127   6.815  19.577  0.00  0.00    +0.302 C 
ATOM     18  C   UNL     1      18.339   6.280  20.549  0.00  0.00    +0.137 C 
ATOM     19  C   UNL     1      17.085   8.158  21.539  0.00  0.00    +0.137 C 
ATOM     20  C   UNL     1      19.599   7.121  20.674  0.00  0.00    +0.179 C 
ATOM     21  C   UNL     1      18.411   8.903  21.642  0.00  0.00    +0.179 C 
ATOM     26  H   UNL     1      14.965   8.444  20.233  0.00  0.00    +0.150 HD
ENDBRANCH  14   6
ENDBRANCH  12  14
TORSDOF 6
ENDMDL
MODEL 2
REMARK VINA RESULT:      -6.2      3.176      5.458
REMARK  Name = 75536761
REMARK  7 active torsions:
REMARK  status: ('A' for Active; 'I' for Inactive)
REMARK    1  A    between atoms: O_2  and  C_11
REMARK    2  A    between atoms: N_5  and  C_10
REMARK    3  A    between atoms: N_5  and  C_15
REMARK    4  A    between atoms: N_6  and  C_14
REMARK    5  A    between atoms: N_8  and  C_23
REMARK    6  A    between atoms: C_12  and  C_14
REMARK    7  A    between atoms: C_15  and  C_17
REMARK                            x       y       z     vdW  Elec       q    Type
REMARK                         _______ _______ _______ _____ _____    ______ ____
ROOT
ATOM      1  O   UNL     1      16.870   6.006  18.984  0.00  0.00    -0.371 OA
ATOM     10  C   UNL     1      16.079   7.161  20.904  0.00  0.00    +0.111 C 
ATOM     11  C   UNL     1      17.407   6.502  21.233  0.00  0.00    +0.164 C 
ATOM     12  C   UNL     1      17.986   6.298  19.839  0.00  0.00    +0.165 C 
ATOM     13  C   UNL     1      15.660   6.388  19.664  0.00  0.00    +0.181 C 
ENDROOT
BRANCH  11   2
ATOM      2  O   UNL     1      18.238   7.321  22.034  0.00  0.00    -0.388 OA
ATOM     27  H   UNL     1      17.856   8.213  22.060  0.00  0.00    +0.210 HD
ENDBRANCH  11   2
BRANCH  10   5
ATOM      5  N   UNL     1      15.105   7.077  21.979  0.00  0.00    -0.302 NA
ATOM     25  H   UNL     1      15.591   6.888  22.857  0.00  0.00    +0.123 HD
BRANCH   5  15
ATOM     15  C   UNL     1      14.362   8.325  22.111  0.00  0.00    +0.156 C 
BRANCH  15  17
ATOM      8  N   UNL     1      12.637   8.785  20.336  0.00  0.00    -0.336 N 
ATOM      9  N   UNL     1      11.959   7.583  22.076  0.00  0.00    -0.239 NA
ATOM     17  C   UNL     1      12.976   8.214  21.532  0.00  0.00    +0.123 A 
ATOM     22  C   UNL     1      11.321   8.500  20.104  0.00  0.00    +0.106 A 
ATOM     23  C   UNL     1      13.498   9.552  19.467  0.00  0.00    +0.150 C 
ATOM     24  C   UNL     1      10.924   7.758  21.192  0.00  0.00    +0.130 A 
ENDBRANCH  15  17
ENDBRANCH   5  15
ENDBRANCH  10   5
BRANCH  12  14
ATOM     14  C   UNL     1      18.996   5.166  19.769  0.00  0.00    +0.140 C 
BRANCH  14   6
ATOM      3  O   UNL     1      25.170   6.199  21.184  0.00  0.00    -0.377 OA
ATOM      4  O   UNL     1      21.017   3.530  20.845  0.00  0.00    -0.253 OA
ATOM      6  N   UNL     1      20.314   5.607  20.168  0.00  0.00    -0.297 N 
ATOM      7  N   UNL     1      22.491   5.311  21.041  0.00  0.00    -0.281 N 
ATOM     16  C   UNL     1      21.259   4.732  20.694  0.00  0.00    +0.302 C 
ATOM     18  C   UNL     1      23.543   4.465  21.608  0.00  0.00    +0.137 C 
ATOM     19  C   UNL     1      22.806   6.747  21.036  0.00  0.00    +0.137 C 
ATOM     20  C   UNL     1      24.899   4.807  21.011  0.00  0.00    +0.179 C 
ATOM     21  C   UNL     1      24.208   6.992  20.488  0.00  0.00    +0.179 C 
ATOM     26  H   UNL     1      20.502   6.593  20.061  0.00  0.00    +0.150 HD
ENDBRANCH  14   6
ENDBRANCH  12  14
TORSDOF 6
ENDMDL
MODEL 3
REMARK VINA RESULT:      -6.2      2.936      5.299
REMARK  Name = 75536761
REMARK  7 active torsions:
REMARK  status: ('A' for Active; 'I' for Inactive)
REMARK    1  A    between atoms: O_2  and  C_11
REMARK    2  A    between atoms: N_5  and  C_10
REMARK    3  A    between atoms: N_5  and  C_15
REMARK    4  A    between atoms: N_6  and  C_14
REMARK    5  A    between atoms: N_8  and  C_23
REMARK    6  A    between atoms: C_12  and  C_14
REMARK    7  A    between atoms: C_15  and  C_17
REMARK                            x       y       z     vdW  Elec       q    Type
REMARK                         _______ _______ _______ _____ _____    ______ ____
ROOT
ATOM      1  O   UNL     1      17.916   6.594  19.779  0.00  0.00    -0.371 OA
ATOM     10  C   UNL     1      15.570   6.965  19.840  0.00  0.00    +0.111 C 
ATOM     11  C   UNL     1      16.191   7.510  21.114  0.00  0.00    +0.164 C 
ATOM     12  C   UNL     1      17.643   7.676  20.683  0.00  0.00    +0.165 C 
ATOM     13  C   UNL     1      16.663   6.031  19.348  0.00  0.00    +0.181 C 
ENDROOT
BRANCH  11   2
ATOM      2  O   UNL     1      15.618   8.738  21.518  0.00  0.00    -0.388 OA
ATOM     27  H   UNL     1      14.878   8.548  22.118  0.00  0.00    +0.210 HD
ENDBRANCH  11   2
BRANCH  10   5
ATOM      5  N   UNL     1      14.301   6.289  20.055  0.00  0.00    -0.302 NA
ATOM     25  H   UNL     1      14.130   6.207  21.058  0.00  0.00    +0.123 HD
BRANCH   5  15
ATOM     15  C   UNL     1      13.202   7.031  19.448  0.00  0.00    +0.156 C 
BRANCH  15  17
ATOM      8  N   UNL     1      11.784   8.589  20.825  0.00  0.00    -0.336 N 
ATOM      9  N   UNL     1      11.348   6.421  21.034  0.00  0.00    -0.239 NA
ATOM     17  C   UNL     1      12.105   7.317  20.439  0.00  0.00    +0.123 A 
ATOM     22  C   UNL     1      10.758   8.498  21.723  0.00  0.00    +0.106 A 
ATOM     23  C   UNL     1      12.404   9.813  20.377  0.00  0.00    +0.150 C 
ATOM     24  C   UNL     1      10.507   7.151  21.836  0.00  0.00    +0.130 A 
ENDBRANCH  15  17
ENDBRANCH   5  15
ENDBRANCH  10   5
BRANCH  12  14
ATOM     14  C   UNL     1      18.622   7.635  21.843  0.00  0.00    +0.140 C 
BRANCH  14   6
ATOM      3  O   UNL     1      22.908   2.859  21.905  0.00  0.00    -0.377 OA
ATOM      4  O   UNL     1      20.381   6.661  23.812  0.00  0.00    -0.253 OA
ATOM      6  N   UNL     1      19.641   6.630  21.640  0.00  0.00    -0.297 N 
ATOM      7  N   UNL     1      21.419   5.226  22.314  0.00  0.00    -0.281 N 
ATOM     16  C   UNL     1      20.474   6.202  22.668  0.00  0.00    +0.302 C 
ATOM     18  C   UNL     1      22.342   4.722  23.334  0.00  0.00    +0.137 C 
ATOM     19  C   UNL     1      21.696   4.739  20.954  0.00  0.00    +0.137 C 
ATOM     20  C   UNL     1      22.501   3.214  23.227  0.00  0.00    +0.179 C 
ATOM     21  C   UNL     1      21.911   3.230  20.953  0.00  0.00    +0.179 C 
ATOM     26  H   UNL     1      19.727   6.270  20.701  0.00  0.00    +0.150 HD
ENDBRANCH  14   6
ENDBRANCH  12  14
TORSDOF 6
ENDMDL
MODEL 4
REMARK VINA RESULT:      -6.1     29.792     31.388
REMARK  Name = 75536761
REMARK  7 active torsions:
REMARK  status: ('A' for Active; 'I' for Inactive)
REMARK    1  A    between atoms: O_2  and  C_11
REMARK    2  A    between atoms: N_5  and  C_10
REMARK    3  A    between atoms: N_5  and  C_15
REMARK    4  A    between atoms: N_6  and  C_14
REMARK    5  A    between atoms: N_8  and  C_23
REMARK    6  A    between atoms: C_12  and  C_14
REMARK    7  A    between atoms: C_15  and  C_17
REMARK                            x       y       z     vdW  Elec       q    Type
REMARK                         _______ _______ _______ _____ _____    ______ ____
ROOT
ATOM      1  O   UNL     1     -15.246  -0.087  29.279  0.00  0.00    -0.371 OA
ATOM     10  C   UNL     1     -14.363   1.891  30.256  0.00  0.00    +0.111 C 
ATOM     11  C   UNL     1     -15.410   2.272  29.225  0.00  0.00    +0.164 C 
ATOM     12  C   UNL     1     -16.200   0.975  29.116  0.00  0.00    +0.165 C 
ATOM     13  C   UNL     1     -14.043   0.463  29.844  0.00  0.00    +0.181 C 
ENDROOT
BRANCH  11   2
ATOM      2  O   UNL     1     -16.223   3.351  29.645  0.00  0.00    -0.388 OA
ATOM     27  H   UNL     1     -15.654   4.020  30.060  0.00  0.00    +0.210 HD
ENDBRANCH  11   2
BRANCH  10   5
ATOM      5  N   UNL     1     -13.197   2.757  30.249  0.00  0.00    -0.302 NA
ATOM     25  H   UNL     1     -13.367   3.545  29.623  0.00  0.00    +0.123 HD
BRANCH   5  15
ATOM     15  C   UNL     1     -12.918   3.270  31.586  0.00  0.00    +0.156 C 
BRANCH  15  17
ATOM      8  N   UNL     1     -14.829   3.343  33.222  0.00  0.00    -0.336 N 
ATOM      9  N   UNL     1     -14.647   5.078  31.848  0.00  0.00    -0.239 NA
ATOM     17  C   UNL     1     -14.130   3.922  32.200  0.00  0.00    +0.123 A 
ATOM     22  C   UNL     1     -15.858   4.183  33.542  0.00  0.00    +0.106 A 
ATOM     23  C   UNL     1     -14.548   2.078  33.859  0.00  0.00    +0.150 C 
ATOM     24  C   UNL     1     -15.725   5.246  32.680  0.00  0.00    +0.130 A 
ENDBRANCH  15  17
ENDBRANCH   5  15
ENDBRANCH  10   5
BRANCH  12  14
ATOM     14  C   UNL     1     -16.919   0.819  27.787  0.00  0.00    +0.140 C 
BRANCH  14   6
ATOM      3  O   UNL     1     -16.990   5.612  23.520  0.00  0.00    -0.377 OA
ATOM      4  O   UNL     1     -16.357   0.944  25.032  0.00  0.00    -0.253 OA
ATOM      6  N   UNL     1     -16.838   2.027  26.997  0.00  0.00    -0.297 N 
ATOM      7  N   UNL     1     -16.503   3.259  25.007  0.00  0.00    -0.281 N 
ATOM     16  C   UNL     1     -16.554   2.004  25.636  0.00  0.00    +0.302 C 
ATOM     18  C   UNL     1     -16.204   3.329  23.575  0.00  0.00    +0.137 C 
ATOM     19  C   UNL     1     -16.575   4.567  25.675  0.00  0.00    +0.137 C 
ATOM     20  C   UNL     1     -17.101   4.341  22.880  0.00  0.00    +0.179 C 
ATOM     21  C   UNL     1     -17.436   5.538  24.874  0.00  0.00    +0.179 C 
ATOM     26  H   UNL     1     -16.982   2.893  27.496  0.00  0.00    +0.150 HD
ENDBRANCH  14   6
ENDBRANCH  12  14
TORSDOF 6
ENDMDL
MODEL 5
REMARK VINA RESULT:      -6.0      2.509      8.004
REMARK  Name = 75536761
REMARK  7 active torsions:
REMARK  status: ('A' for Active; 'I' for Inactive)
REMARK    1  A    between atoms: O_2  and  C_11
REMARK    2  A    between atoms: N_5  and  C_10
REMARK    3  A    between atoms: N_5  and  C_15
REMARK    4  A    between atoms: N_6  and  C_14
REMARK    5  A    between atoms: N_8  and  C_23
REMARK    6  A    between atoms: C_12  and  C_14
REMARK    7  A    between atoms: C_15  and  C_17
REMARK                            x       y       z     vdW  Elec       q    Type
REMARK                         _______ _______ _______ _____ _____    ______ ____
ROOT
ATOM      1  O   UNL     1      15.930   6.245  18.940  0.00  0.00    -0.371 OA
ATOM     10  C   UNL     1      16.982   6.338  21.068  0.00  0.00    +0.111 C 
ATOM     11  C   UNL     1      15.721   7.182  21.101  0.00  0.00    +0.164 C 
ATOM     12  C   UNL     1      14.947   6.599  19.925  0.00  0.00    +0.165 C 
ATOM     13  C   UNL     1      17.223   6.216  19.572  0.00  0.00    +0.181 C 
ENDROOT
BRANCH  11   2
ATOM      2  O   UNL     1      15.009   7.051  22.316  0.00  0.00    -0.388 OA
ATOM     27  H   UNL     1      14.075   6.881  22.108  0.00  0.00    +0.210 HD
ENDBRANCH  11   2
BRANCH  10   5
ATOM      5  N   UNL     1      18.102   6.937  21.774  0.00  0.00    -0.302 NA
ATOM     25  H   UNL     1      18.326   6.368  22.591  0.00  0.00    +0.123 HD
BRANCH   5  15
ATOM     15  C   UNL     1      19.280   7.017  20.918  0.00  0.00    +0.156 C 
BRANCH  15  17
ATOM      8  N   UNL     1      21.030   5.878  22.323  0.00  0.00    -0.336 N 
ATOM      9  N   UNL     1      20.470   4.855  20.432  0.00  0.00    -0.239 NA
ATOM     17  C   UNL     1      20.253   5.902  21.198  0.00  0.00    +0.123 A 
ATOM     22  C   UNL     1      21.792   4.745  22.271  0.00  0.00    +0.106 A 
ATOM     23  C   UNL     1      21.055   6.861  23.381  0.00  0.00    +0.150 C 
ATOM     24  C   UNL     1      21.429   4.131  21.095  0.00  0.00    +0.130 A 
ENDBRANCH  15  17
ENDBRANCH   5  15
ENDBRANCH  10   5
BRANCH  12  14
ATOM     14  C   UNL     1      13.946   7.570  19.325  0.00  0.00    +0.140 C 
BRANCH  14   6
ATOM      3  O   UNL     1      11.017  11.932  23.010  0.00  0.00    -0.377 OA
ATOM      4  O   UNL     1      13.690  10.367  19.152  0.00  0.00    -0.253 OA
ATOM      6  N   UNL     1      13.369   8.428  20.336  0.00  0.00    -0.297 N 
ATOM      7  N   UNL     1      12.701  10.505  21.246  0.00  0.00    -0.281 N 
ATOM     16  C   UNL     1      13.280   9.806  20.174  0.00  0.00    +0.302 C 
ATOM     18  C   UNL     1      12.574  11.962  21.164  0.00  0.00    +0.137 C 
ATOM     19  C   UNL     1      12.328   9.937  22.550  0.00  0.00    +0.137 C 
ATOM     20  C   UNL     1      11.220  12.420  21.684  0.00  0.00    +0.179 C 
ATOM     21  C   UNL     1      10.996  10.504  23.026  0.00  0.00    +0.179 C 
ATOM     26  H   UNL     1      13.051   7.969  21.177  0.00  0.00    +0.150 HD
ENDBRANCH  14   6
ENDBRANCH  12  14
TORSDOF 6
ENDMDL
MODEL 6
REMARK VINA RESULT:      -5.9      2.798      5.028
REMARK  Name = 75536761
REMARK  7 active torsions:
REMARK  status: ('A' for Active; 'I' for Inactive)
REMARK    1  A    between atoms: O_2  and  C_11
REMARK    2  A    between atoms: N_5  and  C_10
REMARK    3  A    between atoms: N_5  and  C_15
REMARK    4  A    between atoms: N_6  and  C_14
REMARK    5  A    between atoms: N_8  and  C_23
REMARK    6  A    between atoms: C_12  and  C_14
REMARK    7  A    between atoms: C_15  and  C_17
REMARK                            x       y       z     vdW  Elec       q    Type
REMARK                         _______ _______ _______ _____ _____    ______ ____
ROOT
ATOM      1  O   UNL     1      17.222   6.969  19.752  0.00  0.00    -0.371 OA
ATOM     10  C   UNL     1      14.957   7.098  20.457  0.00  0.00    +0.111 C 
ATOM     11  C   UNL     1      15.846   7.691  21.536  0.00  0.00    +0.164 C 
ATOM     12  C   UNL     1      17.103   8.008  20.736  0.00  0.00    +0.165 C 
ATOM     13  C   UNL     1      15.959   6.285  19.654  0.00  0.00    +0.181 C 
ENDROOT
BRANCH  11   2
ATOM      2  O   UNL     1      15.290   8.850  22.125  0.00  0.00    -0.388 OA
ATOM     27  H   UNL     1      15.625   9.627  21.649  0.00  0.00    +0.210 HD
ENDBRANCH  11   2
BRANCH  10   5
ATOM      5  N   UNL     1      13.865   6.294  20.980  0.00  0.00    -0.302 NA
ATOM     25  H   UNL     1      14.060   6.057  21.954  0.00  0.00    +0.123 HD
BRANCH   5  15
ATOM     15  C   UNL     1      12.602   7.020  20.915  0.00  0.00    +0.156 C 
BRANCH  15  17
ATOM      8  N   UNL     1      12.336   9.025  19.418  0.00  0.00    -0.336 N 
ATOM      9  N   UNL     1      12.257   7.040  18.424  0.00  0.00    -0.239 NA
ATOM     17  C   UNL     1      12.397   7.668  19.571  0.00  0.00    +0.123 A 
ATOM     22  C   UNL     1      12.145   9.279  18.089  0.00  0.00    +0.106 A 
ATOM     23  C   UNL     1      12.450  10.021  20.457  0.00  0.00    +0.150 C 
ATOM     24  C   UNL     1      12.098   8.039  17.497  0.00  0.00    +0.130 A 
ENDBRANCH  15  17
ENDBRANCH   5  15
ENDBRANCH  10   5
BRANCH  12  14
ATOM     14  C   UNL     1      18.360   8.055  21.587  0.00  0.00    +0.140 C 
BRANCH  14   6
ATOM      3  O   UNL     1      22.999   3.690  20.808  0.00  0.00    -0.377 OA
ATOM      4  O   UNL     1      21.131   8.259  21.139  0.00  0.00    -0.253 OA
ATOM      6  N   UNL     1      19.248   6.956  21.282  0.00  0.00    -0.297 N 
ATOM      7  N   UNL     1      21.340   5.978  20.778  0.00  0.00    -0.281 N 
ATOM     16  C   UNL     1      20.610   7.141  21.073  0.00  0.00    +0.302 C 
ATOM     18  C   UNL     1      22.781   6.080  20.537  0.00  0.00    +0.137 C 
ATOM     19  C   UNL     1      20.779   4.641  20.532  0.00  0.00    +0.137 C 
ATOM     20  C   UNL     1      23.530   4.949  21.223  0.00  0.00    +0.179 C 
ATOM     21  C   UNL     1      21.631   3.565  21.197  0.00  0.00    +0.179 C 
ATOM     26  H   UNL     1      18.817   6.046  21.210  0.00  0.00    +0.150 HD
ENDBRANCH  14   6
ENDBRANCH  12  14
TORSDOF 6
ENDMDL
MODEL 7
REMARK VINA RESULT:      -5.8     26.194     29.364
REMARK  Name = 75536761
REMARK  7 active torsions:
REMARK  status: ('A' for Active; 'I' for Inactive)
REMARK    1  A    between atoms: O_2  and  C_11
REMARK    2  A    between atoms: N_5  and  C_10
REMARK    3  A    between atoms: N_5  and  C_15
REMARK    4  A    between atoms: N_6  and  C_14
REMARK    5  A    between atoms: N_8  and  C_23
REMARK    6  A    between atoms: C_12  and  C_14
REMARK    7  A    between atoms: C_15  and  C_17
REMARK                            x       y       z     vdW  Elec       q    Type
REMARK                         _______ _______ _______ _____ _____    ______ ____
ROOT
ATOM      1  O   UNL     1      -7.250 -13.105  18.376  0.00  0.00    -0.371 OA
ATOM     10  C   UNL     1      -5.518 -11.509  18.689  0.00  0.00    +0.111 C 
ATOM     11  C   UNL     1      -6.851 -10.866  19.025  0.00  0.00    +0.164 C 
ATOM     12  C   UNL     1      -7.712 -12.095  19.288  0.00  0.00    +0.165 C 
ATOM     13  C   UNL     1      -5.962 -12.710  17.870  0.00  0.00    +0.181 C 
ENDROOT
BRANCH  11   2
ATOM      2  O   UNL     1      -6.779 -10.022  20.158  0.00  0.00    -0.388 OA
ATOM     27  H   UNL     1      -7.081 -10.523  20.933  0.00  0.00    +0.210 HD
ENDBRANCH  11   2
BRANCH  10   5
ATOM      5  N   UNL     1      -4.615 -10.632  17.963  0.00  0.00    -0.302 NA
ATOM     25  H   UNL     1      -3.657 -10.813  18.264  0.00  0.00    +0.123 HD
BRANCH   5  15
ATOM     15  C   UNL     1      -4.708 -10.858  16.525  0.00  0.00    +0.156 C 
BRANCH  15  17
ATOM      8  N   UNL     1      -3.230 -10.673  14.496  0.00  0.00    -0.336 N 
ATOM      9  N   UNL     1      -2.196 -10.749  16.461  0.00  0.00    -0.239 NA
ATOM     17  C   UNL     1      -3.363 -10.761  15.854  0.00  0.00    +0.123 A 
ATOM     22  C   UNL     1      -1.893 -10.601  14.219  0.00  0.00    +0.106 A 
ATOM     23  C   UNL     1      -4.293 -10.659  13.520  0.00  0.00    +0.150 C 
ATOM     24  C   UNL     1      -1.276 -10.650  15.448  0.00  0.00    +0.130 A 
ENDBRANCH  15  17
ENDBRANCH   5  15
ENDBRANCH  10   5
BRANCH  12  14
ATOM     14  C   UNL     1      -9.194 -11.847  19.071  0.00  0.00    +0.140 C 
BRANCH  14   6
ATOM      3  O   UNL     1     -10.857  -6.892  15.348  0.00  0.00    -0.377 OA
ATOM      4  O   UNL     1      -9.578 -11.576  16.297  0.00  0.00    -0.253 OA
ATOM      6  N   UNL     1      -9.426 -10.605  18.370  0.00  0.00    -0.297 N 
ATOM      7  N   UNL     1      -9.815  -9.274  16.455  0.00  0.00    -0.281 N 
ATOM     16  C   UNL     1      -9.607 -10.555  16.992  0.00  0.00    +0.302 C 
ATOM     18  C   UNL     1     -10.008  -9.127  15.010  0.00  0.00    +0.137 C 
ATOM     19  C   UNL     1      -9.714  -8.001  17.184  0.00  0.00    +0.137 C 
ATOM     20  C   UNL     1     -11.124  -8.140  14.707  0.00  0.00    +0.179 C 
ATOM     21  C   UNL     1     -10.828  -7.048  16.767  0.00  0.00    +0.179 C 
ATOM     26  H   UNL     1      -9.431  -9.770  18.938  0.00  0.00    +0.150 HD
ENDBRANCH  14   6
ENDBRANCH  12  14
TORSDOF 6
ENDMDL
MODEL 8
REMARK VINA RESULT:      -5.8     25.952     29.108
REMARK  Name = 75536761
REMARK  7 active torsions:
REMARK  status: ('A' for Active; 'I' for Inactive)
REMARK    1  A    between atoms: O_2  and  C_11
REMARK    2  A    between atoms: N_5  and  C_10
REMARK    3  A    between atoms: N_5  and  C_15
REMARK    4  A    between atoms: N_6  and  C_14
REMARK    5  A    between atoms: N_8  and  C_23
REMARK    6  A    between atoms: C_12  and  C_14
REMARK    7  A    between atoms: C_15  and  C_17
REMARK                            x       y       z     vdW  Elec       q    Type
REMARK                         _______ _______ _______ _____ _____    ______ ____
ROOT
ATOM      1  O   UNL     1      -7.012 -12.606  18.247  0.00  0.00    -0.371 OA
ATOM     10  C   UNL     1      -4.889 -13.194  17.355  0.00  0.00    +0.111 C 
ATOM     11  C   UNL     1      -4.742 -11.941  18.200  0.00  0.00    +0.164 C 
ATOM     12  C   UNL     1      -5.988 -12.028  19.072  0.00  0.00    +0.165 C 
ATOM     13  C   UNL     1      -6.388 -13.209  17.099  0.00  0.00    +0.181 C 
ENDROOT
BRANCH  11   2
ATOM      2  O   UNL     1      -3.558 -11.939  18.972  0.00  0.00    -0.388 OA
ATOM     27  H   UNL     1      -3.799 -12.063  19.905  0.00  0.00    +0.210 HD
ENDBRANCH  11   2
BRANCH  10   5
ATOM      5  N   UNL     1      -4.106 -13.166  16.132  0.00  0.00    -0.302 NA
ATOM     25  H   UNL     1      -4.405 -13.930  15.525  0.00  0.00    +0.123 HD
BRANCH   5  15
ATOM     15  C   UNL     1      -4.284 -11.903  15.424  0.00  0.00    +0.156 C 
BRANCH  15  17
ATOM      8  N   UNL     1      -2.581 -10.589  14.117  0.00  0.00    -0.336 N 
ATOM      9  N   UNL     1      -2.124 -10.927  16.264  0.00  0.00    -0.239 NA
ATOM     17  C   UNL     1      -2.989 -11.144  15.298  0.00  0.00    +0.123 A 
ATOM     22  C   UNL     1      -1.379  -9.980  14.344  0.00  0.00    +0.106 A 
ATOM     23  C   UNL     1      -3.278 -10.630  12.853  0.00  0.00    +0.150 C 
ATOM     24  C   UNL     1      -1.118 -10.203  15.676  0.00  0.00    +0.130 A 
ENDBRANCH  15  17
ENDBRANCH   5  15
ENDBRANCH  10   5
BRANCH  12  14
ATOM     14  C   UNL     1      -6.451 -10.679  19.594  0.00  0.00    +0.140 C 
BRANCH  14   6
ATOM      3  O   UNL     1     -11.691  -9.224  16.187  0.00  0.00    -0.377 OA
ATOM      4  O   UNL     1      -6.842  -9.307  17.169  0.00  0.00    -0.253 OA
ATOM      6  N   UNL     1      -7.730 -10.305  19.035  0.00  0.00    -0.297 N 
ATOM      7  N   UNL     1      -9.149  -9.325  17.417  0.00  0.00    -0.281 N 
ATOM     16  C   UNL     1      -7.839  -9.625  17.827  0.00  0.00    +0.302 C 
ATOM     18  C   UNL     1      -9.357  -8.604  16.159  0.00  0.00    +0.137 C 
ATOM     19  C   UNL     1     -10.373  -9.531  18.206  0.00  0.00    +0.137 C 
ATOM     20  C   UNL     1     -10.516  -9.199  15.376  0.00  0.00    +0.179 C 
ATOM     21  C   UNL     1     -11.500 -10.061  17.328  0.00  0.00    +0.179 C 
ATOM     26  H   UNL     1      -8.542 -10.550  19.582  0.00  0.00    +0.150 HD
ENDBRANCH  14   6
ENDBRANCH  12  14
TORSDOF 6
ENDMDL
MODEL 9
REMARK VINA RESULT:      -5.8      2.699      7.603
REMARK  Name = 75536761
REMARK  7 active torsions:
REMARK  status: ('A' for Active; 'I' for Inactive)
REMARK    1  A    between atoms: O_2  and  C_11
REMARK    2  A    between atoms: N_5  and  C_10
REMARK    3  A    between atoms: N_5  and  C_15
REMARK    4  A    between atoms: N_6  and  C_14
REMARK    5  A    between atoms: N_8  and  C_23
REMARK    6  A    between atoms: C_12  and  C_14
REMARK    7  A    between atoms: C_15  and  C_17
REMARK                            x       y       z     vdW  Elec       q    Type
REMARK                         _______ _______ _______ _____ _____    ______ ____
ROOT
ATOM      1  O   UNL     1      15.988   6.322  19.045  0.00  0.00    -0.371 OA
ATOM     10  C   UNL     1      17.044   6.544  21.162  0.00  0.00    +0.111 C 
ATOM     11  C   UNL     1      15.676   7.202  21.218  0.00  0.00    +0.164 C 
ATOM     12  C   UNL     1      14.978   6.526  20.045  0.00  0.00    +0.165 C 
ATOM     13  C   UNL     1      17.279   6.470  19.662  0.00  0.00    +0.181 C 
ENDROOT
BRANCH  11   2
ATOM      2  O   UNL     1      15.006   6.963  22.440  0.00  0.00    -0.388 OA
ATOM     27  H   UNL     1      14.105   7.320  22.370  0.00  0.00    +0.210 HD
ENDBRANCH  11   2
BRANCH  10   5
ATOM      5  N   UNL     1      18.077   7.289  21.861  0.00  0.00    -0.302 NA
ATOM     25  H   UNL     1      17.836   7.348  22.851  0.00  0.00    +0.123 HD
BRANCH   5  15
ATOM     15  C   UNL     1      19.374   6.634  21.730  0.00  0.00    +0.156 C 
BRANCH  15  17
ATOM      8  N   UNL     1      21.189   8.053  22.744  0.00  0.00    -0.336 N 
ATOM      9  N   UNL     1      20.392   6.419  24.020  0.00  0.00    -0.239 NA
ATOM     17  C   UNL     1      20.308   7.013  22.850  0.00  0.00    +0.123 A 
ATOM     22  C   UNL     1      21.879   8.127  23.920  0.00  0.00    +0.106 A 
ATOM     23  C   UNL     1      21.370   8.923  21.606  0.00  0.00    +0.150 C 
ATOM     24  C   UNL     1      21.370   7.108  24.692  0.00  0.00    +0.130 A 
ENDBRANCH  15  17
ENDBRANCH   5  15
ENDBRANCH  10   5
BRANCH  12  14
ATOM     14  C   UNL     1      13.842   7.352  19.467  0.00  0.00    +0.140 C 
BRANCH  14   6
ATOM      3  O   UNL     1      11.949  11.779  23.709  0.00  0.00    -0.377 OA
ATOM      4  O   UNL     1      11.381   7.869  20.731  0.00  0.00    -0.253 OA
ATOM      6  N   UNL     1      13.545   8.498  20.295  0.00  0.00    -0.297 N 
ATOM      7  N   UNL     1      12.162   9.848  21.657  0.00  0.00    -0.281 N 
ATOM     16  C   UNL     1      12.300   8.682  20.886  0.00  0.00    +0.302 C 
ATOM     18  C   UNL     1      10.880  10.125  22.311  0.00  0.00    +0.137 C 
ATOM     19  C   UNL     1      13.146  10.935  21.769  0.00  0.00    +0.137 C 
ATOM     20  C   UNL     1      11.091  10.638  23.726  0.00  0.00    +0.179 C 
ATOM     21  C   UNL     1      13.240  11.434  23.207  0.00  0.00    +0.179 C 
ATOM     26  H   UNL     1      14.291   9.170  20.406  0.00  0.00    +0.150 HD
ENDBRANCH  14   6
ENDBRANCH  12  14
TORSDOF 6
ENDMDL
MODEL 10
REMARK VINA RESULT:      -5.7     26.326     29.040
REMARK  Name = 75536761
REMARK  7 active torsions:
REMARK  status: ('A' for Active; 'I' for Inactive)
REMARK    1  A    between atoms: O_2  and  C_11
REMARK    2  A    between atoms: N_5  and  C_10
REMARK    3  A    between atoms: N_5  and  C_15
REMARK    4  A    between atoms: N_6  and  C_14
REMARK    5  A    between atoms: N_8  and  C_23
REMARK    6  A    between atoms: C_12  and  C_14
REMARK    7  A    between atoms: C_15  and  C_17
REMARK                            x       y       z     vdW  Elec       q    Type
REMARK                         _______ _______ _______ _____ _____    ______ ____
ROOT
ATOM      1  O   UNL     1      -5.200 -11.643  15.995  0.00  0.00    -0.371 OA
ATOM     10  C   UNL     1      -3.111 -11.214  14.948  0.00  0.00    +0.111 C 
ATOM     11  C   UNL     1      -3.046 -10.751  16.392  0.00  0.00    +0.164 C 
ATOM     12  C   UNL     1      -4.186 -11.551  17.008  0.00  0.00    +0.165 C 
ATOM     13  C   UNL     1      -4.613 -11.299  14.727  0.00  0.00    +0.181 C 
ENDROOT
BRANCH  11   2
ATOM      2  O   UNL     1      -1.805 -11.045  17.004  0.00  0.00    -0.388 OA
ATOM     27  H   UNL     1      -1.211 -10.288  16.871  0.00  0.00    +0.210 HD
ENDBRANCH  11   2
BRANCH  10   5
ATOM      5  N   UNL     1      -2.452 -10.314  14.017  0.00  0.00    -0.302 NA
ATOM     25  H   UNL     1      -1.693  -9.831  14.498  0.00  0.00    +0.123 HD
BRANCH   5  15
ATOM     15  C   UNL     1      -1.901 -11.045  12.882  0.00  0.00    +0.156 C 
BRANCH  15  17
ATOM      8  N   UNL     1      -3.414 -11.750  10.997  0.00  0.00    -0.336 N 
ATOM      9  N   UNL     1      -2.736  -9.635  10.974  0.00  0.00    -0.239 NA
ATOM     17  C   UNL     1      -2.675 -10.780  11.617  0.00  0.00    +0.123 A 
ATOM     22  C   UNL     1      -3.982 -11.187   9.890  0.00  0.00    +0.106 A 
ATOM     23  C   UNL     1      -3.575 -13.121  11.421  0.00  0.00    +0.150 C 
ATOM     24  C   UNL     1      -3.549  -9.881   9.896  0.00  0.00    +0.130 A 
ENDBRANCH  15  17
ENDBRANCH   5  15
ENDBRANCH  10   5
BRANCH  12  14
ATOM     14  C   UNL     1      -4.765 -10.909  18.257  0.00  0.00    +0.140 C 
BRANCH  14   6
ATOM      3  O   UNL     1     -11.079  -9.874  18.751  0.00  0.00    -0.377 OA
ATOM      4  O   UNL     1      -6.705 -11.741  20.117  0.00  0.00    -0.253 OA
ATOM      6  N   UNL     1      -6.191 -10.705  18.135  0.00  0.00    -0.297 N 
ATOM      7  N   UNL     1      -8.440 -10.883  18.839  0.00  0.00    -0.281 N 
ATOM     16  C   UNL     1      -7.086 -11.149  19.102  0.00  0.00    +0.302 C 
ATOM     18  C   UNL     1      -9.455 -11.321  19.801  0.00  0.00    +0.137 C 
ATOM     19  C   UNL     1      -8.989 -10.323  17.594  0.00  0.00    +0.137 C 
ATOM     20  C   UNL     1     -10.510 -10.246  20.007  0.00  0.00    +0.179 C 
ATOM     21  C   UNL     1     -10.087  -9.309  17.894  0.00  0.00    +0.179 C 
ATOM     26  H   UNL     1      -6.501 -10.237  17.296  0.00  0.00    +0.150 HD
ENDBRANCH  14   6
ENDBRANCH  12  14
TORSDOF 6
ENDMDL
