MODEL 1
REMARK VINA RESULT:      -7.8      0.000      0.000
REMARK  Name = 45783925
REMARK  10 active torsions:
REMARK  status: ('A' for Active; 'I' for Inactive)
REMARK    1  A    between atoms: N_3  and  C_13
REMARK    2  A    between atoms: C_8  and  C_12
REMARK    3  A    between atoms: C_9  and  C_13
REMARK    4  A    between atoms: C_11  and  C_18
REMARK    5  A    between atoms: C_12  and  C_22
REMARK    6  A    between atoms: C_12  and  C_23
REMARK    7  A    between atoms: C_15  and  C_24
REMARK    8  A    between atoms: C_18  and  C_25
REMARK    9  A    between atoms: C_19  and  C_26
REMARK   10  A    between atoms: C_27  and  C_28
REMARK                            x       y       z     vdW  Elec       q    Type
REMARK                         _______ _______ _______ _____ _____    ______ ____
ROOT
ATOM      8  C   UNL     1      13.765   9.479  18.433  0.00  0.00    +0.000 C 
ATOM      9  C   UNL     1      12.598   9.905  19.354  0.00  0.00    +0.029 C 
ATOM     10  C   UNL     1      14.721   8.538  19.177  0.00  0.00    +0.012 C 
ATOM     11  C   UNL     1      14.027   7.280  19.742  0.00  0.00    +0.024 C 
ATOM     14  C   UNL     1      12.033   8.753  20.143  0.00  0.00    -0.023 C 
ATOM     15  C   UNL     1      12.649   7.569  20.318  0.00  0.00    -0.073 C 
ATOM     24  C   UNL     1      11.957   6.454  21.054  0.00  0.00    +0.039 C 
ENDROOT
BRANCH   8  12
ATOM     12  C   UNL     1      13.249   8.834  17.138  0.00  0.00    -0.013 C 
ATOM     22  C   UNL     1      14.122   9.243  15.956  0.00  0.00    +0.007 C 
ATOM     23  C   UNL     1      11.794   9.221  16.895  0.00  0.00    +0.007 C 
ENDBRANCH   8  12
BRANCH   9  13
ATOM     13  C   UNL     1      13.016  11.020  20.318  0.00  0.00    +0.092 C 
BRANCH  13   3
ATOM      3  N   UNL     1      11.950  11.294  21.282  0.00  0.00    -0.302 NA
ATOM     16  C   UNL     1      12.241  10.645  22.567  0.00  0.00    +0.085 C 
ATOM     17  C   UNL     1      11.774  12.742  21.454  0.00  0.00    +0.085 C 
ATOM     19  C   UNL     1      10.746  12.331  23.753  0.00  0.00    +0.077 C 
ATOM     20  C   UNL     1      11.098  10.856  23.564  0.00  0.00    +0.028 C 
ATOM     21  C   UNL     1      10.620  13.053  22.412  0.00  0.00    +0.028 C 
BRANCH  19  26
ATOM      2  O   UNL     1      12.227  14.105  24.374  0.00  0.00    -0.276 OA
ATOM      5  N   UNL     1      12.119  12.250  25.732  0.00  0.00    -0.329 N 
ATOM     26  C   UNL     1      11.760  12.998  24.636  0.00  0.00    +0.214 C 
ATOM     33  H   UNL     1      12.801  12.597  26.398  0.00  0.00    +0.145 HD
ATOM     34  H   UNL     1      11.729  11.332  25.918  0.00  0.00    +0.145 HD
ENDBRANCH  19  26
ENDBRANCH  13   3
ENDBRANCH   9  13
BRANCH  11  18
ATOM     18  C   UNL     1      14.968   6.613  20.753  0.00  0.00    +0.105 C 
BRANCH  18  25
ATOM      1  O   UNL     1      17.396   6.385  20.870  0.00  0.00    -0.420 OA
ATOM      4  N   UNL     1      16.510   5.753  18.915  0.00  0.00    -0.112 NA
ATOM      6  N   UNL     1      17.878   5.572  18.843  0.00  0.00    -0.107 NA
ATOM     25  C   UNL     1      16.273   6.228  20.116  0.00  0.00    +0.218 A 
ATOM     27  C   UNL     1      18.354   5.954  20.005  0.00  0.00    +0.248 A 
BRANCH  27  28
ATOM      7  N   UNL     1      22.329   6.050  21.445  0.00  0.00    -0.263 NA
ATOM     28  C   UNL     1      19.702   5.986  20.493  0.00  0.00    +0.041 A 
ATOM     29  C   UNL     1      20.505   4.855  20.401  0.00  0.00    +0.033 A 
ATOM     30  C   UNL     1      20.210   7.149  21.062  0.00  0.00    +0.033 A 
ATOM     31  C   UNL     1      21.800   4.938  20.886  0.00  0.00    +0.111 A 
ATOM     32  C   UNL     1      21.518   7.130  21.518  0.00  0.00    +0.111 A 
ENDBRANCH  27  28
ENDBRANCH  18  25
ENDBRANCH  11  18
TORSDOF 7
ENDMDL
MODEL 2
REMARK VINA RESULT:      -7.7     26.526     30.136
REMARK  Name = 45783925
REMARK  10 active torsions:
REMARK  status: ('A' for Active; 'I' for Inactive)
REMARK    1  A    between atoms: N_3  and  C_13
REMARK    2  A    between atoms: C_8  and  C_12
REMARK    3  A    between atoms: C_9  and  C_13
REMARK    4  A    between atoms: C_11  and  C_18
REMARK    5  A    between atoms: C_12  and  C_22
REMARK    6  A    between atoms: C_12  and  C_23
REMARK    7  A    between atoms: C_15  and  C_24
REMARK    8  A    between atoms: C_18  and  C_25
REMARK    9  A    between atoms: C_19  and  C_26
REMARK   10  A    between atoms: C_27  and  C_28
REMARK                            x       y       z     vdW  Elec       q    Type
REMARK                         _______ _______ _______ _____ _____    ______ ____
ROOT
ATOM      8  C   UNL     1      -3.283 -10.678  14.995  0.00  0.00    +0.000 C 
ATOM      9  C   UNL     1      -4.265 -11.589  14.223  0.00  0.00    +0.029 C 
ATOM     10  C   UNL     1      -3.922 -10.179  16.298  0.00  0.00    +0.012 C 
ATOM     11  C   UNL     1      -4.397 -11.320  17.222  0.00  0.00    +0.024 C 
ATOM     14  C   UNL     1      -4.971 -12.572  15.122  0.00  0.00    -0.023 C 
ATOM     15  C   UNL     1      -5.031 -12.477  16.463  0.00  0.00    -0.073 C 
ATOM     24  C   UNL     1      -5.689 -13.561  17.272  0.00  0.00    +0.039 C 
ENDROOT
BRANCH   8  12
ATOM     12  C   UNL     1      -1.953 -11.394  15.268  0.00  0.00    -0.013 C 
ATOM     22  C   UNL     1      -0.875 -10.386  15.655  0.00  0.00    +0.007 C 
ATOM     23  C   UNL     1      -1.524 -12.203  14.048  0.00  0.00    +0.007 C 
ENDBRANCH   8  12
BRANCH   9  13
ATOM     13  C   UNL     1      -5.308 -10.773  13.453  0.00  0.00    +0.092 C 
BRANCH  13   3
ATOM      3  N   UNL     1      -4.663  -9.930  12.446  0.00  0.00    -0.302 NA
ATOM     16  C   UNL     1      -3.803 -10.739  11.573  0.00  0.00    +0.085 C 
ATOM     17  C   UNL     1      -5.671  -9.205  11.662  0.00  0.00    +0.085 C 
ATOM     19  C   UNL     1      -3.999  -8.973   9.750  0.00  0.00    +0.077 C 
ATOM     20  C   UNL     1      -3.059  -9.861  10.564  0.00  0.00    +0.028 C 
ATOM     21  C   UNL     1      -5.017  -8.267  10.644  0.00  0.00    +0.028 C 
BRANCH  19  26
ATOM      2  O   UNL     1      -4.353 -10.936   8.428  0.00  0.00    -0.276 OA
ATOM      5  N   UNL     1      -5.675  -9.097   8.022  0.00  0.00    -0.329 N 
ATOM     26  C   UNL     1      -4.681  -9.779   8.683  0.00  0.00    +0.214 C 
ATOM     33  H   UNL     1      -6.204  -9.539   7.278  0.00  0.00    +0.145 HD
ATOM     34  H   UNL     1      -5.917  -8.136   8.243  0.00  0.00    +0.145 HD
ENDBRANCH  19  26
ENDBRANCH  13   3
ENDBRANCH   9  13
BRANCH  11  18
ATOM     18  C   UNL     1      -5.325 -10.730  18.292  0.00  0.00    +0.105 C 
BRANCH  18  25
ATOM      1  O   UNL     1      -7.728 -10.314  18.374  0.00  0.00    -0.420 OA
ATOM      4  N   UNL     1      -6.719  -9.494  16.554  0.00  0.00    -0.112 NA
ATOM      6  N   UNL     1      -8.064  -9.189  16.470  0.00  0.00    -0.107 NA
ATOM     25  C   UNL     1      -6.568 -10.150  17.680  0.00  0.00    +0.218 A 
ATOM     27  C   UNL     1      -8.614  -9.686  17.553  0.00  0.00    +0.248 A 
BRANCH  27  28
ATOM      7  N   UNL     1     -12.637  -9.639  18.856  0.00  0.00    -0.263 NA
ATOM     28  C   UNL     1      -9.978  -9.671  17.995  0.00  0.00    +0.041 A 
ATOM     29  C   UNL     1     -10.326 -10.252  19.209  0.00  0.00    +0.033 A 
ATOM     30  C   UNL     1     -10.959  -9.073  17.210  0.00  0.00    +0.033 A 
ATOM     31  C   UNL     1     -11.656 -10.210  19.591  0.00  0.00    +0.111 A 
ATOM     32  C   UNL     1     -12.262  -9.083  17.682  0.00  0.00    +0.111 A 
ENDBRANCH  27  28
ENDBRANCH  18  25
ENDBRANCH  11  18
TORSDOF 7
ENDMDL
MODEL 3
REMARK VINA RESULT:      -7.5      3.264      5.432
REMARK  Name = 45783925
REMARK  10 active torsions:
REMARK  status: ('A' for Active; 'I' for Inactive)
REMARK    1  A    between atoms: N_3  and  C_13
REMARK    2  A    between atoms: C_8  and  C_12
REMARK    3  A    between atoms: C_9  and  C_13
REMARK    4  A    between atoms: C_11  and  C_18
REMARK    5  A    between atoms: C_12  and  C_22
REMARK    6  A    between atoms: C_12  and  C_23
REMARK    7  A    between atoms: C_15  and  C_24
REMARK    8  A    between atoms: C_18  and  C_25
REMARK    9  A    between atoms: C_19  and  C_26
REMARK   10  A    between atoms: C_27  and  C_28
REMARK                            x       y       z     vdW  Elec       q    Type
REMARK                         _______ _______ _______ _____ _____    ______ ____
ROOT
ATOM      8  C   UNL     1      17.183   9.463  21.548  0.00  0.00    +0.000 C 
ATOM      9  C   UNL     1      15.951   8.748  20.947  0.00  0.00    +0.029 C 
ATOM     10  C   UNL     1      18.190   8.439  22.087  0.00  0.00    +0.012 C 
ATOM     11  C   UNL     1      18.656   7.420  21.026  0.00  0.00    +0.024 C 
ATOM     14  C   UNL     1      16.329   7.564  20.093  0.00  0.00    -0.023 C 
ATOM     15  C   UNL     1      17.534   6.965  20.105  0.00  0.00    -0.073 C 
ATOM     24  C   UNL     1      17.832   5.843  19.149  0.00  0.00    +0.039 C 
ENDROOT
BRANCH   8  12
ATOM     12  C   UNL     1      17.841  10.401  20.524  0.00  0.00    -0.013 C 
ATOM     22  C   UNL     1      19.063  11.079  21.133  0.00  0.00    +0.007 C 
ATOM     23  C   UNL     1      16.836  11.437  20.031  0.00  0.00    +0.007 C 
ENDBRANCH   8  12
BRANCH   9  13
ATOM     13  C   UNL     1      14.974   8.293  22.035  0.00  0.00    +0.092 C 
BRANCH  13   3
ATOM      3  N   UNL     1      13.590   8.468  21.592  0.00  0.00    -0.302 NA
ATOM     16  C   UNL     1      13.491   9.589  20.649  0.00  0.00    +0.085 C 
ATOM     17  C   UNL     1      13.085   7.229  20.987  0.00  0.00    +0.085 C 
ATOM     19  C   UNL     1      11.361   8.584  19.682  0.00  0.00    +0.077 C 
ATOM     20  C   UNL     1      12.038   9.836  20.236  0.00  0.00    +0.028 C 
ATOM     21  C   UNL     1      11.617   7.369  20.573  0.00  0.00    +0.028 C 
BRANCH  19  26
ATOM      2  O   UNL     1      12.044   7.195  17.857  0.00  0.00    -0.276 OA
ATOM      5  N   UNL     1      11.960   9.470  17.522  0.00  0.00    -0.329 N 
ATOM     26  C   UNL     1      11.814   8.328  18.274  0.00  0.00    +0.214 C 
ATOM     33  H   UNL     1      12.266   9.422  16.556  0.00  0.00    +0.145 HD
ATOM     34  H   UNL     1      11.777  10.396  17.895  0.00  0.00    +0.145 HD
ENDBRANCH  19  26
ENDBRANCH  13   3
ENDBRANCH   9  13
BRANCH  11  18
ATOM     18  C   UNL     1      19.353   6.254  21.738  0.00  0.00    +0.105 C 
BRANCH  18  25
ATOM      1  O   UNL     1      21.321   4.842  21.439  0.00  0.00    -0.420 OA
ATOM      4  N   UNL     1      21.544   6.911  20.617  0.00  0.00    -0.112 NA
ATOM      6  N   UNL     1      22.722   6.227  20.380  0.00  0.00    -0.107 NA
ATOM     25  C   UNL     1      20.755   6.064  21.236  0.00  0.00    +0.218 A 
ATOM     27  C   UNL     1      22.546   5.025  20.876  0.00  0.00    +0.248 A 
BRANCH  27  28
ATOM      7  N   UNL     1      25.154   1.697  20.995  0.00  0.00    -0.263 NA
ATOM     28  C   UNL     1      23.431   3.896  20.916  0.00  0.00    +0.041 A 
ATOM     29  C   UNL     1      24.605   3.903  20.172  0.00  0.00    +0.033 A 
ATOM     30  C   UNL     1      23.116   2.791  21.698  0.00  0.00    +0.033 A 
ATOM     31  C   UNL     1      25.426   2.789  20.245  0.00  0.00    +0.111 A 
ATOM     32  C   UNL     1      24.003   1.727  21.704  0.00  0.00    +0.111 A 
ENDBRANCH  27  28
ENDBRANCH  18  25
ENDBRANCH  11  18
TORSDOF 7
ENDMDL
MODEL 4
REMARK VINA RESULT:      -7.4      1.446      2.601
REMARK  Name = 45783925
REMARK  10 active torsions:
REMARK  status: ('A' for Active; 'I' for Inactive)
REMARK    1  A    between atoms: N_3  and  C_13
REMARK    2  A    between atoms: C_8  and  C_12
REMARK    3  A    between atoms: C_9  and  C_13
REMARK    4  A    between atoms: C_11  and  C_18
REMARK    5  A    between atoms: C_12  and  C_22
REMARK    6  A    between atoms: C_12  and  C_23
REMARK    7  A    between atoms: C_15  and  C_24
REMARK    8  A    between atoms: C_18  and  C_25
REMARK    9  A    between atoms: C_19  and  C_26
REMARK   10  A    between atoms: C_27  and  C_28
REMARK                            x       y       z     vdW  Elec       q    Type
REMARK                         _______ _______ _______ _____ _____    ______ ____
ROOT
ATOM      8  C   UNL     1      14.248  10.144  21.476  0.00  0.00    +0.000 C 
ATOM      9  C   UNL     1      13.043  10.746  20.716  0.00  0.00    +0.029 C 
ATOM     10  C   UNL     1      14.575   8.743  20.942  0.00  0.00    +0.012 C 
ATOM     11  C   UNL     1      14.860   8.717  19.425  0.00  0.00    +0.024 C 
ATOM     14  C   UNL     1      13.129  10.526  19.228  0.00  0.00    -0.023 C 
ATOM     15  C   UNL     1      13.942   9.634  18.631  0.00  0.00    -0.073 C 
ATOM     24  C   UNL     1      14.011   9.555  17.130  0.00  0.00    +0.039 C 
ENDROOT
BRANCH   8  12
ATOM     12  C   UNL     1      15.474  11.065  21.402  0.00  0.00    -0.013 C 
ATOM     22  C   UNL     1      16.666  10.422  22.104  0.00  0.00    +0.007 C 
ATOM     23  C   UNL     1      15.154  12.425  22.016  0.00  0.00    +0.007 C 
ENDBRANCH   8  12
BRANCH   9  13
ATOM     13  C   UNL     1      11.713  10.190  21.232  0.00  0.00    +0.092 C 
BRANCH  13   3
ATOM      3  N   UNL     1      11.119  11.098  22.213  0.00  0.00    -0.302 NA
ATOM     16  C   UNL     1      11.420  10.647  23.578  0.00  0.00    +0.085 C 
ATOM     17  C   UNL     1      11.596  12.469  21.997  0.00  0.00    +0.085 C 
ATOM     19  C   UNL     1      11.077  13.021  24.433  0.00  0.00    +0.077 C 
ATOM     20  C   UNL     1      10.740  11.542  24.617  0.00  0.00    +0.028 C 
ATOM     21  C   UNL     1      10.938  13.449  22.973  0.00  0.00    +0.028 C 
BRANCH  19  26
ATOM      2  O   UNL     1      13.223  14.079  24.382  0.00  0.00    -0.276 OA
ATOM      5  N   UNL     1      12.770  12.618  26.102  0.00  0.00    -0.329 N 
ATOM     26  C   UNL     1      12.455  13.308  24.954  0.00  0.00    +0.214 C 
ATOM     33  H   UNL     1      13.676  12.729  26.543  0.00  0.00    +0.145 HD
ATOM     34  H   UNL     1      12.122  11.976  26.547  0.00  0.00    +0.145 HD
ENDBRANCH  19  26
ENDBRANCH  13   3
ENDBRANCH   9  13
BRANCH  11  18
ATOM     18  C   UNL     1      14.812   7.262  18.943  0.00  0.00    +0.105 C 
BRANCH  18  25
ATOM      1  O   UNL     1      16.940   7.024  20.114  0.00  0.00    -0.420 OA
ATOM      4  N   UNL     1      16.683   5.622  18.391  0.00  0.00    -0.112 NA
ATOM      6  N   UNL     1      17.920   5.380  18.957  0.00  0.00    -0.107 NA
ATOM     25  C   UNL     1      16.146   6.588  19.098  0.00  0.00    +0.218 A 
ATOM     27  C   UNL     1      18.027   6.220  19.959  0.00  0.00    +0.248 A 
BRANCH  27  28
ATOM      7  N   UNL     1      21.173   6.806  22.725  0.00  0.00    -0.263 NA
ATOM     28  C   UNL     1      19.094   6.419  20.898  0.00  0.00    +0.041 A 
ATOM     29  C   UNL     1      20.289   5.724  20.753  0.00  0.00    +0.033 A 
ATOM     30  C   UNL     1      18.937   7.307  21.956  0.00  0.00    +0.033 A 
ATOM     31  C   UNL     1      21.289   5.951  21.684  0.00  0.00    +0.111 A 
ATOM     32  C   UNL     1      19.996   7.464  22.834  0.00  0.00    +0.111 A 
ENDBRANCH  27  28
ENDBRANCH  18  25
ENDBRANCH  11  18
TORSDOF 7
ENDMDL
MODEL 5
REMARK VINA RESULT:      -7.4     27.112     30.230
REMARK  Name = 45783925
REMARK  10 active torsions:
REMARK  status: ('A' for Active; 'I' for Inactive)
REMARK    1  A    between atoms: N_3  and  C_13
REMARK    2  A    between atoms: C_8  and  C_12
REMARK    3  A    between atoms: C_9  and  C_13
REMARK    4  A    between atoms: C_11  and  C_18
REMARK    5  A    between atoms: C_12  and  C_22
REMARK    6  A    between atoms: C_12  and  C_23
REMARK    7  A    between atoms: C_15  and  C_24
REMARK    8  A    between atoms: C_18  and  C_25
REMARK    9  A    between atoms: C_19  and  C_26
REMARK   10  A    between atoms: C_27  and  C_28
REMARK                            x       y       z     vdW  Elec       q    Type
REMARK                         _______ _______ _______ _____ _____    ______ ____
ROOT
ATOM      8  C   UNL     1      -4.038 -12.135  12.239  0.00  0.00    +0.000 C 
ATOM      9  C   UNL     1      -3.138 -11.572  13.363  0.00  0.00    +0.029 C 
ATOM     10  C   UNL     1      -4.481 -11.013  11.291  0.00  0.00    +0.012 C 
ATOM     11  C   UNL     1      -3.301 -10.241  10.663  0.00  0.00    +0.024 C 
ATOM     14  C   UNL     1      -2.112 -10.595  12.847  0.00  0.00    -0.023 C 
ATOM     15  C   UNL     1      -2.160 -10.000  11.641  0.00  0.00    -0.073 C 
ATOM     24  C   UNL     1      -1.038  -9.105  11.191  0.00  0.00    +0.039 C 
ENDROOT
BRANCH   8  12
ATOM     12  C   UNL     1      -3.336 -13.265  11.472  0.00  0.00    -0.013 C 
ATOM     22  C   UNL     1      -4.272 -13.858  10.424  0.00  0.00    +0.007 C 
ATOM     23  C   UNL     1      -2.854 -14.343  12.438  0.00  0.00    +0.007 C 
ENDBRANCH   8  12
BRANCH   9  13
ATOM     13  C   UNL     1      -3.961 -10.901  14.467  0.00  0.00    +0.092 C 
BRANCH  13   3
ATOM      3  N   UNL     1      -3.903 -11.684  15.702  0.00  0.00    -0.302 NA
ATOM     16  C   UNL     1      -4.057 -10.810  16.871  0.00  0.00    +0.085 C 
ATOM     17  C   UNL     1      -4.931 -12.733  15.693  0.00  0.00    +0.085 C 
ATOM     19  C   UNL     1      -4.873 -12.794  18.243  0.00  0.00    +0.077 C 
ATOM     20  C   UNL     1      -3.920 -11.601  18.174  0.00  0.00    +0.028 C 
ATOM     21  C   UNL     1      -4.848 -13.606  16.948  0.00  0.00    +0.028 C 
BRANCH  19  26
ATOM      2  O   UNL     1      -6.509 -11.164  18.872  0.00  0.00    -0.276 OA
ATOM      5  N   UNL     1      -7.210 -13.324  18.500  0.00  0.00    -0.329 N 
ATOM     26  C   UNL     1      -6.263 -12.329  18.564  0.00  0.00    +0.214 C 
ATOM     33  H   UNL     1      -8.185 -13.130  18.702  0.00  0.00    +0.145 HD
ATOM     34  H   UNL     1      -6.979 -14.282  18.257  0.00  0.00    +0.145 HD
ENDBRANCH  19  26
ENDBRANCH  13   3
ENDBRANCH   9  13
BRANCH  11  18
ATOM     18  C   UNL     1      -3.838  -8.946  10.042  0.00  0.00    +0.105 C 
BRANCH  18  25
ATOM      1  O   UNL     1      -4.497  -9.975   7.929  0.00  0.00    -0.420 OA
ATOM      4  N   UNL     1      -6.143  -8.862   8.958  0.00  0.00    -0.112 NA
ATOM      6  N   UNL     1      -6.651  -9.389   7.786  0.00  0.00    -0.107 NA
ATOM     25  C   UNL     1      -4.883  -9.229   9.001  0.00  0.00    +0.218 A 
ATOM     27  C   UNL     1      -5.657 -10.030   7.219  0.00  0.00    +0.248 A 
BRANCH  27  28
ATOM      7  N   UNL     1      -5.506 -12.197   3.590  0.00  0.00    -0.263 NA
ATOM     28  C   UNL     1      -5.605 -10.765   5.988  0.00  0.00    +0.041 A 
ATOM     29  C   UNL     1      -4.552 -11.638   5.740  0.00  0.00    +0.033 A 
ATOM     30  C   UNL     1      -6.609 -10.607   5.038  0.00  0.00    +0.033 A 
ATOM     31  C   UNL     1      -4.549 -12.325   4.537  0.00  0.00    +0.111 A 
ATOM     32  C   UNL     1      -6.514 -11.340   3.867  0.00  0.00    +0.111 A 
ENDBRANCH  27  28
ENDBRANCH  18  25
ENDBRANCH  11  18
TORSDOF 7
ENDMDL
MODEL 6
REMARK VINA RESULT:      -7.2      1.651      2.602
REMARK  Name = 45783925
REMARK  10 active torsions:
REMARK  status: ('A' for Active; 'I' for Inactive)
REMARK    1  A    between atoms: N_3  and  C_13
REMARK    2  A    between atoms: C_8  and  C_12
REMARK    3  A    between atoms: C_9  and  C_13
REMARK    4  A    between atoms: C_11  and  C_18
REMARK    5  A    between atoms: C_12  and  C_22
REMARK    6  A    between atoms: C_12  and  C_23
REMARK    7  A    between atoms: C_15  and  C_24
REMARK    8  A    between atoms: C_18  and  C_25
REMARK    9  A    between atoms: C_19  and  C_26
REMARK   10  A    between atoms: C_27  and  C_28
REMARK                            x       y       z     vdW  Elec       q    Type
REMARK                         _______ _______ _______ _____ _____    ______ ____
ROOT
ATOM      8  C   UNL     1      14.911  11.127  20.340  0.00  0.00    +0.000 C 
ATOM      9  C   UNL     1      13.525  11.366  19.696  0.00  0.00    +0.029 C 
ATOM     10  C   UNL     1      15.146   9.628  20.568  0.00  0.00    +0.012 C 
ATOM     11  C   UNL     1      15.027   8.786  19.280  0.00  0.00    +0.024 C 
ATOM     14  C   UNL     1      13.229  10.395  18.582  0.00  0.00    -0.023 C 
ATOM     15  C   UNL     1      13.895   9.244  18.372  0.00  0.00    -0.073 C 
ATOM     24  C   UNL     1      13.574   8.389  17.177  0.00  0.00    +0.039 C 
ENDROOT
BRANCH   8  12
ATOM     12  C   UNL     1      16.035  11.743  19.494  0.00  0.00    -0.013 C 
ATOM     22  C   UNL     1      17.379  11.581  20.196  0.00  0.00    +0.007 C 
ATOM     23  C   UNL     1      15.744  13.214  19.214  0.00  0.00    +0.007 C 
ENDBRANCH   8  12
BRANCH   9  13
ATOM     13  C   UNL     1      12.400  11.301  20.733  0.00  0.00    +0.092 C 
BRANCH  13   3
ATOM      3  N   UNL     1      12.788  11.995  21.961  0.00  0.00    -0.302 NA
ATOM     16  C   UNL     1      12.053  13.260  22.090  0.00  0.00    +0.085 C 
ATOM     17  C   UNL     1      12.562  11.136  23.130  0.00  0.00    +0.085 C 
ATOM     19  C   UNL     1      12.415  13.209  24.610  0.00  0.00    +0.077 C 
ATOM     20  C   UNL     1      12.505  14.037  23.329  0.00  0.00    +0.028 C 
ATOM     21  C   UNL     1      13.021  11.819  24.421  0.00  0.00    +0.028 C 
BRANCH  19  26
ATOM      2  O   UNL     1      10.514  12.084  25.530  0.00  0.00    -0.276 OA
ATOM      5  N   UNL     1      10.282  14.290  24.916  0.00  0.00    -0.329 N 
ATOM     26  C   UNL     1      10.990  13.121  25.073  0.00  0.00    +0.214 C 
ATOM     33  H   UNL     1       9.307  14.349  25.190  0.00  0.00    +0.145 HD
ATOM     34  H   UNL     1      10.695  15.129  24.523  0.00  0.00    +0.145 HD
ENDBRANCH  19  26
ENDBRANCH  13   3
ENDBRANCH   9  13
BRANCH  11  18
ATOM     18  C   UNL     1      14.917   7.307  19.670  0.00  0.00    +0.105 C 
BRANCH  18  25
ATOM      1  O   UNL     1      17.156   6.821  20.511  0.00  0.00    -0.420 OA
ATOM      4  N   UNL     1      16.657   5.793  18.588  0.00  0.00    -0.112 NA
ATOM      6  N   UNL     1      17.943   5.431  18.945  0.00  0.00    -0.107 NA
ATOM     25  C   UNL     1      16.237   6.604  19.531  0.00  0.00    +0.218 A 
ATOM     27  C   UNL     1      18.191   6.053  20.073  0.00  0.00    +0.248 A 
BRANCH  27  28
ATOM      7  N   UNL     1      21.650   6.047  22.508  0.00  0.00    -0.263 NA
ATOM     28  C   UNL     1      19.364   6.051  20.899  0.00  0.00    +0.041 A 
ATOM     29  C   UNL     1      20.465   5.277  20.546  0.00  0.00    +0.033 A 
ATOM     30  C   UNL     1      19.405   6.822  22.056  0.00  0.00    +0.033 A 
ATOM     31  C   UNL     1      21.573   5.310  21.376  0.00  0.00    +0.111 A 
ATOM     32  C   UNL     1      20.561   6.786  22.818  0.00  0.00    +0.111 A 
ENDBRANCH  27  28
ENDBRANCH  18  25
ENDBRANCH  11  18
TORSDOF 7
ENDMDL
MODEL 7
REMARK VINA RESULT:      -7.1      3.262      5.701
REMARK  Name = 45783925
REMARK  10 active torsions:
REMARK  status: ('A' for Active; 'I' for Inactive)
REMARK    1  A    between atoms: N_3  and  C_13
REMARK    2  A    between atoms: C_8  and  C_12
REMARK    3  A    between atoms: C_9  and  C_13
REMARK    4  A    between atoms: C_11  and  C_18
REMARK    5  A    between atoms: C_12  and  C_22
REMARK    6  A    between atoms: C_12  and  C_23
REMARK    7  A    between atoms: C_15  and  C_24
REMARK    8  A    between atoms: C_18  and  C_25
REMARK    9  A    between atoms: C_19  and  C_26
REMARK   10  A    between atoms: C_27  and  C_28
REMARK                            x       y       z     vdW  Elec       q    Type
REMARK                         _______ _______ _______ _____ _____    ______ ____
ROOT
ATOM      8  C   UNL     1      17.861   9.771  21.620  0.00  0.00    +0.000 C 
ATOM      9  C   UNL     1      16.743   9.000  20.880  0.00  0.00    +0.029 C 
ATOM     10  C   UNL     1      18.670   8.821  22.513  0.00  0.00    +0.012 C 
ATOM     11  C   UNL     1      19.289   7.635  21.743  0.00  0.00    +0.024 C 
ATOM     14  C   UNL     1      17.222   7.687  20.316  0.00  0.00    -0.023 C 
ATOM     15  C   UNL     1      18.361   7.067  20.679  0.00  0.00    -0.073 C 
ATOM     24  C   UNL     1      18.788   5.800  19.989  0.00  0.00    +0.039 C 
ENDROOT
BRANCH   8  12
ATOM     12  C   UNL     1      18.773  10.518  20.635  0.00  0.00    -0.013 C 
ATOM     22  C   UNL     1      20.037  10.997  21.340  0.00  0.00    +0.007 C 
ATOM     23  C   UNL     1      18.027  11.689  20.005  0.00  0.00    +0.007 C 
ENDBRANCH   8  12
BRANCH   9  13
ATOM     13  C   UNL     1      15.534   8.748  21.786  0.00  0.00    +0.092 C 
BRANCH  13   3
ATOM      3  N   UNL     1      14.304   8.678  20.997  0.00  0.00    -0.302 NA
ATOM     16  C   UNL     1      14.005   7.286  20.635  0.00  0.00    +0.085 C 
ATOM     17  C   UNL     1      13.186   9.278  21.735  0.00  0.00    +0.085 C 
ATOM     19  C   UNL     1      11.547   7.889  20.358  0.00  0.00    +0.077 C 
ATOM     20  C   UNL     1      12.765   7.202  19.742  0.00  0.00    +0.028 C 
ATOM     21  C   UNL     1      11.901   9.273  20.902  0.00  0.00    +0.028 C 
BRANCH  19  26
ATOM      2  O   UNL     1      10.423   7.497  22.435  0.00  0.00    -0.276 OA
ATOM      5  N   UNL     1      11.063   5.676  21.181  0.00  0.00    -0.329 N 
ATOM     26  C   UNL     1      10.948   7.024  21.428  0.00  0.00    +0.214 C 
ATOM     33  H   UNL     1      10.699   4.993  21.837  0.00  0.00    +0.145 HD
ATOM     34  H   UNL     1      11.514   5.310  20.349  0.00  0.00    +0.145 HD
ENDBRANCH  19  26
ENDBRANCH  13   3
ENDBRANCH   9  13
BRANCH  11  18
ATOM     18  C   UNL     1      19.750   6.580  22.756  0.00  0.00    +0.105 C 
BRANCH  18  25
ATOM      1  O   UNL     1      21.391   4.786  22.540  0.00  0.00    -0.420 OA
ATOM      4  N   UNL     1      22.216   6.831  22.163  0.00  0.00    -0.112 NA
ATOM      6  N   UNL     1      23.244   5.921  22.008  0.00  0.00    -0.107 NA
ATOM     25  C   UNL     1      21.154   6.125  22.472  0.00  0.00    +0.218 A 
ATOM     27  C   UNL     1      22.717   4.741  22.237  0.00  0.00    +0.248 A 
BRANCH  27  28
ATOM      7  N   UNL     1      24.474   0.894  22.181  0.00  0.00    -0.263 NA
ATOM     28  C   UNL     1      23.314   3.436  22.218  0.00  0.00    +0.041 A 
ATOM     29  C   UNL     1      23.768   2.859  23.398  0.00  0.00    +0.033 A 
ATOM     30  C   UNL     1      23.439   2.744  21.019  0.00  0.00    +0.033 A 
ATOM     31  C   UNL     1      24.335   1.598  23.327  0.00  0.00    +0.111 A 
ATOM     32  C   UNL     1      24.020   1.487  21.053  0.00  0.00    +0.111 A 
ENDBRANCH  27  28
ENDBRANCH  18  25
ENDBRANCH  11  18
TORSDOF 7
ENDMDL
MODEL 8
REMARK VINA RESULT:      -7.0     18.058     22.582
REMARK  Name = 45783925
REMARK  10 active torsions:
REMARK  status: ('A' for Active; 'I' for Inactive)
REMARK    1  A    between atoms: N_3  and  C_13
REMARK    2  A    between atoms: C_8  and  C_12
REMARK    3  A    between atoms: C_9  and  C_13
REMARK    4  A    between atoms: C_11  and  C_18
REMARK    5  A    between atoms: C_12  and  C_22
REMARK    6  A    between atoms: C_12  and  C_23
REMARK    7  A    between atoms: C_15  and  C_24
REMARK    8  A    between atoms: C_18  and  C_25
REMARK    9  A    between atoms: C_19  and  C_26
REMARK   10  A    between atoms: C_27  and  C_28
REMARK                            x       y       z     vdW  Elec       q    Type
REMARK                         _______ _______ _______ _____ _____    ______ ____
ROOT
ATOM      8  C   UNL     1      11.028   4.859  -1.217  0.00  0.00    +0.000 C 
ATOM      9  C   UNL     1      12.060   3.813  -1.697  0.00  0.00    +0.029 C 
ATOM     10  C   UNL     1      10.555   4.536   0.207  0.00  0.00    +0.012 C 
ATOM     11  C   UNL     1      11.708   4.448   1.229  0.00  0.00    +0.024 C 
ATOM     14  C   UNL     1      13.082   3.481  -0.638  0.00  0.00    -0.023 C 
ATOM     15  C   UNL     1      12.949   3.767   0.670  0.00  0.00    -0.073 C 
ATOM     24  C   UNL     1      14.068   3.467   1.629  0.00  0.00    +0.039 C 
ENDROOT
BRANCH   8  12
ATOM     12  C   UNL     1      11.592   6.285  -1.304  0.00  0.00    -0.013 C 
ATOM     22  C   UNL     1      10.511   7.307  -0.969  0.00  0.00    +0.007 C 
ATOM     23  C   UNL     1      12.170   6.543  -2.692  0.00  0.00    +0.007 C 
ENDBRANCH   8  12
BRANCH   9  13
ATOM     13  C   UNL     1      11.383   2.522  -2.166  0.00  0.00    +0.092 C 
BRANCH  13   3
ATOM      3  N   UNL     1      11.354   2.456  -3.627  0.00  0.00    -0.302 NA
ATOM     16  C   UNL     1      10.073   2.960  -4.138  0.00  0.00    +0.085 C 
ATOM     17  C   UNL     1      12.479   3.209  -4.197  0.00  0.00    +0.085 C 
ATOM     19  C   UNL     1      11.175   3.483  -6.373  0.00  0.00    +0.077 C 
ATOM     20  C   UNL     1       9.995   2.825  -5.661  0.00  0.00    +0.028 C 
ATOM     21  C   UNL     1      12.505   3.100  -5.724  0.00  0.00    +0.028 C 
BRANCH  19  26
ATOM      2  O   UNL     1       9.886   5.499  -6.416  0.00  0.00    -0.276 OA
ATOM      5  N   UNL     1      12.180   5.673  -6.440  0.00  0.00    -0.329 N 
ATOM     26  C   UNL     1      10.997   4.973  -6.405  0.00  0.00    +0.214 C 
ATOM     33  H   UNL     1      12.184   6.687  -6.468  0.00  0.00    +0.145 HD
ATOM     34  H   UNL     1      13.085   5.214  -6.444  0.00  0.00    +0.145 HD
ENDBRANCH  19  26
ENDBRANCH  13   3
ENDBRANCH   9  13
BRANCH  11  18
ATOM     18  C   UNL     1      11.183   3.777   2.504  0.00  0.00    +0.105 C 
BRANCH  18  25
ATOM      1  O   UNL     1      10.489   4.364   4.769  0.00  0.00    -0.420 OA
ATOM      4  N   UNL     1      10.387   6.058   3.312  0.00  0.00    -0.112 NA
ATOM      6  N   UNL     1       9.970   6.528   4.543  0.00  0.00    -0.107 NA
ATOM     25  C   UNL     1      10.680   4.792   3.491  0.00  0.00    +0.218 A 
ATOM     27  C   UNL     1      10.046   5.506   5.362  0.00  0.00    +0.248 A 
BRANCH  27  28
ATOM      7  N   UNL     1       9.141   5.220   9.483  0.00  0.00    -0.263 NA
ATOM     28  C   UNL     1       9.739   5.410   6.760  0.00  0.00    +0.041 A 
ATOM     29  C   UNL     1       9.284   6.525   7.454  0.00  0.00    +0.033 A 
ATOM     30  C   UNL     1       9.896   4.199   7.427  0.00  0.00    +0.033 A 
ATOM     31  C   UNL     1       9.001   6.380   8.802  0.00  0.00    +0.111 A 
ATOM     32  C   UNL     1       9.586   4.157   8.776  0.00  0.00    +0.111 A 
ENDBRANCH  27  28
ENDBRANCH  18  25
ENDBRANCH  11  18
TORSDOF 7
ENDMDL
MODEL 9
REMARK VINA RESULT:      -7.0      3.527      8.115
REMARK  Name = 45783925
REMARK  10 active torsions:
REMARK  status: ('A' for Active; 'I' for Inactive)
REMARK    1  A    between atoms: N_3  and  C_13
REMARK    2  A    between atoms: C_8  and  C_12
REMARK    3  A    between atoms: C_9  and  C_13
REMARK    4  A    between atoms: C_11  and  C_18
REMARK    5  A    between atoms: C_12  and  C_22
REMARK    6  A    between atoms: C_12  and  C_23
REMARK    7  A    between atoms: C_15  and  C_24
REMARK    8  A    between atoms: C_18  and  C_25
REMARK    9  A    between atoms: C_19  and  C_26
REMARK   10  A    between atoms: C_27  and  C_28
REMARK                            x       y       z     vdW  Elec       q    Type
REMARK                         _______ _______ _______ _____ _____    ______ ____
ROOT
ATOM      8  C   UNL     1      14.587   8.145  19.627  0.00  0.00    +0.000 C 
ATOM      9  C   UNL     1      13.615   7.349  18.725  0.00  0.00    +0.029 C 
ATOM     10  C   UNL     1      13.813   8.916  20.704  0.00  0.00    +0.012 C 
ATOM     11  C   UNL     1      12.922   8.012  21.583  0.00  0.00    +0.024 C 
ATOM     14  C   UNL     1      12.544   6.639  19.514  0.00  0.00    -0.023 C 
ATOM     15  C   UNL     1      12.228   6.912  20.793  0.00  0.00    -0.073 C 
ATOM     24  C   UNL     1      11.199   6.084  21.514  0.00  0.00    +0.039 C 
ENDROOT
BRANCH   8  12
ATOM     12  C   UNL     1      15.646   7.227  20.255  0.00  0.00    -0.013 C 
ATOM     22  C   UNL     1      16.706   8.054  20.976  0.00  0.00    +0.007 C 
ATOM     23  C   UNL     1      16.284   6.344  19.187  0.00  0.00    +0.007 C 
ENDBRANCH   8  12
BRANCH   9  13
ATOM     13  C   UNL     1      12.955   8.246  17.673  0.00  0.00    +0.092 C 
BRANCH  13   3
ATOM      3  N   UNL     1      13.914   9.220  17.151  0.00  0.00    -0.302 NA
ATOM     16  C   UNL     1      14.098   9.034  15.706  0.00  0.00    +0.085 C 
ATOM     17  C   UNL     1      13.470  10.587  17.450  0.00  0.00    +0.085 C 
ATOM     19  C   UNL     1      14.862  11.453  15.495  0.00  0.00    +0.077 C 
ATOM     20  C   UNL     1      15.157   9.993  15.156  0.00  0.00    +0.028 C 
ATOM     21  C   UNL     1      14.490  11.622  16.968  0.00  0.00    +0.028 C 
BRANCH  19  26
ATOM      2  O   UNL     1      12.967  11.250  14.047  0.00  0.00    -0.276 OA
ATOM      5  N   UNL     1      13.812  13.353  14.446  0.00  0.00    -0.329 N 
ATOM     26  C   UNL     1      13.782  11.987  14.599  0.00  0.00    +0.214 C 
ATOM     33  H   UNL     1      13.134  13.826  13.859  0.00  0.00    +0.145 HD
ATOM     34  H   UNL     1      14.506  13.938  14.902  0.00  0.00    +0.145 HD
ENDBRANCH  19  26
ENDBRANCH  13   3
ENDBRANCH   9  13
BRANCH  11  18
ATOM     18  C   UNL     1      11.941   8.898  22.360  0.00  0.00    +0.105 C 
BRANCH  18  25
ATOM      1  O   UNL     1      11.816  11.138  21.400  0.00  0.00    -0.420 OA
ATOM      4  N   UNL     1      13.227  10.960  23.127  0.00  0.00    -0.112 NA
ATOM      6  N   UNL     1      13.256  12.269  22.685  0.00  0.00    -0.107 NA
ATOM     25  C   UNL     1      12.374  10.336  22.348  0.00  0.00    +0.218 A 
ATOM     27  C   UNL     1      12.417  12.327  21.677  0.00  0.00    +0.248 A 
BRANCH  27  28
ATOM      7  N   UNL     1      11.318  15.578  19.205  0.00  0.00    -0.263 NA
ATOM     28  C   UNL     1      12.045  13.430  20.839  0.00  0.00    +0.041 A 
ATOM     29  C   UNL     1      12.826  13.766  19.739  0.00  0.00    +0.033 A 
ATOM     30  C   UNL     1      10.900  14.167  21.123  0.00  0.00    +0.033 A 
ATOM     31  C   UNL     1      12.423  14.839  18.961  0.00  0.00    +0.111 A 
ATOM     32  C   UNL     1      10.583  15.222  20.283  0.00  0.00    +0.111 A 
ENDBRANCH  27  28
ENDBRANCH  18  25
ENDBRANCH  11  18
TORSDOF 7
ENDMDL
MODEL 10
REMARK VINA RESULT:      -6.8      1.958      3.795
REMARK  Name = 45783925
REMARK  10 active torsions:
REMARK  status: ('A' for Active; 'I' for Inactive)
REMARK    1  A    between atoms: N_3  and  C_13
REMARK    2  A    between atoms: C_8  and  C_12
REMARK    3  A    between atoms: C_9  and  C_13
REMARK    4  A    between atoms: C_11  and  C_18
REMARK    5  A    between atoms: C_12  and  C_22
REMARK    6  A    between atoms: C_12  and  C_23
REMARK    7  A    between atoms: C_15  and  C_24
REMARK    8  A    between atoms: C_18  and  C_25
REMARK    9  A    between atoms: C_19  and  C_26
REMARK   10  A    between atoms: C_27  and  C_28
REMARK                            x       y       z     vdW  Elec       q    Type
REMARK                         _______ _______ _______ _____ _____    ______ ____
ROOT
ATOM      8  C   UNL     1      13.636  11.625  22.002  0.00  0.00    +0.000 C 
ATOM      9  C   UNL     1      12.690  12.693  21.406  0.00  0.00    +0.029 C 
ATOM     10  C   UNL     1      13.688  10.387  21.097  0.00  0.00    +0.012 C 
ATOM     11  C   UNL     1      14.120  10.704  19.650  0.00  0.00    +0.024 C 
ATOM     14  C   UNL     1      12.882  12.872  19.921  0.00  0.00    -0.023 C 
ATOM     15  C   UNL     1      13.527  12.002  19.122  0.00  0.00    -0.073 C 
ATOM     24  C   UNL     1      13.737  12.320  17.667  0.00  0.00    +0.039 C 
ENDROOT
BRANCH   8  12
ATOM     12  C   UNL     1      15.041  12.194  22.244  0.00  0.00    -0.013 C 
ATOM     22  C   UNL     1      15.993  11.090  22.691  0.00  0.00    +0.007 C 
ATOM     23  C   UNL     1      14.989  13.315  23.279  0.00  0.00    +0.007 C 
ENDBRANCH   8  12
BRANCH   9  13
ATOM     13  C   UNL     1      11.220  12.369  21.688  0.00  0.00    +0.092 C 
BRANCH  13   3
ATOM      3  N   UNL     1      10.794  12.965  22.955  0.00  0.00    -0.302 NA
ATOM     16  C   UNL     1      11.186  12.108  24.082  0.00  0.00    +0.085 C 
ATOM     17  C   UNL     1      11.355  14.313  23.102  0.00  0.00    +0.085 C 
ATOM     19  C   UNL     1      11.112  14.125  25.634  0.00  0.00    +0.077 C 
ATOM     20  C   UNL     1      10.679  12.677  25.409  0.00  0.00    +0.028 C 
ATOM     21  C   UNL     1      10.871  14.981  24.392  0.00  0.00    +0.028 C 
BRANCH  19  26
ATOM      2  O   UNL     1      13.260  15.158  25.844  0.00  0.00    -0.276 OA
ATOM      5  N   UNL     1      12.990  13.029  26.675  0.00  0.00    -0.329 N 
ATOM     26  C   UNL     1      12.551  14.176  26.057  0.00  0.00    +0.214 C 
ATOM     33  H   UNL     1      13.947  12.946  27.001  0.00  0.00    +0.145 HD
ATOM     34  H   UNL     1      12.387  12.226  26.827  0.00  0.00    +0.145 HD
ENDBRANCH  19  26
ENDBRANCH  13   3
ENDBRANCH   9  13
BRANCH  11  18
ATOM     18  C   UNL     1      13.792   9.495  18.764  0.00  0.00    +0.105 C 
BRANCH  18  25
ATOM      1  O   UNL     1      15.838   8.546  19.696  0.00  0.00    -0.420 OA
ATOM      4  N   UNL     1      14.351   7.022  19.011  0.00  0.00    -0.112 NA
ATOM      6  N   UNL     1      15.450   6.351  19.512  0.00  0.00    -0.107 NA
ATOM     25  C   UNL     1      14.620   8.300  19.139  0.00  0.00    +0.218 A 
ATOM     27  C   UNL     1      16.292   7.279  19.900  0.00  0.00    +0.248 A 
BRANCH  27  28
ATOM      7  N   UNL     1      20.127   6.945  21.653  0.00  0.00    -0.263 NA
ATOM     28  C   UNL     1      17.593   7.166  20.495  0.00  0.00    +0.041 A 
ATOM     29  C   UNL     1      18.010   8.093  21.443  0.00  0.00    +0.033 A 
ATOM     30  C   UNL     1      18.442   6.129  20.124  0.00  0.00    +0.033 A 
ATOM     31  C   UNL     1      19.275   7.940  21.987  0.00  0.00    +0.111 A 
ATOM     32  C   UNL     1      19.686   6.062  20.728  0.00  0.00    +0.111 A 
ENDBRANCH  27  28
ENDBRANCH  18  25
ENDBRANCH  11  18
TORSDOF 7
ENDMDL
