MODEL 1
REMARK VINA RESULT:      -7.8      0.000      0.000
REMARK  Name = 51137545
REMARK  8 active torsions:
REMARK  status: ('A' for Active; 'I' for Inactive)
REMARK    1  A    between atoms: N_4  and  C_13
REMARK    2  A    between atoms: N_7  and  C_16
REMARK    3  A    between atoms: N_8  and  C_25
REMARK    4  A    between atoms: N_8  and  C_28
REMARK    5  A    between atoms: N_8  and  C_29
REMARK    6  A    between atoms: C_9  and  C_14
REMARK    7  A    between atoms: C_13  and  C_15
REMARK    8  A    between atoms: C_18  and  C_19
REMARK                            x       y       z     vdW  Elec       q    Type
REMARK                         _______ _______ _______ _____ _____    ______ ____
ROOT
ATOM      4  N   UNL     1      11.448  10.657  21.600  0.00  0.00    -0.297 NA
ATOM      9  C   UNL     1      11.898   9.234  19.791  0.00  0.00    +0.092 C 
ATOM     10  C   UNL     1      10.996   8.509  20.804  0.00  0.00    +0.029 C 
ATOM     11  C   UNL     1      12.457  10.438  20.561  0.00  0.00    +0.097 C 
ATOM     12  C   UNL     1      11.115   9.318  22.088  0.00  0.00    +0.085 C 
ENDROOT
BRANCH   9  14
ATOM      1  O   UNL     1      14.112   8.194  19.906  0.00  0.00    -0.420 OA
ATOM      5  N   UNL     1      12.998   7.762  18.015  0.00  0.00    -0.112 NA
ATOM      6  N   UNL     1      14.221   7.119  17.947  0.00  0.00    -0.107 NA
ATOM     14  C   UNL     1      12.979   8.376  19.175  0.00  0.00    +0.222 A 
ATOM     18  C   UNL     1      14.837   7.399  19.072  0.00  0.00    +0.248 A 
BRANCH  18  19
ATOM     19  C   UNL     1      16.130   7.005  19.548  0.00  0.00    +0.039 A 
ATOM     23  C   UNL     1      16.824   5.976  18.911  0.00  0.00    +0.015 A 
ATOM     24  C   UNL     1      16.695   7.650  20.648  0.00  0.00    +0.015 A 
ATOM     25  C   UNL     1      18.647   6.237  20.475  0.00  0.00    +0.029 A 
ATOM     26  C   UNL     1      18.082   5.591  19.375  0.00  0.00    +0.024 A 
ATOM     27  C   UNL     1      17.953   7.266  21.111  0.00  0.00    +0.024 A 
BRANCH  25   8
ATOM      8  N   UNL     1      19.919   5.848  20.944  0.00  0.00    -0.336 N 
ATOM     28  C   UNL     1      20.559   6.576  22.022  0.00  0.00    +0.129 C 
ATOM     29  C   UNL     1      20.600   4.711  20.358  0.00  0.00    +0.129 C 
ENDBRANCH  25   8
ENDBRANCH  18  19
ENDBRANCH   9  14
BRANCH   4  13
ATOM     13  C   UNL     1      11.926  11.531  22.662  0.00  0.00    +0.121 C 
BRANCH  13  15
ATOM     15  C   UNL     1      11.040  12.735  22.837  0.00  0.00    -0.003 A 
ATOM     16  C   UNL     1      10.715  13.218  24.105  0.00  0.00    +0.131 A 
ATOM     17  C   UNL     1      10.542  13.372  21.700  0.00  0.00    +0.007 A 
ATOM     20  C   UNL     1       9.892  14.337  24.236  0.00  0.00    +0.033 A 
ATOM     21  C   UNL     1       9.719  14.490  21.830  0.00  0.00    +0.000 A 
ATOM     22  C   UNL     1       9.394  14.972  23.097  0.00  0.00    +0.002 A 
BRANCH  16   7
ATOM      2  O   UNL     1      12.184  13.099  25.879  0.00  0.00    -0.126 OA
ATOM      3  O   UNL     1      10.659  11.533  25.679  0.00  0.00    -0.126 OA
ATOM      7  N   UNL     1      11.210  12.585  25.278  0.00  0.00    +0.057 N 
ENDBRANCH  16   7
ENDBRANCH  13  15
ENDBRANCH   4  13
TORSDOF 6
ENDMDL
MODEL 2
REMARK VINA RESULT:      -7.0      3.287      5.386
REMARK  Name = 51137545
REMARK  8 active torsions:
REMARK  status: ('A' for Active; 'I' for Inactive)
REMARK    1  A    between atoms: N_4  and  C_13
REMARK    2  A    between atoms: N_7  and  C_16
REMARK    3  A    between atoms: N_8  and  C_25
REMARK    4  A    between atoms: N_8  and  C_28
REMARK    5  A    between atoms: N_8  and  C_29
REMARK    6  A    between atoms: C_9  and  C_14
REMARK    7  A    between atoms: C_13  and  C_15
REMARK    8  A    between atoms: C_18  and  C_19
REMARK                            x       y       z     vdW  Elec       q    Type
REMARK                         _______ _______ _______ _____ _____    ______ ____
ROOT
ATOM      4  N   UNL     1      15.044   8.845  21.045  0.00  0.00    -0.297 NA
ATOM      9  C   UNL     1      17.001   7.574  21.280  0.00  0.00    +0.092 C 
ATOM     10  C   UNL     1      17.371   9.045  21.022  0.00  0.00    +0.029 C 
ATOM     11  C   UNL     1      15.522   7.470  20.884  0.00  0.00    +0.097 C 
ATOM     12  C   UNL     1      16.100   9.680  20.472  0.00  0.00    +0.085 C 
ENDROOT
BRANCH   9  14
ATOM      1  O   UNL     1      19.088   6.302  21.125  0.00  0.00    -0.420 OA
ATOM      5  N   UNL     1      17.641   5.885  19.471  0.00  0.00    -0.112 NA
ATOM      6  N   UNL     1      18.764   5.107  19.262  0.00  0.00    -0.107 NA
ATOM     14  C   UNL     1      17.874   6.566  20.569  0.00  0.00    +0.222 A 
ATOM     18  C   UNL     1      19.582   5.384  20.251  0.00  0.00    +0.248 A 
BRANCH  18  19
ATOM     19  C   UNL     1      20.890   4.876  20.547  0.00  0.00    +0.039 A 
ATOM     23  C   UNL     1      21.044   3.562  20.990  0.00  0.00    +0.015 A 
ATOM     24  C   UNL     1      22.008   5.696  20.390  0.00  0.00    +0.015 A 
ATOM     25  C   UNL     1      23.435   3.889  21.122  0.00  0.00    +0.029 A 
ATOM     26  C   UNL     1      22.317   3.069  21.278  0.00  0.00    +0.024 A 
ATOM     27  C   UNL     1      23.280   5.201  20.678  0.00  0.00    +0.024 A 
BRANCH  25   8
ATOM      8  N   UNL     1      24.721   3.389  21.413  0.00  0.00    -0.336 N 
ATOM     28  C   UNL     1      25.685   4.210  22.120  0.00  0.00    +0.129 C 
ATOM     29  C   UNL     1      25.094   2.046  21.017  0.00  0.00    +0.129 C 
ENDBRANCH  25   8
ENDBRANCH  18  19
ENDBRANCH   9  14
BRANCH   4  13
ATOM     13  C   UNL     1      13.756   9.063  20.404  0.00  0.00    +0.121 C 
BRANCH  13  15
ATOM     15  C   UNL     1      12.721   9.556  21.380  0.00  0.00    -0.003 A 
ATOM     16  C   UNL     1      11.419   9.055  21.371  0.00  0.00    +0.131 A 
ATOM     17  C   UNL     1      13.085  10.533  22.307  0.00  0.00    +0.007 A 
ATOM     20  C   UNL     1      10.481   9.532  22.288  0.00  0.00    +0.033 A 
ATOM     21  C   UNL     1      12.148  11.009  23.223  0.00  0.00    +0.000 A 
ATOM     22  C   UNL     1      10.847  10.509  23.214  0.00  0.00    +0.002 A 
BRANCH  16   7
ATOM      2  O   UNL     1      11.152   6.851  20.746  0.00  0.00    -0.126 OA
ATOM      3  O   UNL     1      10.559   8.418  19.328  0.00  0.00    -0.126 OA
ATOM      7  N   UNL     1      11.024   8.060  20.435  0.00  0.00    +0.057 N 
ENDBRANCH  16   7
ENDBRANCH  13  15
ENDBRANCH   4  13
TORSDOF 6
ENDMDL
MODEL 3
REMARK VINA RESULT:      -6.8     26.862     30.215
REMARK  Name = 51137545
REMARK  8 active torsions:
REMARK  status: ('A' for Active; 'I' for Inactive)
REMARK    1  A    between atoms: N_4  and  C_13
REMARK    2  A    between atoms: N_7  and  C_16
REMARK    3  A    between atoms: N_8  and  C_25
REMARK    4  A    between atoms: N_8  and  C_28
REMARK    5  A    between atoms: N_8  and  C_29
REMARK    6  A    between atoms: C_9  and  C_14
REMARK    7  A    between atoms: C_13  and  C_15
REMARK    8  A    between atoms: C_18  and  C_19
REMARK                            x       y       z     vdW  Elec       q    Type
REMARK                         _______ _______ _______ _____ _____    ______ ____
ROOT
ATOM      4  N   UNL     1      -2.273 -10.993  13.921  0.00  0.00    -0.297 NA
ATOM      9  C   UNL     1      -3.268 -10.337  15.941  0.00  0.00    +0.092 C 
ATOM     10  C   UNL     1      -1.790 -10.689  16.185  0.00  0.00    +0.029 C 
ATOM     11  C   UNL     1      -3.587 -10.936  14.565  0.00  0.00    +0.097 C 
ATOM     12  C   UNL     1      -1.367 -11.486  14.958  0.00  0.00    +0.085 C 
ENDROOT
BRANCH   9  14
ATOM      1  O   UNL     1      -5.495 -10.333  16.957  0.00  0.00    -0.420 OA
ATOM      5  N   UNL     1      -4.002 -11.601  18.037  0.00  0.00    -0.112 NA
ATOM      6  N   UNL     1      -5.206 -11.690  18.712  0.00  0.00    -0.107 NA
ATOM     14  C   UNL     1      -4.218 -10.800  17.020  0.00  0.00    +0.222 A 
ATOM     18  C   UNL     1      -6.048 -10.934  18.046  0.00  0.00    +0.248 A 
BRANCH  18  19
ATOM     19  C   UNL     1      -7.433 -10.650  18.285  0.00  0.00    +0.039 A 
ATOM     23  C   UNL     1      -8.104  -9.728  17.482  0.00  0.00    +0.015 A 
ATOM     24  C   UNL     1      -8.109 -11.297  19.320  0.00  0.00    +0.015 A 
ATOM     25  C   UNL     1     -10.127 -10.099  18.749  0.00  0.00    +0.029 A 
ATOM     26  C   UNL     1      -9.451  -9.452  17.714  0.00  0.00    +0.024 A 
ATOM     27  C   UNL     1      -9.455 -11.020  19.552  0.00  0.00    +0.024 A 
BRANCH  25   8
ATOM      8  N   UNL     1     -11.489  -9.818  18.985  0.00  0.00    -0.336 N 
ATOM     28  C   UNL     1     -12.331  -9.318  17.915  0.00  0.00    +0.129 C 
ATOM     29  C   UNL     1     -12.067 -10.034  20.296  0.00  0.00    +0.129 C 
ENDBRANCH  25   8
ENDBRANCH  18  19
ENDBRANCH   9  14
BRANCH   4  13
ATOM     13  C   UNL     1      -2.272 -11.839  12.736  0.00  0.00    +0.121 C 
BRANCH  13  15
ATOM     15  C   UNL     1      -2.882 -11.142  11.549  0.00  0.00    -0.003 A 
ATOM     16  C   UNL     1      -3.863 -11.758  10.772  0.00  0.00    +0.131 A 
ATOM     17  C   UNL     1      -2.448  -9.855  11.232  0.00  0.00    +0.007 A 
ATOM     20  C   UNL     1      -4.410 -11.087   9.678  0.00  0.00    +0.033 A 
ATOM     21  C   UNL     1      -2.994  -9.184  10.139  0.00  0.00    +0.000 A 
ATOM     22  C   UNL     1      -3.975  -9.799   9.362  0.00  0.00    +0.002 A 
BRANCH  16   7
ATOM      2  O   UNL     1      -3.741 -14.050  10.551  0.00  0.00    -0.126 OA
ATOM      3  O   UNL     1      -5.290 -13.208  11.858  0.00  0.00    -0.126 OA
ATOM      7  N   UNL     1      -4.321 -13.070  11.075  0.00  0.00    +0.057 N 
ENDBRANCH  16   7
ENDBRANCH  13  15
ENDBRANCH   4  13
TORSDOF 6
ENDMDL
MODEL 4
REMARK VINA RESULT:      -6.7     27.124     30.640
REMARK  Name = 51137545
REMARK  8 active torsions:
REMARK  status: ('A' for Active; 'I' for Inactive)
REMARK    1  A    between atoms: N_4  and  C_13
REMARK    2  A    between atoms: N_7  and  C_16
REMARK    3  A    between atoms: N_8  and  C_25
REMARK    4  A    between atoms: N_8  and  C_28
REMARK    5  A    between atoms: N_8  and  C_29
REMARK    6  A    between atoms: C_9  and  C_14
REMARK    7  A    between atoms: C_13  and  C_15
REMARK    8  A    between atoms: C_18  and  C_19
REMARK                            x       y       z     vdW  Elec       q    Type
REMARK                         _______ _______ _______ _____ _____    ______ ____
ROOT
ATOM      4  N   UNL     1      -4.582 -11.616  17.448  0.00  0.00    -0.297 NA
ATOM      9  C   UNL     1      -6.260 -10.606  18.738  0.00  0.00    +0.092 C 
ATOM     10  C   UNL     1      -5.654 -11.787  19.515  0.00  0.00    +0.029 C 
ATOM     11  C   UNL     1      -5.800 -10.817  17.290  0.00  0.00    +0.097 C 
ATOM     12  C   UNL     1      -4.915 -12.610  18.468  0.00  0.00    +0.085 C 
ENDROOT
BRANCH   9  14
ATOM      1  O   UNL     1      -8.373  -9.619  17.992  0.00  0.00    -0.420 OA
ATOM      5  N   UNL     1      -8.585 -11.041  19.706  0.00  0.00    -0.112 NA
ATOM      6  N   UNL     1      -9.844 -10.563  19.389  0.00  0.00    -0.107 NA
ATOM     14  C   UNL     1      -7.759 -10.464  18.865  0.00  0.00    +0.222 A 
ATOM     18  C   UNL     1      -9.671  -9.736  18.384  0.00  0.00    +0.248 A 
BRANCH  18  19
ATOM     19  C   UNL     1     -10.622  -8.954  17.649  0.00  0.00    +0.039 A 
ATOM     23  C   UNL     1     -11.934  -9.404  17.507  0.00  0.00    +0.015 A 
ATOM     24  C   UNL     1     -10.233  -7.742  17.077  0.00  0.00    +0.015 A 
ATOM     25  C   UNL     1     -12.470  -7.430  16.220  0.00  0.00    +0.029 A 
ATOM     26  C   UNL     1     -12.859  -8.642  16.792  0.00  0.00    +0.024 A 
ATOM     27  C   UNL     1     -11.158  -6.981  16.362  0.00  0.00    +0.024 A 
BRANCH  25   8
ATOM      8  N   UNL     1     -13.405  -6.661  15.496  0.00  0.00    -0.336 N 
ATOM     28  C   UNL     1     -12.956  -5.660  14.549  0.00  0.00    +0.129 C 
ATOM     29  C   UNL     1     -14.827  -6.866  15.686  0.00  0.00    +0.129 C 
ENDBRANCH  25   8
ENDBRANCH  18  19
ENDBRANCH   9  14
BRANCH   4  13
ATOM     13  C   UNL     1      -4.153 -12.226  16.198  0.00  0.00    +0.121 C 
BRANCH  13  15
ATOM     15  C   UNL     1      -3.128 -11.384  15.486  0.00  0.00    -0.003 A 
ATOM     16  C   UNL     1      -3.197 -11.169  14.109  0.00  0.00    +0.131 A 
ATOM     17  C   UNL     1      -2.096 -10.814  16.230  0.00  0.00    +0.007 A 
ATOM     20  C   UNL     1      -2.232 -10.383  13.477  0.00  0.00    +0.033 A 
ATOM     21  C   UNL     1      -1.132 -10.029  15.599  0.00  0.00    +0.000 A 
ATOM     22  C   UNL     1      -1.199  -9.814  14.222  0.00  0.00    +0.002 A 
BRANCH  16   7
ATOM      2  O   UNL     1      -4.064 -12.872  12.819  0.00  0.00    -0.126 OA
ATOM      3  O   UNL     1      -5.305 -11.097  13.176  0.00  0.00    -0.126 OA
ATOM      7  N   UNL     1      -4.240 -11.740  13.330  0.00  0.00    +0.057 N 
ENDBRANCH  16   7
ENDBRANCH  13  15
ENDBRANCH   4  13
TORSDOF 6
ENDMDL
MODEL 5
REMARK VINA RESULT:      -6.7      4.391      7.024
REMARK  Name = 51137545
REMARK  8 active torsions:
REMARK  status: ('A' for Active; 'I' for Inactive)
REMARK    1  A    between atoms: N_4  and  C_13
REMARK    2  A    between atoms: N_7  and  C_16
REMARK    3  A    between atoms: N_8  and  C_25
REMARK    4  A    between atoms: N_8  and  C_28
REMARK    5  A    between atoms: N_8  and  C_29
REMARK    6  A    between atoms: C_9  and  C_14
REMARK    7  A    between atoms: C_13  and  C_15
REMARK    8  A    between atoms: C_18  and  C_19
REMARK                            x       y       z     vdW  Elec       q    Type
REMARK                         _______ _______ _______ _____ _____    ______ ____
ROOT
ATOM      4  N   UNL     1      15.763   7.457  20.857  0.00  0.00    -0.297 NA
ATOM      9  C   UNL     1      17.915   7.647  21.771  0.00  0.00    +0.092 C 
ATOM     10  C   UNL     1      17.481   9.003  21.190  0.00  0.00    +0.029 C 
ATOM     11  C   UNL     1      16.934   6.634  21.164  0.00  0.00    +0.097 C 
ATOM     12  C   UNL     1      16.308   8.683  20.273  0.00  0.00    +0.085 C 
ENDROOT
BRANCH   9  14
ATOM      1  O   UNL     1      19.768   6.057  21.953  0.00  0.00    -0.420 OA
ATOM      5  N   UNL     1      20.313   7.985  20.957  0.00  0.00    -0.112 NA
ATOM      6  N   UNL     1      21.443   7.188  20.992  0.00  0.00    -0.107 NA
ATOM     14  C   UNL     1      19.361   7.285  21.528  0.00  0.00    +0.222 A 
ATOM     18  C   UNL     1      21.078   6.073  21.582  0.00  0.00    +0.248 A 
BRANCH  18  19
ATOM     19  C   UNL     1      21.831   4.893  21.890  0.00  0.00    +0.039 A 
ATOM     23  C   UNL     1      21.934   3.867  20.951  0.00  0.00    +0.015 A 
ATOM     24  C   UNL     1      22.462   4.772  23.129  0.00  0.00    +0.015 A 
ATOM     25  C   UNL     1      23.298   2.597  22.489  0.00  0.00    +0.029 A 
ATOM     26  C   UNL     1      22.667   2.718  21.251  0.00  0.00    +0.024 A 
ATOM     27  C   UNL     1      23.195   3.623  23.427  0.00  0.00    +0.024 A 
BRANCH  25   8
ATOM      8  N   UNL     1      24.039   1.436  22.792  0.00  0.00    -0.336 N 
ATOM     28  C   UNL     1      23.882   0.778  24.074  0.00  0.00    +0.129 C 
ATOM     29  C   UNL     1      24.961   0.880  21.822  0.00  0.00    +0.129 C 
ENDBRANCH  25   8
ENDBRANCH  18  19
ENDBRANCH   9  14
BRANCH   4  13
ATOM     13  C   UNL     1      14.831   6.785  19.964  0.00  0.00    +0.121 C 
BRANCH  13  15
ATOM     15  C   UNL     1      13.436   7.338  20.089  0.00  0.00    -0.003 A 
ATOM     16  C   UNL     1      12.830   8.022  19.035  0.00  0.00    +0.131 A 
ATOM     17  C   UNL     1      12.748   7.156  21.289  0.00  0.00    +0.007 A 
ATOM     20  C   UNL     1      11.537   8.523  19.181  0.00  0.00    +0.033 A 
ATOM     21  C   UNL     1      11.455   7.657  21.435  0.00  0.00    +0.000 A 
ATOM     22  C   UNL     1      10.849   8.341  20.381  0.00  0.00    +0.002 A 
BRANCH  16   7
ATOM      2  O   UNL     1      13.371   7.374  16.888  0.00  0.00    -0.126 OA
ATOM      3  O   UNL     1      14.234   9.236  17.666  0.00  0.00    -0.126 OA
ATOM      7  N   UNL     1      13.512   8.221  17.803  0.00  0.00    +0.057 N 
ENDBRANCH  16   7
ENDBRANCH  13  15
ENDBRANCH   4  13
TORSDOF 6
ENDMDL
MODEL 6
REMARK VINA RESULT:      -6.7      4.550     11.763
REMARK  Name = 51137545
REMARK  8 active torsions:
REMARK  status: ('A' for Active; 'I' for Inactive)
REMARK    1  A    between atoms: N_4  and  C_13
REMARK    2  A    between atoms: N_7  and  C_16
REMARK    3  A    between atoms: N_8  and  C_25
REMARK    4  A    between atoms: N_8  and  C_28
REMARK    5  A    between atoms: N_8  and  C_29
REMARK    6  A    between atoms: C_9  and  C_14
REMARK    7  A    between atoms: C_13  and  C_15
REMARK    8  A    between atoms: C_18  and  C_19
REMARK                            x       y       z     vdW  Elec       q    Type
REMARK                         _______ _______ _______ _____ _____    ______ ____
ROOT
ATOM      4  N   UNL     1      22.426   5.316  21.606  0.00  0.00    -0.297 NA
ATOM      9  C   UNL     1      20.586   6.480  20.732  0.00  0.00    +0.092 C 
ATOM     10  C   UNL     1      21.886   7.201  20.338  0.00  0.00    +0.029 C 
ATOM     11  C   UNL     1      20.999   5.526  21.861  0.00  0.00    +0.097 C 
ATOM     12  C   UNL     1      22.947   6.642  21.277  0.00  0.00    +0.085 C 
ENDROOT
BRANCH   9  14
ATOM      1  O   UNL     1      18.185   6.925  20.907  0.00  0.00    -0.420 OA
ATOM      5  N   UNL     1      19.478   8.596  21.641  0.00  0.00    -0.112 NA
ATOM      6  N   UNL     1      18.158   8.977  21.796  0.00  0.00    -0.107 NA
ATOM     14  C   UNL     1      19.446   7.392  21.119  0.00  0.00    +0.222 A 
ATOM     18  C   UNL     1      17.439   7.971  21.355  0.00  0.00    +0.248 A 
BRANCH  18  19
ATOM     19  C   UNL     1      16.017   7.808  21.274  0.00  0.00    +0.039 A 
ATOM     23  C   UNL     1      15.475   6.801  20.476  0.00  0.00    +0.015 A 
ATOM     24  C   UNL     1      15.176   8.657  21.994  0.00  0.00    +0.015 A 
ATOM     25  C   UNL     1      13.250   7.491  21.118  0.00  0.00    +0.029 A 
ATOM     26  C   UNL     1      14.091   6.643  20.397  0.00  0.00    +0.024 A 
ATOM     27  C   UNL     1      13.793   8.498  21.915  0.00  0.00    +0.024 A 
BRANCH  25   8
ATOM      8  N   UNL     1      11.851   7.331  21.037  0.00  0.00    -0.336 N 
ATOM     28  C   UNL     1      11.029   8.352  20.416  0.00  0.00    +0.129 C 
ATOM     29  C   UNL     1      11.217   6.141  21.569  0.00  0.00    +0.129 C 
ENDBRANCH  25   8
ENDBRANCH  18  19
ENDBRANCH   9  14
BRANCH   4  13
ATOM     13  C   UNL     1      23.110   4.717  22.742  0.00  0.00    +0.121 C 
BRANCH  13  15
ATOM     15  C   UNL     1      23.646   3.348  22.415  0.00  0.00    -0.003 A 
ATOM     16  C   UNL     1      23.705   2.343  23.380  0.00  0.00    +0.131 A 
ATOM     17  C   UNL     1      24.090   3.095  21.117  0.00  0.00    +0.007 A 
ATOM     20  C   UNL     1      24.207   1.084  23.048  0.00  0.00    +0.033 A 
ATOM     21  C   UNL     1      24.592   1.837  20.784  0.00  0.00    +0.000 A 
ATOM     22  C   UNL     1      24.651   0.832  21.749  0.00  0.00    +0.002 A 
BRANCH  16   7
ATOM      2  O   UNL     1      22.100   2.224  25.033  0.00  0.00    -0.126 OA
ATOM      3  O   UNL     1      24.038   3.131  25.522  0.00  0.00    -0.126 OA
ATOM      7  N   UNL     1      23.259   2.578  24.710  0.00  0.00    +0.057 N 
ENDBRANCH  16   7
ENDBRANCH  13  15
ENDBRANCH   4  13
TORSDOF 6
ENDMDL
MODEL 7
REMARK VINA RESULT:      -6.7      4.110     11.422
REMARK  Name = 51137545
REMARK  8 active torsions:
REMARK  status: ('A' for Active; 'I' for Inactive)
REMARK    1  A    between atoms: N_4  and  C_13
REMARK    2  A    between atoms: N_7  and  C_16
REMARK    3  A    between atoms: N_8  and  C_25
REMARK    4  A    between atoms: N_8  and  C_28
REMARK    5  A    between atoms: N_8  and  C_29
REMARK    6  A    between atoms: C_9  and  C_14
REMARK    7  A    between atoms: C_13  and  C_15
REMARK    8  A    between atoms: C_18  and  C_19
REMARK                            x       y       z     vdW  Elec       q    Type
REMARK                         _______ _______ _______ _____ _____    ______ ____
ROOT
ATOM      4  N   UNL     1      21.482   5.036  21.726  0.00  0.00    -0.297 NA
ATOM      9  C   UNL     1      19.893   6.206  20.458  0.00  0.00    +0.092 C 
ATOM     10  C   UNL     1      20.154   6.956  21.775  0.00  0.00    +0.029 C 
ATOM     11  C   UNL     1      20.475   4.804  20.687  0.00  0.00    +0.097 C 
ATOM     12  C   UNL     1      20.837   5.938  22.680  0.00  0.00    +0.085 C 
ENDROOT
BRANCH   9  14
ATOM      1  O   UNL     1      17.557   6.857  20.791  0.00  0.00    -0.420 OA
ATOM      5  N   UNL     1      17.901   5.589  18.981  0.00  0.00    -0.112 NA
ATOM      6  N   UNL     1      16.551   5.882  19.047  0.00  0.00    -0.107 NA
ATOM     14  C   UNL     1      18.448   6.179  20.018  0.00  0.00    +0.222 A 
ATOM     18  C   UNL     1      16.397   6.623  20.119  0.00  0.00    +0.248 A 
BRANCH  18  19
ATOM     19  C   UNL     1      15.216   7.214  20.679  0.00  0.00    +0.039 A 
ATOM     23  C   UNL     1      13.964   6.663  20.407  0.00  0.00    +0.015 A 
ATOM     24  C   UNL     1      15.321   8.339  21.497  0.00  0.00    +0.015 A 
ATOM     25  C   UNL     1      12.921   8.363  21.770  0.00  0.00    +0.029 A 
ATOM     26  C   UNL     1      12.816   7.238  20.952  0.00  0.00    +0.024 A 
ATOM     27  C   UNL     1      14.173   8.914  22.042  0.00  0.00    +0.024 A 
BRANCH  25   8
ATOM      8  N   UNL     1      11.760   8.945  22.321  0.00  0.00    -0.336 N 
ATOM     28  C   UNL     1      11.772  10.322  22.775  0.00  0.00    +0.129 C 
ATOM     29  C   UNL     1      10.537   8.175  22.433  0.00  0.00    +0.129 C 
ENDBRANCH  25   8
ENDBRANCH  18  19
ENDBRANCH   9  14
BRANCH   4  13
ATOM     13  C   UNL     1      21.930   3.799  22.350  0.00  0.00    +0.121 C 
BRANCH  13  15
ATOM     15  C   UNL     1      23.324   3.427  21.919  0.00  0.00    -0.003 A 
ATOM     16  C   UNL     1      24.444   4.031  22.490  0.00  0.00    +0.131 A 
ATOM     17  C   UNL     1      23.483   2.458  20.929  0.00  0.00    +0.007 A 
ATOM     20  C   UNL     1      25.723   3.665  22.070  0.00  0.00    +0.033 A 
ATOM     21  C   UNL     1      24.761   2.092  20.510  0.00  0.00    +0.000 A 
ATOM     22  C   UNL     1      25.882   2.696  21.079  0.00  0.00    +0.002 A 
BRANCH  16   7
ATOM      2  O   UNL     1      24.372   6.232  23.176  0.00  0.00    -0.126 OA
ATOM      3  O   UNL     1      24.123   4.658  24.686  0.00  0.00    -0.126 OA
ATOM      7  N   UNL     1      24.307   5.022  23.500  0.00  0.00    +0.057 N 
ENDBRANCH  16   7
ENDBRANCH  13  15
ENDBRANCH   4  13
TORSDOF 6
ENDMDL
MODEL 8
REMARK VINA RESULT:      -6.6     27.676     30.722
REMARK  Name = 51137545
REMARK  8 active torsions:
REMARK  status: ('A' for Active; 'I' for Inactive)
REMARK    1  A    between atoms: N_4  and  C_13
REMARK    2  A    between atoms: N_7  and  C_16
REMARK    3  A    between atoms: N_8  and  C_25
REMARK    4  A    between atoms: N_8  and  C_28
REMARK    5  A    between atoms: N_8  and  C_29
REMARK    6  A    between atoms: C_9  and  C_14
REMARK    7  A    between atoms: C_13  and  C_15
REMARK    8  A    between atoms: C_18  and  C_19
REMARK                            x       y       z     vdW  Elec       q    Type
REMARK                         _______ _______ _______ _____ _____    ______ ____
ROOT
ATOM      4  N   UNL     1      -4.343 -10.717  14.824  0.00  0.00    -0.297 NA
ATOM      9  C   UNL     1      -4.960 -10.203  17.028  0.00  0.00    +0.092 C 
ATOM     10  C   UNL     1      -3.674 -11.046  17.037  0.00  0.00    +0.029 C 
ATOM     11  C   UNL     1      -5.530 -10.379  15.613  0.00  0.00    +0.097 C 
ATOM     12  C   UNL     1      -3.602 -11.670  15.650  0.00  0.00    +0.085 C 
ENDROOT
BRANCH   9  14
ATOM      1  O   UNL     1      -7.263 -10.267  17.858  0.00  0.00    -0.420 OA
ATOM      5  N   UNL     1      -5.753 -11.093  19.288  0.00  0.00    -0.112 NA
ATOM      6  N   UNL     1      -7.000 -11.191  19.879  0.00  0.00    -0.107 NA
ATOM     14  C   UNL     1      -5.955 -10.549  18.111  0.00  0.00    +0.222 A 
ATOM     18  C   UNL     1      -7.849 -10.696  19.009  0.00  0.00    +0.248 A 
BRANCH  18  19
ATOM     19  C   UNL     1      -9.273 -10.543  19.082  0.00  0.00    +0.039 A 
ATOM     23  C   UNL     1      -9.925  -9.663  18.218  0.00  0.00    +0.015 A 
ATOM     24  C   UNL     1     -10.006 -11.274  20.017  0.00  0.00    +0.015 A 
ATOM     25  C   UNL     1     -12.043 -10.245  19.225  0.00  0.00    +0.029 A 
ATOM     26  C   UNL     1     -11.310  -9.513  18.290  0.00  0.00    +0.024 A 
ATOM     27  C   UNL     1     -11.391 -11.124  20.088  0.00  0.00    +0.024 A 
BRANCH  25   8
ATOM      8  N   UNL     1     -13.443 -10.093  19.297  0.00  0.00    -0.336 N 
ATOM     28  C   UNL     1     -14.284 -10.493  18.186  0.00  0.00    +0.129 C 
ATOM     29  C   UNL     1     -14.061  -9.541  20.487  0.00  0.00    +0.129 C 
ENDBRANCH  25   8
ENDBRANCH  18  19
ENDBRANCH   9  14
BRANCH   4  13
ATOM     13  C   UNL     1      -4.683 -11.262  13.518  0.00  0.00    +0.121 C 
BRANCH  13  15
ATOM     15  C   UNL     1      -3.989 -10.523  12.405  0.00  0.00    -0.003 A 
ATOM     16  C   UNL     1      -4.710  -9.788  11.463  0.00  0.00    +0.131 A 
ATOM     17  C   UNL     1      -2.598 -10.582  12.326  0.00  0.00    +0.007 A 
ATOM     20  C   UNL     1      -4.039  -9.113  10.442  0.00  0.00    +0.033 A 
ATOM     21  C   UNL     1      -1.928  -9.908  11.306  0.00  0.00    +0.000 A 
ATOM     22  C   UNL     1      -2.647  -9.174  10.364  0.00  0.00    +0.002 A 
BRANCH  16   7
ATOM      2  O   UNL     1      -6.808 -10.566  10.902  0.00  0.00    -0.126 OA
ATOM      3  O   UNL     1      -6.660  -8.797  12.194  0.00  0.00    -0.126 OA
ATOM      7  N   UNL     1      -6.129  -9.713  11.522  0.00  0.00    +0.057 N 
ENDBRANCH  16   7
ENDBRANCH  13  15
ENDBRANCH   4  13
TORSDOF 6
ENDMDL
MODEL 9
REMARK VINA RESULT:      -6.5     28.057     30.876
REMARK  Name = 51137545
REMARK  8 active torsions:
REMARK  status: ('A' for Active; 'I' for Inactive)
REMARK    1  A    between atoms: N_4  and  C_13
REMARK    2  A    between atoms: N_7  and  C_16
REMARK    3  A    between atoms: N_8  and  C_25
REMARK    4  A    between atoms: N_8  and  C_28
REMARK    5  A    between atoms: N_8  and  C_29
REMARK    6  A    between atoms: C_9  and  C_14
REMARK    7  A    between atoms: C_13  and  C_15
REMARK    8  A    between atoms: C_18  and  C_19
REMARK                            x       y       z     vdW  Elec       q    Type
REMARK                         _______ _______ _______ _____ _____    ______ ____
ROOT
ATOM      4  N   UNL     1      -4.853 -10.625  14.668  0.00  0.00    -0.297 NA
ATOM      9  C   UNL     1      -5.483 -10.029  16.847  0.00  0.00    +0.092 C 
ATOM     10  C   UNL     1      -4.182 -10.848  16.893  0.00  0.00    +0.029 C 
ATOM     11  C   UNL     1      -6.047 -10.274  15.441  0.00  0.00    +0.097 C 
ATOM     12  C   UNL     1      -4.097 -11.529  15.534  0.00  0.00    +0.085 C 
ENDROOT
BRANCH   9  14
ATOM      1  O   UNL     1      -7.773 -10.010  17.714  0.00  0.00    -0.420 OA
ATOM      5  N   UNL     1      -6.276 -10.911  19.111  0.00  0.00    -0.112 NA
ATOM      6  N   UNL     1      -7.516 -10.965  19.721  0.00  0.00    -0.107 NA
ATOM     14  C   UNL     1      -6.474 -10.347  17.943  0.00  0.00    +0.222 A 
ATOM     18  C   UNL     1      -8.358 -10.428  18.870  0.00  0.00    +0.248 A 
BRANCH  18  19
ATOM     19  C   UNL     1      -9.773 -10.219  18.968  0.00  0.00    +0.039 A 
ATOM     23  C   UNL     1     -10.475 -10.702  20.072  0.00  0.00    +0.015 A 
ATOM     24  C   UNL     1     -10.448  -9.531  17.958  0.00  0.00    +0.015 A 
ATOM     25  C   UNL     1     -12.526  -9.811  19.158  0.00  0.00    +0.029 A 
ATOM     26  C   UNL     1     -11.852 -10.498  20.167  0.00  0.00    +0.024 A 
ATOM     27  C   UNL     1     -11.824  -9.328  18.054  0.00  0.00    +0.024 A 
BRANCH  25   8
ATOM      8  N   UNL     1     -13.918  -9.606  19.254  0.00  0.00    -0.336 N 
ATOM     28  C   UNL     1     -14.580  -9.653  20.543  0.00  0.00    +0.129 C 
ATOM     29  C   UNL     1     -14.704  -9.337  18.067  0.00  0.00    +0.129 C 
ENDBRANCH  25   8
ENDBRANCH  18  19
ENDBRANCH   9  14
BRANCH   4  13
ATOM     13  C   UNL     1      -5.181 -11.230  13.385  0.00  0.00    +0.121 C 
BRANCH  13  15
ATOM     15  C   UNL     1      -4.669 -10.410  12.231  0.00  0.00    -0.003 A 
ATOM     16  C   UNL     1      -3.436 -10.682  11.639  0.00  0.00    +0.131 A 
ATOM     17  C   UNL     1      -5.455  -9.360  11.755  0.00  0.00    +0.007 A 
ATOM     20  C   UNL     1      -2.988  -9.904  10.571  0.00  0.00    +0.033 A 
ATOM     21  C   UNL     1      -5.007  -8.583  10.687  0.00  0.00    +0.000 A 
ATOM     22  C   UNL     1      -3.774  -8.854  10.095  0.00  0.00    +0.002 A 
BRANCH  16   7
ATOM      2  O   UNL     1      -2.832 -12.907  11.686  0.00  0.00    -0.126 OA
ATOM      3  O   UNL     1      -1.704 -11.492  12.929  0.00  0.00    -0.126 OA
ATOM      7  N   UNL     1      -2.617 -11.746  12.108  0.00  0.00    +0.057 N 
ENDBRANCH  16   7
ENDBRANCH  13  15
ENDBRANCH   4  13
TORSDOF 6
ENDMDL
MODEL 10
REMARK VINA RESULT:      -6.5     18.487     21.370
REMARK  Name = 51137545
REMARK  8 active torsions:
REMARK  status: ('A' for Active; 'I' for Inactive)
REMARK    1  A    between atoms: N_4  and  C_13
REMARK    2  A    between atoms: N_7  and  C_16
REMARK    3  A    between atoms: N_8  and  C_25
REMARK    4  A    between atoms: N_8  and  C_28
REMARK    5  A    between atoms: N_8  and  C_29
REMARK    6  A    between atoms: C_9  and  C_14
REMARK    7  A    between atoms: C_13  and  C_15
REMARK    8  A    between atoms: C_18  and  C_19
REMARK                            x       y       z     vdW  Elec       q    Type
REMARK                         _______ _______ _______ _____ _____    ______ ____
ROOT
ATOM      4  N   UNL     1      10.779   5.351   4.207  0.00  0.00    -0.297 NA
ATOM      9  C   UNL     1      12.060   4.475   2.449  0.00  0.00    +0.092 C 
ATOM     10  C   UNL     1      12.491   5.926   2.727  0.00  0.00    +0.029 C 
ATOM     11  C   UNL     1      10.709   4.328   3.161  0.00  0.00    +0.097 C 
ATOM     12  C   UNL     1      11.356   6.523   3.549  0.00  0.00    +0.085 C 
ENDROOT
BRANCH   9  14
ATOM      1  O   UNL     1      10.951   4.589   0.269  0.00  0.00    -0.420 OA
ATOM      5  N   UNL     1      12.819   3.357   0.280  0.00  0.00    -0.112 NA
ATOM      6  N   UNL     1      12.300   3.335  -1.002  0.00  0.00    -0.107 NA
ATOM     14  C   UNL     1      12.000   4.100   0.987  0.00  0.00    +0.222 A 
ATOM     18  C   UNL     1      11.211   4.067  -0.961  0.00  0.00    +0.248 A 
BRANCH  18  19
ATOM     19  C   UNL     1      10.271   4.395  -1.993  0.00  0.00    +0.039 A 
ATOM     23  C   UNL     1       9.399   5.471  -1.826  0.00  0.00    +0.015 A 
ATOM     24  C   UNL     1      10.229   3.638  -3.164  0.00  0.00    +0.015 A 
ATOM     25  C   UNL     1       8.443   5.033  -4.001  0.00  0.00    +0.029 A 
ATOM     26  C   UNL     1       8.485   5.790  -2.830  0.00  0.00    +0.024 A 
ATOM     27  C   UNL     1       9.314   3.958  -4.168  0.00  0.00    +0.024 A 
BRANCH  25   8
ATOM      8  N   UNL     1       7.518   5.356  -5.016  0.00  0.00    -0.336 N 
ATOM     28  C   UNL     1       6.194   5.840  -4.676  0.00  0.00    +0.129 C 
ATOM     29  C   UNL     1       7.881   5.216  -6.411  0.00  0.00    +0.129 C 
ENDBRANCH  25   8
ENDBRANCH  18  19
ENDBRANCH   9  14
BRANCH   4  13
ATOM     13  C   UNL     1       9.478   5.631   4.797  0.00  0.00    +0.121 C 
BRANCH  13  15
ATOM     15  C   UNL     1       9.502   5.499   6.296  0.00  0.00    -0.003 A 
ATOM     16  C   UNL     1       9.246   6.592   7.125  0.00  0.00    +0.131 A 
ATOM     17  C   UNL     1       9.787   4.253   6.855  0.00  0.00    +0.007 A 
ATOM     20  C   UNL     1       9.275   6.438   8.511  0.00  0.00    +0.033 A 
ATOM     21  C   UNL     1       9.817   4.099   8.240  0.00  0.00    +0.000 A 
ATOM     22  C   UNL     1       9.561   5.191   9.069  0.00  0.00    +0.002 A 
BRANCH  16   7
ATOM      2  O   UNL     1       7.754   8.212   6.441  0.00  0.00    -0.126 OA
ATOM      3  O   UNL     1       9.902   8.623   6.252  0.00  0.00    -0.126 OA
ATOM      7  N   UNL     1       8.953   7.872   6.579  0.00  0.00    +0.057 N 
ENDBRANCH  16   7
ENDBRANCH  13  15
ENDBRANCH   4  13
TORSDOF 6
ENDMDL
