MODEL 1
REMARK VINA RESULT:      -7.6      0.000      0.000
REMARK  Name = 11911977
REMARK  5 active torsions:
REMARK  status: ('A' for Active; 'I' for Inactive)
REMARK    1  A    between atoms: O_4  and  C_27
REMARK    2  A    between atoms: N_5  and  C_14
REMARK    3  A    between atoms: C_14  and  C_19
REMARK    4  A    between atoms: C_17  and  C_20
REMARK    5  A    between atoms: C_23  and  C_27
REMARK                            x       y       z     vdW  Elec       q    Type
REMARK                         _______ _______ _______ _____ _____    ______ ____
ROOT
ATOM      2  O   UNL     1      -6.197 -11.647  10.818  0.00  0.00    -0.267 OA
ATOM      5  N   UNL     1      -3.256 -11.217  14.856  0.00  0.00    -0.294 NA
ATOM      6  N   UNL     1      -4.086 -11.654  11.808  0.00  0.00    -0.311 N 
ATOM      7  C   UNL     1      -3.395 -13.371  13.581  0.00  0.00    +0.024 C 
ATOM      8  C   UNL     1      -1.803 -11.651  12.870  0.00  0.00    +0.050 C 
ATOM      9  C   UNL     1      -1.992 -13.158  13.027  0.00  0.00    +0.017 C 
ATOM     10  C   UNL     1      -3.543 -12.655  14.939  0.00  0.00    +0.090 C 
ATOM     11  C   UNL     1      -1.940 -10.967  14.248  0.00  0.00    +0.094 C 
ATOM     12  C   UNL     1      -4.415 -12.884  12.542  0.00  0.00    +0.130 C 
ATOM     13  C   UNL     1      -2.815 -11.082  11.892  0.00  0.00    +0.026 A 
ATOM     15  C   UNL     1      -2.500 -10.024  11.126  0.00  0.00    +0.022 A 
ATOM     16  C   UNL     1      -5.077 -11.149  10.943  0.00  0.00    +0.260 A 
ATOM     17  C   UNL     1      -4.706  -9.941  10.123  0.00  0.00    +0.053 A 
ATOM     18  C   UNL     1      -3.465  -9.446  10.235  0.00  0.00    +0.016 A 
ENDROOT
BRANCH  17  20
ATOM      1  S   UNL     1      -5.797  -9.828   7.597  0.00  0.00    -0.088 S 
ATOM     20  C   UNL     1      -5.680  -9.304   9.219  0.00  0.00    +0.026 A 
ATOM     22  C   UNL     1      -6.572  -8.288   9.489  0.00  0.00    +0.024 A 
ATOM     25  C   UNL     1      -7.371  -7.921   8.354  0.00  0.00    -0.010 A 
ATOM     26  C   UNL     1      -7.047  -8.696   7.236  0.00  0.00    +0.020 A 
ATOM     28  C   UNL     1      -8.384  -6.941   8.219  0.00  0.00    +0.009 A 
ATOM     29  C   UNL     1      -7.701  -8.518   6.002  0.00  0.00    +0.015 A 
ATOM     30  C   UNL     1      -9.035  -6.762   6.995  0.00  0.00    +0.001 A 
ATOM     31  C   UNL     1      -8.696  -7.543   5.900  0.00  0.00    +0.001 A 
ENDBRANCH  17  20
BRANCH   5  14
ATOM     14  C   UNL     1      -3.354 -10.586  16.170  0.00  0.00    +0.158 C 
BRANCH  14  19
ATOM      3  O   UNL     1      -5.171 -10.761  17.734  0.00  0.00    -0.461 OA
ATOM     19  C   UNL     1      -4.788 -10.304  16.529  0.00  0.00    +0.119 A 
ATOM     21  C   UNL     1      -5.780  -9.670  15.865  0.00  0.00    +0.046 A 
ATOM     23  C   UNL     1      -6.476 -10.404  17.854  0.00  0.00    +0.131 A 
ATOM     24  C   UNL     1      -6.899  -9.731  16.730  0.00  0.00    +0.047 A 
BRANCH  23  27
ATOM     27  C   UNL     1      -7.144 -10.792  19.104  0.00  0.00    +0.230 C 
BRANCH  27   4
ATOM      4  O   UNL     1      -6.599 -10.002  20.162  0.00  0.00    -0.387 OA
ATOM     32  H   UNL     1      -5.745 -10.401  20.400  0.00  0.00    +0.210 HD
ENDBRANCH  27   4
ENDBRANCH  23  27
ENDBRANCH  14  19
ENDBRANCH   5  14
TORSDOF 5
ENDMDL
MODEL 2
REMARK VINA RESULT:      -7.0     25.813     28.407
REMARK  Name = 11911977
REMARK  5 active torsions:
REMARK  status: ('A' for Active; 'I' for Inactive)
REMARK    1  A    between atoms: O_4  and  C_27
REMARK    2  A    between atoms: N_5  and  C_14
REMARK    3  A    between atoms: C_14  and  C_19
REMARK    4  A    between atoms: C_17  and  C_20
REMARK    5  A    between atoms: C_23  and  C_27
REMARK                            x       y       z     vdW  Elec       q    Type
REMARK                         _______ _______ _______ _____ _____    ______ ____
ROOT
ATOM      2  O   UNL     1      14.689   6.928   6.646  0.00  0.00    -0.267 OA
ATOM      5  N   UNL     1      11.112   5.278   3.543  0.00  0.00    -0.294 NA
ATOM      6  N   UNL     1      12.886   7.329   5.221  0.00  0.00    -0.311 N 
ATOM      7  C   UNL     1      10.529   6.438   5.688  0.00  0.00    +0.024 C 
ATOM      8  C   UNL     1      10.949   7.768   3.675  0.00  0.00    +0.050 C 
ATOM      9  C   UNL     1      10.071   7.672   4.920  0.00  0.00    +0.017 C 
ATOM     10  C   UNL     1      10.374   5.180   4.809  0.00  0.00    +0.090 C 
ATOM     11  C   UNL     1      10.758   6.503   2.809  0.00  0.00    +0.094 C 
ATOM     12  C   UNL     1      11.974   6.656   6.157  0.00  0.00    +0.130 C 
ATOM     13  C   UNL     1      12.408   7.934   4.057  0.00  0.00    +0.026 A 
ATOM     15  C   UNL     1      13.241   8.640   3.274  0.00  0.00    +0.022 A 
ATOM     16  C   UNL     1      14.238   7.420   5.610  0.00  0.00    +0.260 A 
ATOM     17  C   UNL     1      15.153   8.188   4.694  0.00  0.00    +0.053 A 
ATOM     18  C   UNL     1      14.633   8.761   3.599  0.00  0.00    +0.016 A 
ENDROOT
BRANCH  17  20
ATOM      1  S   UNL     1      17.733   7.958   3.756  0.00  0.00    -0.088 S 
ATOM     20  C   UNL     1      16.594   8.309   4.981  0.00  0.00    +0.026 A 
ATOM     22  C   UNL     1      17.212   8.686   6.154  0.00  0.00    +0.024 A 
ATOM     25  C   UNL     1      18.645   8.691   6.063  0.00  0.00    -0.010 A 
ATOM     26  C   UNL     1      19.071   8.308   4.787  0.00  0.00    +0.020 A 
ATOM     28  C   UNL     1      19.629   9.012   7.029  0.00  0.00    +0.009 A 
ATOM     29  C   UNL     1      20.438   8.238   4.457  0.00  0.00    +0.015 A 
ATOM     30  C   UNL     1      20.986   8.943   6.705  0.00  0.00    +0.001 A 
ATOM     31  C   UNL     1      21.384   8.561   5.432  0.00  0.00    +0.001 A 
ENDBRANCH  17  20
BRANCH   5  14
ATOM     14  C   UNL     1      10.897   4.092   2.717  0.00  0.00    +0.158 C 
BRANCH  14  19
ATOM      3  O   UNL     1      13.178   3.816   2.015  0.00  0.00    -0.461 OA
ATOM     19  C   UNL     1      11.912   4.013   1.610  0.00  0.00    +0.119 A 
ATOM     21  C   UNL     1      11.796   4.102   0.266  0.00  0.00    +0.046 A 
ATOM     23  C   UNL     1      13.917   3.776   0.876  0.00  0.00    +0.131 A 
ATOM     24  C   UNL     1      13.113   3.948  -0.228  0.00  0.00    +0.047 A 
BRANCH  23  27
ATOM     27  C   UNL     1      15.362   3.568   1.044  0.00  0.00    +0.230 C 
BRANCH  27   4
ATOM      4  O   UNL     1      15.601   3.198   2.403  0.00  0.00    -0.387 OA
ATOM     32  H   UNL     1      16.260   2.484   2.390  0.00  0.00    +0.210 HD
ENDBRANCH  27   4
ENDBRANCH  23  27
ENDBRANCH  14  19
ENDBRANCH   5  14
TORSDOF 5
ENDMDL
MODEL 3
REMARK VINA RESULT:      -6.9     19.720     22.255
REMARK  Name = 11911977
REMARK  5 active torsions:
REMARK  status: ('A' for Active; 'I' for Inactive)
REMARK    1  A    between atoms: O_4  and  C_27
REMARK    2  A    between atoms: N_5  and  C_14
REMARK    3  A    between atoms: C_14  and  C_19
REMARK    4  A    between atoms: C_17  and  C_20
REMARK    5  A    between atoms: C_23  and  C_27
REMARK                            x       y       z     vdW  Elec       q    Type
REMARK                         _______ _______ _______ _____ _____    ______ ____
ROOT
ATOM      2  O   UNL     1     -15.032   8.456  21.066  0.00  0.00    -0.267 OA
ATOM      5  N   UNL     1     -12.090   9.234  17.080  0.00  0.00    -0.294 NA
ATOM      6  N   UNL     1     -12.931   8.847  20.133  0.00  0.00    -0.311 N 
ATOM      7  C   UNL     1     -12.365  10.991  18.847  0.00  0.00    +0.024 C 
ATOM      8  C   UNL     1     -10.659   9.258  19.129  0.00  0.00    +0.050 C 
ATOM      9  C   UNL     1     -10.948  10.740  19.347  0.00  0.00    +0.017 C 
ATOM     10  C   UNL     1     -12.473  10.625  17.353  0.00  0.00    +0.090 C 
ATOM     11  C   UNL     1     -10.757   8.928  17.622  0.00  0.00    +0.094 C 
ATOM     12  C   UNL     1     -13.346  10.196  19.721  0.00  0.00    +0.130 C 
ATOM     13  C   UNL     1     -11.625   8.399  19.924  0.00  0.00    +0.026 A 
ATOM     15  C   UNL     1     -11.237   7.207  20.407  0.00  0.00    +0.022 A 
ATOM     16  C   UNL     1     -13.882   8.079  20.834  0.00  0.00    +0.260 A 
ATOM     17  C   UNL     1     -13.427   6.734  21.333  0.00  0.00    +0.053 A 
ATOM     18  C   UNL     1     -12.156   6.364  21.117  0.00  0.00    +0.016 A 
ENDROOT
BRANCH  17  20
ATOM      1  S   UNL     1     -15.868   5.457  21.346  0.00  0.00    -0.088 S 
ATOM     20  C   UNL     1     -14.352   5.830  22.041  0.00  0.00    +0.026 A 
ATOM     22  C   UNL     1     -14.179   5.193  23.251  0.00  0.00    +0.024 A 
ATOM     25  C   UNL     1     -15.302   4.382  23.629  0.00  0.00    -0.010 A 
ATOM     26  C   UNL     1     -16.312   4.436  22.662  0.00  0.00    +0.020 A 
ATOM     28  C   UNL     1     -15.517   3.583  24.778  0.00  0.00    +0.009 A 
ATOM     29  C   UNL     1     -17.515   3.719  22.813  0.00  0.00    +0.015 A 
ATOM     30  C   UNL     1     -16.710   2.870  24.930  0.00  0.00    +0.001 A 
ATOM     31  C   UNL     1     -17.696   2.939  23.957  0.00  0.00    +0.001 A 
ENDBRANCH  17  20
BRANCH   5  14
ATOM     14  C   UNL     1     -12.153   8.943  15.650  0.00  0.00    +0.158 C 
BRANCH  14  19
ATOM      3  O   UNL     1     -13.478   7.731  14.053  0.00  0.00    -0.461 OA
ATOM     19  C   UNL     1     -13.436   8.240  15.297  0.00  0.00    +0.119 A 
ATOM     21  C   UNL     1     -14.570   8.018  15.997  0.00  0.00    +0.046 A 
ATOM     23  C   UNL     1     -14.702   7.151  13.946  0.00  0.00    +0.131 A 
ATOM     24  C   UNL     1     -15.413   7.301  15.115  0.00  0.00    +0.047 A 
BRANCH  23  27
ATOM     27  C   UNL     1     -15.007   6.510  12.659  0.00  0.00    +0.230 C 
BRANCH  27   4
ATOM      4  O   UNL     1     -14.219   5.322  12.558  0.00  0.00    -0.387 OA
ATOM     32  H   UNL     1     -13.584   5.341  13.294  0.00  0.00    +0.210 HD
ENDBRANCH  27   4
ENDBRANCH  23  27
ENDBRANCH  14  19
ENDBRANCH   5  14
TORSDOF 5
ENDMDL
MODEL 4
REMARK VINA RESULT:      -6.7     23.797     25.820
REMARK  Name = 11911977
REMARK  5 active torsions:
REMARK  status: ('A' for Active; 'I' for Inactive)
REMARK    1  A    between atoms: O_4  and  C_27
REMARK    2  A    between atoms: N_5  and  C_14
REMARK    3  A    between atoms: C_14  and  C_19
REMARK    4  A    between atoms: C_17  and  C_20
REMARK    5  A    between atoms: C_23  and  C_27
REMARK                            x       y       z     vdW  Elec       q    Type
REMARK                         _______ _______ _______ _____ _____    ______ ____
ROOT
ATOM      2  O   UNL     1       9.657   7.286   1.744  0.00  0.00    -0.267 OA
ATOM      5  N   UNL     1      11.087   8.403   6.419  0.00  0.00    -0.294 NA
ATOM      6  N   UNL     1       9.570   6.909   4.044  0.00  0.00    -0.311 N 
ATOM      7  C   UNL     1       8.698   8.659   5.702  0.00  0.00    +0.024 C 
ATOM      8  C   UNL     1       9.483   6.490   6.525  0.00  0.00    +0.050 C 
ATOM      9  C   UNL     1       8.296   7.450   6.537  0.00  0.00    +0.017 C 
ATOM     10  C   UNL     1       9.951   9.327   6.304  0.00  0.00    +0.090 C 
ATOM     11  C   UNL     1      10.715   7.182   7.151  0.00  0.00    +0.094 C 
ATOM     12  C   UNL     1       8.911   8.206   4.250  0.00  0.00    +0.130 C 
ATOM     13  C   UNL     1       9.791   6.035   5.111  0.00  0.00    +0.026 A 
ATOM     15  C   UNL     1      10.292   4.809   4.884  0.00  0.00    +0.022 A 
ATOM     16  C   UNL     1       9.869   6.555   2.713  0.00  0.00    +0.260 A 
ATOM     17  C   UNL     1      10.460   5.187   2.495  0.00  0.00    +0.053 A 
ATOM     18  C   UNL     1      10.635   4.387   3.556  0.00  0.00    +0.016 A 
ENDROOT
BRANCH  17  20
ATOM      1  S   UNL     1      12.391   4.032   0.907  0.00  0.00    -0.088 S 
ATOM     20  C   UNL     1      10.851   4.731   1.149  0.00  0.00    +0.026 A 
ATOM     22  C   UNL     1      10.126   4.778  -0.022  0.00  0.00    +0.024 A 
ATOM     25  C   UNL     1      10.834   4.236  -1.148  0.00  0.00    -0.010 A 
ATOM     26  C   UNL     1      12.104   3.784  -0.776  0.00  0.00    +0.020 A 
ATOM     28  C   UNL     1      10.447   4.103  -2.503  0.00  0.00    +0.009 A 
ATOM     29  C   UNL     1      12.985   3.210  -1.712  0.00  0.00    +0.015 A 
ATOM     30  C   UNL     1      11.318   3.533  -3.435  0.00  0.00    +0.001 A 
ATOM     31  C   UNL     1      12.574   3.092  -3.042  0.00  0.00    +0.001 A 
ENDBRANCH  17  20
BRANCH   5  14
ATOM     14  C   UNL     1      12.235   9.058   7.043  0.00  0.00    +0.158 C 
BRANCH  14  19
ATOM      3  O   UNL     1      13.331   8.082   5.140  0.00  0.00    -0.461 OA
ATOM     19  C   UNL     1      13.500   8.773   6.281  0.00  0.00    +0.119 A 
ATOM     21  C   UNL     1      14.793   9.081   6.524  0.00  0.00    +0.046 A 
ATOM     23  C   UNL     1      14.578   7.937   4.620  0.00  0.00    +0.131 A 
ATOM     24  C   UNL     1      15.513   8.534   5.435  0.00  0.00    +0.047 A 
BRANCH  23  27
ATOM     27  C   UNL     1      14.673   7.203   3.350  0.00  0.00    +0.230 C 
BRANCH  27   4
ATOM      4  O   UNL     1      15.473   6.040   3.569  0.00  0.00    -0.387 OA
ATOM     32  H   UNL     1      16.083   6.250   4.296  0.00  0.00    +0.210 HD
ENDBRANCH  27   4
ENDBRANCH  23  27
ENDBRANCH  14  19
ENDBRANCH   5  14
TORSDOF 5
ENDMDL
MODEL 5
REMARK VINA RESULT:      -6.6      3.729      6.420
REMARK  Name = 11911977
REMARK  5 active torsions:
REMARK  status: ('A' for Active; 'I' for Inactive)
REMARK    1  A    between atoms: O_4  and  C_27
REMARK    2  A    between atoms: N_5  and  C_14
REMARK    3  A    between atoms: C_14  and  C_19
REMARK    4  A    between atoms: C_17  and  C_20
REMARK    5  A    between atoms: C_23  and  C_27
REMARK                            x       y       z     vdW  Elec       q    Type
REMARK                         _______ _______ _______ _____ _____    ______ ____
ROOT
ATOM      2  O   UNL     1      -7.636 -12.206  14.436  0.00  0.00    -0.267 OA
ATOM      5  N   UNL     1      -9.704 -10.822  18.789  0.00  0.00    -0.294 NA
ATOM      6  N   UNL     1      -7.520 -11.935  16.749  0.00  0.00    -0.311 N 
ATOM      7  C   UNL     1      -9.046 -13.205  18.370  0.00  0.00    +0.024 C 
ATOM      8  C   UNL     1      -7.385 -11.633  19.245  0.00  0.00    +0.050 C 
ATOM      9  C   UNL     1      -7.878 -13.074  19.339  0.00  0.00    +0.017 C 
ATOM     10  C   UNL     1     -10.166 -12.215  18.754  0.00  0.00    +0.090 C 
ATOM     11  C   UNL     1      -8.523 -10.670  19.653  0.00  0.00    +0.094 C 
ATOM     12  C   UNL     1      -8.530 -12.985  16.941  0.00  0.00    +0.130 C 
ATOM     13  C   UNL     1      -6.903 -11.320  17.841  0.00  0.00    +0.026 A 
ATOM     15  C   UNL     1      -5.903 -10.444  17.644  0.00  0.00    +0.022 A 
ATOM     16  C   UNL     1      -7.138 -11.659  15.421  0.00  0.00    +0.260 A 
ATOM     17  C   UNL     1      -6.039 -10.648  15.231  0.00  0.00    +0.053 A 
ATOM     18  C   UNL     1      -5.473 -10.103  16.318  0.00  0.00    +0.016 A 
ENDROOT
BRANCH  17  20
ATOM      1  S   UNL     1      -4.023 -10.679  13.354  0.00  0.00    -0.088 S 
ATOM     20  C   UNL     1      -5.591 -10.251  13.885  0.00  0.00    +0.026 A 
ATOM     22  C   UNL     1      -6.277  -9.547  12.919  0.00  0.00    +0.024 A 
ATOM     25  C   UNL     1      -5.517  -9.345  11.718  0.00  0.00    -0.010 A 
ATOM     26  C   UNL     1      -4.247  -9.922  11.821  0.00  0.00    +0.020 A 
ATOM     28  C   UNL     1      -5.855  -8.682  10.513  0.00  0.00    +0.009 A 
ATOM     29  C   UNL     1      -3.319  -9.853  10.764  0.00  0.00    +0.015 A 
ATOM     30  C   UNL     1      -4.936  -8.612   9.463  0.00  0.00    +0.001 A 
ATOM     31  C   UNL     1      -3.682  -9.192   9.589  0.00  0.00    +0.001 A 
ENDBRANCH  17  20
BRANCH   5  14
ATOM     14  C   UNL     1     -10.778  -9.924  19.209  0.00  0.00    +0.158 C 
BRANCH  14  19
ATOM      3  O   UNL     1     -10.554  -8.479  17.302  0.00  0.00    -0.461 OA
ATOM     19  C   UNL     1     -11.399  -9.234  18.025  0.00  0.00    +0.119 A 
ATOM     21  C   UNL     1     -12.661  -9.225  17.542  0.00  0.00    +0.046 A 
ATOM     23  C   UNL     1     -11.309  -7.957  16.300  0.00  0.00    +0.131 A 
ATOM     24  C   UNL     1     -12.613  -8.385  16.403  0.00  0.00    +0.047 A 
BRANCH  23  27
ATOM     27  C   UNL     1     -10.611  -7.078  15.351  0.00  0.00    +0.230 C 
BRANCH  27   4
ATOM      4  O   UNL     1     -10.457  -5.797  15.964  0.00  0.00    -0.387 OA
ATOM     32  H   UNL     1      -9.806  -5.902  16.678  0.00  0.00    +0.210 HD
ENDBRANCH  27   4
ENDBRANCH  23  27
ENDBRANCH  14  19
ENDBRANCH   5  14
TORSDOF 5
ENDMDL
MODEL 6
REMARK VINA RESULT:      -6.5     29.992     32.217
REMARK  Name = 11911977
REMARK  5 active torsions:
REMARK  status: ('A' for Active; 'I' for Inactive)
REMARK    1  A    between atoms: O_4  and  C_27
REMARK    2  A    between atoms: N_5  and  C_14
REMARK    3  A    between atoms: C_14  and  C_19
REMARK    4  A    between atoms: C_17  and  C_20
REMARK    5  A    between atoms: C_23  and  C_27
REMARK                            x       y       z     vdW  Elec       q    Type
REMARK                         _______ _______ _______ _____ _____    ______ ____
ROOT
ATOM      2  O   UNL     1      17.975   9.149  22.000  0.00  0.00    -0.267 OA
ATOM      5  N   UNL     1      22.706   8.278  20.586  0.00  0.00    -0.294 NA
ATOM      6  N   UNL     1      19.811   7.725  21.805  0.00  0.00    -0.311 N 
ATOM      7  C   UNL     1      22.036   8.165  22.999  0.00  0.00    +0.024 C 
ATOM      8  C   UNL     1      21.787   6.180  21.586  0.00  0.00    +0.050 C 
ATOM      9  C   UNL     1      22.172   6.647  22.987  0.00  0.00    +0.017 C 
ATOM     10  C   UNL     1      22.966   8.788  21.938  0.00  0.00    +0.090 C 
ATOM     11  C   UNL     1      22.747   6.807  20.550  0.00  0.00    +0.094 C 
ATOM     12  C   UNL     1      20.561   8.530  22.779  0.00  0.00    +0.130 C 
ATOM     13  C   UNL     1      20.350   6.552  21.271  0.00  0.00    +0.026 A 
ATOM     15  C   UNL     1      19.605   5.773  20.470  0.00  0.00    +0.022 A 
ATOM     16  C   UNL     1      18.494   8.140  21.521  0.00  0.00    +0.260 A 
ATOM     17  C   UNL     1      17.696   7.263  20.593  0.00  0.00    +0.053 A 
ATOM     18  C   UNL     1      18.261   6.141  20.125  0.00  0.00    +0.016 A 
ENDROOT
BRANCH  17  20
ATOM      1  S   UNL     1      15.033   6.561  20.544  0.00  0.00    -0.088 S 
ATOM     20  C   UNL     1      16.324   7.625  20.194  0.00  0.00    +0.026 A 
ATOM     22  C   UNL     1      15.884   8.758  19.543  0.00  0.00    +0.024 A 
ATOM     25  C   UNL     1      14.466   8.767  19.319  0.00  0.00    -0.010 A 
ATOM     26  C   UNL     1      13.867   7.608  19.825  0.00  0.00    +0.020 A 
ATOM     28  C   UNL     1      13.638   9.731  18.695  0.00  0.00    +0.009 A 
ATOM     29  C   UNL     1      12.480   7.392  19.723  0.00  0.00    +0.015 A 
ATOM     30  C   UNL     1      12.261   9.519  18.591  0.00  0.00    +0.001 A 
ATOM     31  C   UNL     1      11.690   8.362  19.101  0.00  0.00    +0.001 A 
ENDBRANCH  17  20
BRANCH   5  14
ATOM     14  C   UNL     1      23.641   8.850  19.620  0.00  0.00    +0.158 C 
BRANCH  14  19
ATOM      3  O   UNL     1      23.092   9.772  17.470  0.00  0.00    -0.461 OA
ATOM     19  C   UNL     1      22.981   9.926  18.800  0.00  0.00    +0.119 A 
ATOM     21  C   UNL     1      22.288  11.033  19.147  0.00  0.00    +0.046 A 
ATOM     23  C   UNL     1      22.437  10.833  16.930  0.00  0.00    +0.131 A 
ATOM     24  C   UNL     1      21.925  11.639  17.921  0.00  0.00    +0.047 A 
BRANCH  23  27
ATOM     27  C   UNL     1      22.410  10.904  15.463  0.00  0.00    +0.230 C 
BRANCH  27   4
ATOM      4  O   UNL     1      23.021   9.717  14.951  0.00  0.00    -0.387 OA
ATOM     32  H   UNL     1      22.728   8.983  15.517  0.00  0.00    +0.210 HD
ENDBRANCH  27   4
ENDBRANCH  23  27
ENDBRANCH  14  19
ENDBRANCH   5  14
TORSDOF 5
ENDMDL
MODEL 7
REMARK VINA RESULT:      -6.4     22.257     25.569
REMARK  Name = 11911977
REMARK  5 active torsions:
REMARK  status: ('A' for Active; 'I' for Inactive)
REMARK    1  A    between atoms: O_4  and  C_27
REMARK    2  A    between atoms: N_5  and  C_14
REMARK    3  A    between atoms: C_14  and  C_19
REMARK    4  A    between atoms: C_17  and  C_20
REMARK    5  A    between atoms: C_23  and  C_27
REMARK                            x       y       z     vdW  Elec       q    Type
REMARK                         _______ _______ _______ _____ _____    ______ ____
ROOT
ATOM      2  O   UNL     1       9.303  -9.600  33.129  0.00  0.00    -0.267 OA
ATOM      5  N   UNL     1       8.362  -5.873  36.350  0.00  0.00    -0.294 NA
ATOM      6  N   UNL     1       8.670  -7.398  33.566  0.00  0.00    -0.311 N 
ATOM      7  C   UNL     1      10.233  -5.706  34.690  0.00  0.00    +0.024 C 
ATOM      8  C   UNL     1       7.975  -5.024  34.033  0.00  0.00    +0.050 C 
ATOM      9  C   UNL     1       9.454  -4.674  33.884  0.00  0.00    +0.017 C 
ATOM     10  C   UNL     1       9.803  -5.657  36.171  0.00  0.00    +0.090 C 
ATOM     11  C   UNL     1       7.573  -4.948  35.523  0.00  0.00    +0.094 C 
ATOM     12  C   UNL     1      10.020  -7.089  34.059  0.00  0.00    +0.130 C 
ATOM     13  C   UNL     1       7.691  -6.406  33.476  0.00  0.00    +0.026 A 
ATOM     15  C   UNL     1       6.501  -6.684  32.917  0.00  0.00    +0.022 A 
ATOM     16  C   UNL     1       8.452  -8.709  33.097  0.00  0.00    +0.260 A 
ATOM     17  C   UNL     1       7.097  -8.998  32.508  0.00  0.00    +0.053 A 
ATOM     18  C   UNL     1       6.203  -8.002  32.434  0.00  0.00    +0.016 A 
ENDROOT
BRANCH  17  20
ATOM      1  S   UNL     1       6.156 -11.511  33.130  0.00  0.00    -0.088 S 
ATOM     20  C   UNL     1       6.746 -10.346  32.027  0.00  0.00    +0.026 A 
ATOM     22  C   UNL     1       6.821 -10.853  30.747  0.00  0.00    +0.024 A 
ATOM     25  C   UNL     1       6.390 -12.220  30.654  0.00  0.00    -0.010 A 
ATOM     26  C   UNL     1       5.994 -12.711  31.902  0.00  0.00    +0.020 A 
ATOM     28  C   UNL     1       6.316 -13.088  29.538  0.00  0.00    +0.009 A 
ATOM     29  C   UNL     1       5.531 -14.031  32.061  0.00  0.00    +0.015 A 
ATOM     30  C   UNL     1       5.857 -14.399  29.692  0.00  0.00    +0.001 A 
ATOM     31  C   UNL     1       5.468 -14.863  30.940  0.00  0.00    +0.001 A 
ENDBRANCH  17  20
BRANCH   5  14
ATOM     14  C   UNL     1       7.987  -5.766  37.758  0.00  0.00    +0.158 C 
BRANCH  14  19
ATOM      3  O   UNL     1       6.194  -7.342  37.486  0.00  0.00    -0.461 OA
ATOM     19  C   UNL     1       6.543  -6.135  37.963  0.00  0.00    +0.119 A 
ATOM     21  C   UNL     1       5.514  -5.478  38.542  0.00  0.00    +0.046 A 
ATOM     23  C   UNL     1       4.872  -7.471  37.772  0.00  0.00    +0.131 A 
ATOM     24  C   UNL     1       4.406  -6.350  38.421  0.00  0.00    +0.047 A 
BRANCH  23  27
ATOM     27  C   UNL     1       4.234  -8.725  37.347  0.00  0.00    +0.230 C 
BRANCH  27   4
ATOM      4  O   UNL     1       2.818  -8.555  37.437  0.00  0.00    -0.387 OA
ATOM     32  H   UNL     1       2.589  -7.797  36.873  0.00  0.00    +0.210 HD
ENDBRANCH  27   4
ENDBRANCH  23  27
ENDBRANCH  14  19
ENDBRANCH   5  14
TORSDOF 5
ENDMDL
MODEL 8
REMARK VINA RESULT:      -6.4      3.976      8.850
REMARK  Name = 11911977
REMARK  5 active torsions:
REMARK  status: ('A' for Active; 'I' for Inactive)
REMARK    1  A    between atoms: O_4  and  C_27
REMARK    2  A    between atoms: N_5  and  C_14
REMARK    3  A    between atoms: C_14  and  C_19
REMARK    4  A    between atoms: C_17  and  C_20
REMARK    5  A    between atoms: C_23  and  C_27
REMARK                            x       y       z     vdW  Elec       q    Type
REMARK                         _______ _______ _______ _____ _____    ______ ____
ROOT
ATOM      2  O   UNL     1      -7.976  -8.993  17.621  0.00  0.00    -0.267 OA
ATOM      5  N   UNL     1      -5.047 -11.784  14.660  0.00  0.00    -0.294 NA
ATOM      6  N   UNL     1      -6.408 -10.695  17.330  0.00  0.00    -0.311 N 
ATOM      7  C   UNL     1      -4.060 -10.268  16.395  0.00  0.00    +0.024 C 
ATOM      8  C   UNL     1      -4.725 -12.541  17.019  0.00  0.00    +0.050 C 
ATOM      9  C   UNL     1      -3.665 -11.467  17.248  0.00  0.00    +0.017 C 
ATOM     10  C   UNL     1      -4.121 -10.672  14.908  0.00  0.00    +0.090 C 
ATOM     11  C   UNL     1      -4.748 -12.936  15.525  0.00  0.00    +0.094 C 
ATOM     12  C   UNL     1      -5.396  -9.715  16.911  0.00  0.00    +0.130 C 
ATOM     13  C   UNL     1      -6.092 -12.049  17.459  0.00  0.00    +0.026 A 
ATOM     15  C   UNL     1      -6.999 -12.909  17.951  0.00  0.00    +0.022 A 
ATOM     16  C   UNL     1      -7.672 -10.185  17.690  0.00  0.00    +0.260 A 
ATOM     17  C   UNL     1      -8.679 -11.179  18.205  0.00  0.00    +0.053 A 
ATOM     18  C   UNL     1      -8.311 -12.463  18.322  0.00  0.00    +0.016 A 
ENDROOT
BRANCH  17  20
ATOM      1  S   UNL     1     -11.234 -10.605  17.352  0.00  0.00    -0.088 S 
ATOM     20  C   UNL     1     -10.045 -10.762  18.569  0.00  0.00    +0.026 A 
ATOM     22  C   UNL     1     -10.552 -10.460  19.815  0.00  0.00    +0.024 A 
ATOM     25  C   UNL     1     -11.939 -10.091  19.787  0.00  0.00    -0.010 A 
ATOM     26  C   UNL     1     -12.446 -10.129  18.483  0.00  0.00    +0.020 A 
ATOM     28  C   UNL     1     -12.815  -9.716  20.834  0.00  0.00    +0.009 A 
ATOM     29  C   UNL     1     -13.788  -9.806  18.205  0.00  0.00    +0.015 A 
ATOM     30  C   UNL     1     -14.147  -9.394  20.561  0.00  0.00    +0.001 A 
ATOM     31  C   UNL     1     -14.626  -9.440  19.260  0.00  0.00    +0.001 A 
ENDBRANCH  17  20
BRANCH   5  14
ATOM     14  C   UNL     1      -5.035 -12.172  13.251  0.00  0.00    +0.158 C 
BRANCH  14  19
ATOM      3  O   UNL     1      -4.315 -10.600  11.583  0.00  0.00    -0.461 OA
ATOM     19  C   UNL     1      -5.336 -10.995  12.363  0.00  0.00    +0.119 A 
ATOM     21  C   UNL     1      -6.449 -10.247  12.196  0.00  0.00    +0.046 A 
ATOM     23  C   UNL     1      -4.793  -9.543  10.876  0.00  0.00    +0.131 A 
ATOM     24  C   UNL     1      -6.102  -9.286  11.217  0.00  0.00    +0.047 A 
BRANCH  23  27
ATOM     27  C   UNL     1      -3.858  -8.915   9.932  0.00  0.00    +0.230 C 
BRANCH  27   4
ATOM      4  O   UNL     1      -2.529  -9.228  10.350  0.00  0.00    -0.387 OA
ATOM     32  H   UNL     1      -2.426 -10.191  10.267  0.00  0.00    +0.210 HD
ENDBRANCH  27   4
ENDBRANCH  23  27
ENDBRANCH  14  19
ENDBRANCH   5  14
TORSDOF 5
ENDMDL
MODEL 9
REMARK VINA RESULT:      -6.3      2.948      7.513
REMARK  Name = 11911977
REMARK  5 active torsions:
REMARK  status: ('A' for Active; 'I' for Inactive)
REMARK    1  A    between atoms: O_4  and  C_27
REMARK    2  A    between atoms: N_5  and  C_14
REMARK    3  A    between atoms: C_14  and  C_19
REMARK    4  A    between atoms: C_17  and  C_20
REMARK    5  A    between atoms: C_23  and  C_27
REMARK                            x       y       z     vdW  Elec       q    Type
REMARK                         _______ _______ _______ _____ _____    ______ ____
ROOT
ATOM      2  O   UNL     1      -4.891  -9.910  16.477  0.00  0.00    -0.267 OA
ATOM      5  N   UNL     1      -3.118 -11.417  12.036  0.00  0.00    -0.294 NA
ATOM      6  N   UNL     1      -3.912 -11.536  15.123  0.00  0.00    -0.311 N 
ATOM      7  C   UNL     1      -1.613 -11.227  14.032  0.00  0.00    +0.024 C 
ATOM      8  C   UNL     1      -2.865 -13.298  13.661  0.00  0.00    +0.050 C 
ATOM      9  C   UNL     1      -1.525 -12.744  14.136  0.00  0.00    +0.017 C 
ATOM     10  C   UNL     1      -1.893 -10.811  12.573  0.00  0.00    +0.090 C 
ATOM     11  C   UNL     1      -3.107 -12.880  12.193  0.00  0.00    +0.094 C 
ATOM     12  C   UNL     1      -2.690 -10.727  15.005  0.00  0.00    +0.130 C 
ATOM     13  C   UNL     1      -3.994 -12.805  14.547  0.00  0.00    +0.026 A 
ATOM     15  C   UNL     1      -5.076 -13.573  14.761  0.00  0.00    +0.022 A 
ATOM     16  C   UNL     1      -4.943 -11.011  15.926  0.00  0.00    +0.260 A 
ATOM     17  C   UNL     1      -6.157 -11.880  16.120  0.00  0.00    +0.053 A 
ATOM     18  C   UNL     1      -6.172 -13.096  15.555  0.00  0.00    +0.016 A 
ENDROOT
BRANCH  17  20
ATOM      1  S   UNL     1      -7.519 -11.954  18.513  0.00  0.00    -0.088 S 
ATOM     20  C   UNL     1      -7.313 -11.413  16.905  0.00  0.00    +0.026 A 
ATOM     22  C   UNL     1      -8.322 -10.551  16.528  0.00  0.00    +0.024 A 
ATOM     25  C   UNL     1      -9.288 -10.322  17.565  0.00  0.00    -0.010 A 
ATOM     26  C   UNL     1      -8.966 -11.039  18.722  0.00  0.00    +0.020 A 
ATOM     28  C   UNL     1     -10.453  -9.519  17.578  0.00  0.00    +0.009 A 
ATOM     29  C   UNL     1      -9.769 -10.972  19.877  0.00  0.00    +0.015 A 
ATOM     30  C   UNL     1     -11.253  -9.451  18.722  0.00  0.00    +0.001 A 
ATOM     31  C   UNL     1     -10.912 -10.170  19.858  0.00  0.00    +0.001 A 
ENDBRANCH  17  20
BRANCH   5  14
ATOM     14  C   UNL     1      -3.319 -11.043  10.638  0.00  0.00    +0.158 C 
BRANCH  14  19
ATOM      3  O   UNL     1      -5.403 -10.162  11.447  0.00  0.00    -0.461 OA
ATOM     19  C   UNL     1      -4.457 -10.069  10.497  0.00  0.00    +0.119 A 
ATOM     21  C   UNL     1      -4.717  -9.105   9.586  0.00  0.00    +0.046 A 
ATOM     23  C   UNL     1      -6.320  -9.209  11.134  0.00  0.00    +0.131 A 
ATOM     24  C   UNL     1      -5.944  -8.532   9.997  0.00  0.00    +0.047 A 
BRANCH  23  27
ATOM     27  C   UNL     1      -7.477  -9.101  12.033  0.00  0.00    +0.230 C 
BRANCH  27   4
ATOM      4  O   UNL     1      -7.005  -9.199  13.378  0.00  0.00    -0.387 OA
ATOM     32  H   UNL     1      -6.209  -9.756  13.357  0.00  0.00    +0.210 HD
ENDBRANCH  27   4
ENDBRANCH  23  27
ENDBRANCH  14  19
ENDBRANCH   5  14
TORSDOF 5
ENDMDL
MODEL 10
REMARK VINA RESULT:      -6.2     20.773     23.612
REMARK  Name = 11911977
REMARK  5 active torsions:
REMARK  status: ('A' for Active; 'I' for Inactive)
REMARK    1  A    between atoms: O_4  and  C_27
REMARK    2  A    between atoms: N_5  and  C_14
REMARK    3  A    between atoms: C_14  and  C_19
REMARK    4  A    between atoms: C_17  and  C_20
REMARK    5  A    between atoms: C_23  and  C_27
REMARK                            x       y       z     vdW  Elec       q    Type
REMARK                         _______ _______ _______ _____ _____    ______ ____
ROOT
ATOM      2  O   UNL     1       8.583 -12.452  32.060  0.00  0.00    -0.267 OA
ATOM      5  N   UNL     1       6.971  -8.656  34.912  0.00  0.00    -0.294 NA
ATOM      6  N   UNL     1       8.318 -10.168  32.447  0.00  0.00    -0.311 N 
ATOM      7  C   UNL     1       9.411  -8.964  34.428  0.00  0.00    +0.024 C 
ATOM      8  C   UNL     1       8.023  -7.701  32.856  0.00  0.00    +0.050 C 
ATOM      9  C   UNL     1       9.403  -7.752  33.505  0.00  0.00    +0.017 C 
ATOM     10  C   UNL     1       8.307  -8.825  35.496  0.00  0.00    +0.090 C 
ATOM     11  C   UNL     1       6.942  -7.544  33.949  0.00  0.00    +0.094 C 
ATOM     12  C   UNL     1       9.254 -10.233  33.579  0.00  0.00    +0.130 C 
ATOM     13  C   UNL     1       7.768  -8.952  32.035  0.00  0.00    +0.026 A 
ATOM     15  C   UNL     1       7.005  -8.898  30.931  0.00  0.00    +0.022 A 
ATOM     16  C   UNL     1       8.089 -11.368  31.745  0.00  0.00    +0.260 A 
ATOM     17  C   UNL     1       7.201 -11.282  30.532  0.00  0.00    +0.053 A 
ATOM     18  C   UNL     1       6.716 -10.083  30.176  0.00  0.00    +0.016 A 
ENDROOT
BRANCH  17  20
ATOM      1  S   UNL     1       7.898 -12.997  28.493  0.00  0.00    -0.088 S 
ATOM     20  C   UNL     1       6.860 -12.483  29.749  0.00  0.00    +0.026 A 
ATOM     22  C   UNL     1       5.768 -13.314  29.876  0.00  0.00    +0.024 A 
ATOM     25  C   UNL     1       5.768 -14.396  28.932  0.00  0.00    -0.010 A 
ATOM     26  C   UNL     1       6.893 -14.343  28.102  0.00  0.00    +0.020 A 
ATOM     28  C   UNL     1       4.841 -15.448  28.735  0.00  0.00    +0.009 A 
ATOM     29  C   UNL     1       7.112 -15.302  27.096  0.00  0.00    +0.015 A 
ATOM     30  C   UNL     1       5.055 -16.402  27.737  0.00  0.00    +0.001 A 
ATOM     31  C   UNL     1       6.179 -16.328  26.927  0.00  0.00    +0.001 A 
ENDBRANCH  17  20
BRANCH   5  14
ATOM     14  C   UNL     1       5.962  -8.473  35.953  0.00  0.00    +0.158 C 
BRANCH  14  19
ATOM      3  O   UNL     1       3.682  -9.202  36.156  0.00  0.00    -0.461 OA
ATOM     19  C   UNL     1       4.949  -9.586  35.926  0.00  0.00    +0.119 A 
ATOM     21  C   UNL     1       5.069 -10.915  35.713  0.00  0.00    +0.046 A 
ATOM     23  C   UNL     1       2.945 -10.342  36.087  0.00  0.00    +0.131 A 
ATOM     24  C   UNL     1       3.752 -11.424  35.818  0.00  0.00    +0.047 A 
BRANCH  23  27
ATOM     27  C   UNL     1       1.499 -10.197  36.306  0.00  0.00    +0.230 C 
BRANCH  27   4
ATOM      4  O   UNL     1       1.201  -8.801  36.387  0.00  0.00    -0.387 OA
ATOM     32  H   UNL     1       0.825  -8.543  35.529  0.00  0.00    +0.210 HD
ENDBRANCH  27   4
ENDBRANCH  23  27
ENDBRANCH  14  19
ENDBRANCH   5  14
TORSDOF 5
ENDMDL
