REMARK  Name = 38027224
REMARK  15 active torsions:
REMARK  status: ('A' for Active; 'I' for Inactive)
REMARK    1  A    between atoms: N_3  and  C_12
REMARK    2  A    between atoms: N_4  and  C_20
REMARK    3  A    between atoms: N_4  and  C_24
REMARK    4  A    between atoms: C_5  and  C_9
REMARK    5  A    between atoms: C_6  and  C_12
REMARK    6  A    between atoms: C_8  and  C_13
REMARK    7  A    between atoms: C_9  and  C_14
REMARK    8  A    between atoms: C_9  and  C_15
REMARK    9  A    between atoms: C_10  and  C_16
REMARK   10  A    between atoms: C_13  and  C_17
REMARK   11  A    between atoms: C_18  and  C_19
REMARK   12  A    between atoms: C_19  and  C_21
REMARK   13  A    between atoms: C_19  and  C_22
REMARK   14  A    between atoms: C_19  and  C_23
REMARK   15  A    between atoms: C_20  and  C_25
REMARK                            x       y       z     vdW  Elec       q    Type
REMARK                         _______ _______ _______ _____ _____    ______ ____
ROOT
ATOM      5  C   UNL     1       1.690  -1.188   1.201  0.00  0.00    +0.000 C 
ATOM      6  C   UNL     1       3.128  -1.470   0.697  0.00  0.00    +0.032 C 
ATOM      7  C   UNL     1       0.720  -2.259   0.681  0.00  0.00    +0.012 C 
ATOM      8  C   UNL     1       0.694  -2.324  -0.858  0.00  0.00    +0.023 C 
ATOM     10  C   UNL     1       2.091  -2.334  -1.445  0.00  0.00    -0.073 C 
ATOM     11  C   UNL     1       3.168  -1.962  -0.731  0.00  0.00    -0.022 C 
ATOM     16  C   UNL     1       2.227  -2.827  -2.859  0.00  0.00    +0.039 C 
ENDROOT
BRANCH   5   9
ATOM      9  C   UNL     1       1.625  -1.127   2.730  0.00  0.00    -0.013 C 
ATOM     14  C   UNL     1       0.430  -0.292   3.179  0.00  0.00    +0.007 C 
ATOM     15  C   UNL     1       1.554  -2.533   3.316  0.00  0.00    +0.007 C 
ENDBRANCH   5   9
BRANCH   6  12
ATOM     12  C   UNL     1       4.016  -0.227   0.834  0.00  0.00    +0.112 C 
BRANCH  12   3
ATOM      2  O   UNL     1       3.150   2.368   1.632  0.00  0.00    -0.275 OA
ATOM      3  N   UNL     1       3.563   0.817  -0.031  0.00  0.00    -0.314 N 
ATOM     18  C   UNL     1       3.154   2.066   0.438  0.00  0.00    +0.218 C 
ATOM     31  H   UNL     1       3.596   0.653  -1.032  0.00  0.00    +0.149 HD
BRANCH  18  19
ATOM     19  C   UNL     1       2.706   3.053  -0.661  0.00  0.00    +0.039 C 
ATOM     21  C   UNL     1       1.517   2.470  -1.440  0.00  0.00    +0.020 C 
ATOM     22  C   UNL     1       2.264   4.376  -0.010  0.00  0.00    +0.020 C 
ATOM     23  C   UNL     1       3.873   3.343  -1.616  0.00  0.00    +0.020 C 
ENDBRANCH  18  19
ENDBRANCH  12   3
ENDBRANCH   6  12
BRANCH   8  13
ATOM     13  C   UNL     1      -0.140  -1.180  -1.445  0.00  0.00    +0.103 C 
BRANCH  13  17
ATOM      1  O   UNL     1      -2.055  -2.411  -0.694  0.00  0.00    -0.276 OA
ATOM      4  N   UNL     1      -2.461  -0.399  -1.773  0.00  0.00    -0.300 N 
ATOM     17  C   UNL     1      -1.630  -1.402  -1.262  0.00  0.00    +0.216 C 
ATOM     24  C   UNL     1      -1.936   0.786  -2.441  0.00  0.00    +0.132 C 
BRANCH   4  20
ATOM     20  C   UNL     1      -3.917  -0.464  -1.677  0.00  0.00    +0.142 C 
BRANCH  20  25
ATOM     25  C   UNL     1      -4.430   0.219  -0.442  0.00  0.00    -0.030 A 
ATOM     26  C   UNL     1      -4.581  -0.502   0.742  0.00  0.00    +0.005 A 
ATOM     27  C   UNL     1      -4.754   1.575  -0.478  0.00  0.00    +0.005 A 
ATOM     28  C   UNL     1      -5.057   0.132   1.890  0.00  0.00    +0.000 A 
ATOM     29  C   UNL     1      -5.230   2.210   0.669  0.00  0.00    +0.000 A 
ATOM     30  C   UNL     1      -5.381   1.488   1.853  0.00  0.00    +0.000 A 
ENDBRANCH  20  25
ENDBRANCH   4  20
ENDBRANCH  13  17
ENDBRANCH   8  13
TORSDOF 8
