REMARK  Name = 26743498
REMARK  8 active torsions:
REMARK  status: ('A' for Active; 'I' for Inactive)
REMARK    1  A    between atoms: O_1  and  C_11
REMARK    2  A    between atoms: N_3  and  C_13
REMARK    3  A    between atoms: N_6  and  C_21
REMARK    4  A    between atoms: N_6  and  C_23
REMARK    5  A    between atoms: N_6  and  C_24
REMARK    6  A    between atoms: C_9  and  C_14
REMARK    7  A    between atoms: C_13  and  C_15
REMARK    8  A    between atoms: C_18  and  C_22
REMARK                            x       y       z     vdW  Elec       q    Type
REMARK                         _______ _______ _______ _____ _____    ______ ____
ROOT
ATOM      3  N   UNL     1       2.955   0.669   0.457  0.00  0.00    -0.285 NA
ATOM      9  C   UNL     1       2.870  -0.286  -0.666  0.00  0.00    +0.149 C 
ATOM     10  C   UNL     1       3.954  -1.339  -0.370  0.00  0.00    +0.061 C 
ATOM     11  C   UNL     1       4.624  -0.866   0.914  0.00  0.00    +0.130 C 
ATOM     12  C   UNL     1       4.335   0.623   0.936  0.00  0.00    +0.116 C 
ENDROOT
BRANCH   9  14
ATOM      2  O   UNL     1       1.135  -1.293  -2.062  0.00  0.00    -0.336 OA
ATOM      4  N   UNL     1       0.569  -1.089   0.095  0.00  0.00    -0.189 NA
ATOM      5  N   UNL     1      -0.162  -1.809  -1.950  0.00  0.00    -0.054 NA
ATOM     14  C   UNL     1       1.490  -0.891  -0.814  0.00  0.00    +0.245 A 
ATOM     18  C   UNL     1      -0.426  -1.654  -0.649  0.00  0.00    +0.222 A 
BRANCH  18  22
ATOM      7  N   UNL     1      -2.583  -2.601  -0.889  0.00  0.00    -0.249 NA
ATOM      8  N   UNL     1      -3.083  -2.254   1.849  0.00  0.00    -0.260 NA
ATOM     22  C   UNL     1      -1.671  -2.054  -0.061  0.00  0.00    +0.129 A 
ATOM     25  C   UNL     1      -1.917  -1.884   1.284  0.00  0.00    +0.142 A 
ATOM     26  C   UNL     1      -3.750  -2.971  -0.324  0.00  0.00    +0.131 A 
ATOM     27  C   UNL     1      -3.995  -2.801   1.021  0.00  0.00    +0.130 A 
ENDBRANCH  18  22
ENDBRANCH   9  14
BRANCH  11   1
ATOM      1  O   UNL     1       6.013  -1.131   0.882  0.00  0.00    -0.390 OA
ATOM     28  H   UNL     1       6.124  -2.093   0.792  0.00  0.00    +0.210 HD
ENDBRANCH  11   1
BRANCH   3  13
ATOM     13  C   UNL     1       2.546   2.020   0.094  0.00  0.00    +0.120 C 
BRANCH  13  15
ATOM     15  C   UNL     1       1.047   2.164   0.069  0.00  0.00    -0.033 A 
ATOM     16  C   UNL     1       0.404   2.564  -1.102  0.00  0.00    +0.007 A 
ATOM     17  C   UNL     1       0.302   1.897   1.218  0.00  0.00    +0.007 A 
ATOM     19  C   UNL     1      -0.984   2.697  -1.125  0.00  0.00    +0.023 A 
ATOM     20  C   UNL     1      -1.086   2.030   1.195  0.00  0.00    +0.023 A 
ATOM     21  C   UNL     1      -1.729   2.430   0.024  0.00  0.00    +0.029 A 
BRANCH  21   6
ATOM      6  N   UNL     1      -3.133   2.565   0.000  0.00  0.00    -0.336 N 
ATOM     23  C   UNL     1      -3.810   2.981  -1.212  0.00  0.00    +0.129 C 
ATOM     24  C   UNL     1      -3.917   2.283   1.186  0.00  0.00    +0.129 C 
ENDBRANCH  21   6
ENDBRANCH  13  15
ENDBRANCH   3  13
TORSDOF 6
