MODEL 1
REMARK VINA RESULT:      -7.4      0.000      0.000
REMARK  Name = 56774062
REMARK  8 active torsions:
REMARK  status: ('A' for Active; 'I' for Inactive)
REMARK    1  A    between atoms: N_3  and  C_8
REMARK    2  A    between atoms: N_3  and  C_14
REMARK    3  A    between atoms: C_6  and  C_11
REMARK    4  A    between atoms: C_6  and  C_12
REMARK    5  A    between atoms: C_7  and  C_10
REMARK    6  A    between atoms: C_10  and  C_13
REMARK    7  A    between atoms: C_14  and  C_16
REMARK    8  A    between atoms: C_17  and  C_20
REMARK                            x       y       z     vdW  Elec       q    Type
REMARK                         _______ _______ _______ _____ _____    ______ ____
ROOT
ATOM      6  C   UNL     1      15.413   7.876  21.005  0.00  0.00    -0.016 C 
ATOM      7  C   UNL     1      16.711   7.047  21.090  0.00  0.00    +0.004 C 
ATOM      8  C   UNL     1      14.863   6.778  20.071  0.00  0.00    +0.060 C 
ATOM      9  C   UNL     1      16.329   6.450  19.719  0.00  0.00    +0.023 C 
ATOM     11  C   UNL     1      14.725   8.072  22.339  0.00  0.00    +0.013 C 
ATOM     12  C   UNL     1      15.537   9.215  20.297  0.00  0.00    +0.013 C 
ENDROOT
BRANCH   8   3
ATOM      3  N   UNL     1      14.211   7.359  18.896  0.00  0.00    -0.309 NA
ATOM     28  H   UNL     1      14.261   8.378  18.879  0.00  0.00    +0.123 HD
BRANCH   3  14
ATOM     14  C   UNL     1      12.810   6.953  18.867  0.00  0.00    +0.118 C 
BRANCH  14  16
ATOM      5  N   UNL     1      10.702   7.269  21.995  0.00  0.00    -0.263 NA
ATOM     16  C   UNL     1      12.025   7.569  19.995  0.00  0.00    -0.015 A 
ATOM     18  C   UNL     1      11.883   8.949  20.100  0.00  0.00    +0.008 A 
ATOM     19  C   UNL     1      11.420   6.780  20.960  0.00  0.00    +0.115 A 
ATOM     21  C   UNL     1      11.152   9.489  21.151  0.00  0.00    +0.020 A 
ATOM     22  C   UNL     1      10.586   8.614  22.065  0.00  0.00    +0.111 A 
ENDBRANCH  14  16
ENDBRANCH   3  14
ENDBRANCH   8   3
BRANCH   7  10
ATOM     10  C   UNL     1      18.036   7.820  21.103  0.00  0.00    +0.063 C 
BRANCH  10  13
ATOM      2  O   UNL     1      20.620   5.829  22.558  0.00  0.00    -0.354 OA
ATOM      4  N   UNL     1      19.542   6.700  22.651  0.00  0.00    -0.083 NA
ATOM     13  C   UNL     1      19.171   6.926  21.387  0.00  0.00    +0.084 A 
ATOM     15  C   UNL     1      19.971   6.230  20.463  0.00  0.00    +0.076 A 
ATOM     17  C   UNL     1      20.866   5.557  21.251  0.00  0.00    +0.167 A 
BRANCH  17  20
ATOM      1  F   UNL     1      25.110   2.085  20.264  0.00  0.00    -0.205 F 
ATOM     20  C   UNL     1      21.964   4.658  20.995  0.00  0.00    +0.020 A 
ATOM     23  C   UNL     1      21.834   3.298  21.280  0.00  0.00    +0.014 A 
ATOM     24  C   UNL     1      23.157   5.148  20.464  0.00  0.00    +0.014 A 
ATOM     25  C   UNL     1      22.897   2.430  21.033  0.00  0.00    +0.039 A 
ATOM     26  C   UNL     1      24.220   4.279  20.217  0.00  0.00    +0.039 A 
ATOM     27  C   UNL     1      24.090   2.920  20.501  0.00  0.00    +0.123 A 
ENDBRANCH  17  20
ENDBRANCH  10  13
ENDBRANCH   7  10
TORSDOF 6
ENDMDL
MODEL 2
REMARK VINA RESULT:      -7.2      2.553      3.924
REMARK  Name = 56774062
REMARK  8 active torsions:
REMARK  status: ('A' for Active; 'I' for Inactive)
REMARK    1  A    between atoms: N_3  and  C_8
REMARK    2  A    between atoms: N_3  and  C_14
REMARK    3  A    between atoms: C_6  and  C_11
REMARK    4  A    between atoms: C_6  and  C_12
REMARK    5  A    between atoms: C_7  and  C_10
REMARK    6  A    between atoms: C_10  and  C_13
REMARK    7  A    between atoms: C_14  and  C_16
REMARK    8  A    between atoms: C_17  and  C_20
REMARK                            x       y       z     vdW  Elec       q    Type
REMARK                         _______ _______ _______ _____ _____    ______ ____
ROOT
ATOM      6  C   UNL     1      13.725   8.719  21.085  0.00  0.00    -0.016 C 
ATOM      7  C   UNL     1      14.030   7.231  20.814  0.00  0.00    +0.004 C 
ATOM      8  C   UNL     1      12.455   8.246  21.822  0.00  0.00    +0.060 C 
ATOM      9  C   UNL     1      12.514   6.975  20.948  0.00  0.00    +0.023 C 
ATOM     11  C   UNL     1      14.789   9.421  21.902  0.00  0.00    +0.013 C 
ATOM     12  C   UNL     1      13.395   9.554  19.859  0.00  0.00    +0.013 C 
ENDROOT
BRANCH   8   3
ATOM      3  N   UNL     1      11.288   9.038  21.429  0.00  0.00    -0.309 NA
ATOM     28  H   UNL     1      11.537   9.866  20.887  0.00  0.00    +0.123 HD
BRANCH   3  14
ATOM     14  C   UNL     1      10.560   9.455  22.622  0.00  0.00    +0.118 C 
BRANCH  14  16
ATOM      5  N   UNL     1      11.494  12.269  24.976  0.00  0.00    -0.263 NA
ATOM     16  C   UNL     1      11.015  10.804  23.114  0.00  0.00    -0.015 A 
ATOM     18  C   UNL     1      11.366  11.811  22.221  0.00  0.00    +0.008 A 
ATOM     19  C   UNL     1      11.096  11.081  24.469  0.00  0.00    +0.115 A 
ATOM     21  C   UNL     1      11.781  13.047  22.705  0.00  0.00    +0.020 A 
ATOM     22  C   UNL     1      11.828  13.224  24.078  0.00  0.00    +0.111 A 
ENDBRANCH  14  16
ENDBRANCH   3  14
ENDBRANCH   8   3
BRANCH   7  10
ATOM     10  C   UNL     1      14.619   6.876  19.442  0.00  0.00    +0.063 C 
BRANCH  10  13
ATOM      2  O   UNL     1      17.917   5.582  18.979  0.00  0.00    -0.354 OA
ATOM      4  N   UNL     1      16.625   5.840  18.536  0.00  0.00    -0.083 NA
ATOM     13  C   UNL     1      16.024   6.451  19.561  0.00  0.00    +0.084 A 
ATOM     15  C   UNL     1      16.878   6.603  20.667  0.00  0.00    +0.076 A 
ATOM     17  C   UNL     1      18.055   6.041  20.249  0.00  0.00    +0.167 A 
BRANCH  17  20
ATOM      1  F   UNL     1      23.066   5.281  22.562  0.00  0.00    -0.205 F 
ATOM     20  C   UNL     1      19.353   5.844  20.847  0.00  0.00    +0.020 A 
ATOM     23  C   UNL     1      20.237   4.911  20.305  0.00  0.00    +0.014 A 
ATOM     24  C   UNL     1      19.723   6.587  21.968  0.00  0.00    +0.014 A 
ATOM     25  C   UNL     1      21.491   4.721  20.885  0.00  0.00    +0.039 A 
ATOM     26  C   UNL     1      20.977   6.397  22.548  0.00  0.00    +0.039 A 
ATOM     27  C   UNL     1      21.862   5.464  22.006  0.00  0.00    +0.123 A 
ENDBRANCH  17  20
ENDBRANCH  10  13
ENDBRANCH   7  10
TORSDOF 6
ENDMDL
MODEL 3
REMARK VINA RESULT:      -6.8     27.797     29.757
REMARK  Name = 56774062
REMARK  8 active torsions:
REMARK  status: ('A' for Active; 'I' for Inactive)
REMARK    1  A    between atoms: N_3  and  C_8
REMARK    2  A    between atoms: N_3  and  C_14
REMARK    3  A    between atoms: C_6  and  C_11
REMARK    4  A    between atoms: C_6  and  C_12
REMARK    5  A    between atoms: C_7  and  C_10
REMARK    6  A    between atoms: C_10  and  C_13
REMARK    7  A    between atoms: C_14  and  C_16
REMARK    8  A    between atoms: C_17  and  C_20
REMARK                            x       y       z     vdW  Elec       q    Type
REMARK                         _______ _______ _______ _____ _____    ______ ____
ROOT
ATOM      6  C   UNL     1      -4.550  -9.827  10.550  0.00  0.00    -0.016 C 
ATOM      7  C   UNL     1      -3.927 -10.955  11.399  0.00  0.00    +0.004 C 
ATOM      8  C   UNL     1      -4.953 -10.919   9.537  0.00  0.00    +0.060 C 
ATOM      9  C   UNL     1      -3.783 -11.758  10.090  0.00  0.00    +0.023 C 
ATOM     11  C   UNL     1      -5.661  -9.077  11.252  0.00  0.00    +0.013 C 
ATOM     12  C   UNL     1      -3.565  -8.835   9.955  0.00  0.00    +0.013 C 
ENDROOT
BRANCH   8   3
ATOM      3  N   UNL     1      -4.639 -10.512   8.166  0.00  0.00    -0.309 NA
ATOM     28  H   UNL     1      -4.460  -9.510   8.082  0.00  0.00    +0.123 HD
BRANCH   3  14
ATOM     14  C   UNL     1      -5.747 -10.870   7.287  0.00  0.00    +0.118 C 
BRANCH  14  16
ATOM      5  N   UNL     1      -7.439  -8.243   5.150  0.00  0.00    -0.263 NA
ATOM     16  C   UNL     1      -6.564  -9.667   6.896  0.00  0.00    -0.015 A 
ATOM     18  C   UNL     1      -7.184  -8.878   7.860  0.00  0.00    +0.008 A 
ATOM     19  C   UNL     1      -6.721  -9.310   5.567  0.00  0.00    +0.115 A 
ATOM     21  C   UNL     1      -7.931  -7.772   7.469  0.00  0.00    +0.020 A 
ATOM     22  C   UNL     1      -8.027  -7.500   6.114  0.00  0.00    +0.111 A 
ENDBRANCH  14  16
ENDBRANCH   3  14
ENDBRANCH   8   3
BRANCH   7  10
ATOM     10  C   UNL     1      -2.602 -10.646  12.109  0.00  0.00    +0.063 C 
BRANCH  10  13
ATOM      2  O   UNL     1      -2.245 -10.385  15.654  0.00  0.00    -0.354 OA
ATOM      4  N   UNL     1      -1.752 -10.283  14.359  0.00  0.00    -0.083 NA
ATOM     13  C   UNL     1      -2.771 -10.639  13.571  0.00  0.00    +0.084 A 
ATOM     15  C   UNL     1      -3.922 -10.972  14.306  0.00  0.00    +0.076 A 
ATOM     17  C   UNL     1      -3.538 -10.796  15.609  0.00  0.00    +0.167 A 
BRANCH  17  20
ATOM      1  F   UNL     1      -6.064 -11.382  20.541  0.00  0.00    -0.205 F 
ATOM     20  C   UNL     1      -4.191 -10.947  16.886  0.00  0.00    +0.020 A 
ATOM     23  C   UNL     1      -3.576 -11.679  17.902  0.00  0.00    +0.014 A 
ATOM     24  C   UNL     1      -5.439 -10.364  17.105  0.00  0.00    +0.014 A 
ATOM     25  C   UNL     1      -4.209 -11.825  19.137  0.00  0.00    +0.039 A 
ATOM     26  C   UNL     1      -6.072 -10.510  18.339  0.00  0.00    +0.039 A 
ATOM     27  C   UNL     1      -5.457 -11.241  19.355  0.00  0.00    +0.123 A 
ENDBRANCH  17  20
ENDBRANCH  10  13
ENDBRANCH   7  10
TORSDOF 6
ENDMDL
MODEL 4
REMARK VINA RESULT:      -6.7     28.182     30.335
REMARK  Name = 56774062
REMARK  8 active torsions:
REMARK  status: ('A' for Active; 'I' for Inactive)
REMARK    1  A    between atoms: N_3  and  C_8
REMARK    2  A    between atoms: N_3  and  C_14
REMARK    3  A    between atoms: C_6  and  C_11
REMARK    4  A    between atoms: C_6  and  C_12
REMARK    5  A    between atoms: C_7  and  C_10
REMARK    6  A    between atoms: C_10  and  C_13
REMARK    7  A    between atoms: C_14  and  C_16
REMARK    8  A    between atoms: C_17  and  C_20
REMARK                            x       y       z     vdW  Elec       q    Type
REMARK                         _______ _______ _______ _____ _____    ______ ____
ROOT
ATOM      6  C   UNL     1      -4.668  -9.785  10.162  0.00  0.00    -0.016 C 
ATOM      7  C   UNL     1      -4.190 -11.092  10.828  0.00  0.00    +0.004 C 
ATOM      8  C   UNL     1      -5.216 -10.660   9.016  0.00  0.00    +0.060 C 
ATOM      9  C   UNL     1      -4.159 -11.712   9.415  0.00  0.00    +0.023 C 
ATOM     11  C   UNL     1      -5.668  -9.009  10.991  0.00  0.00    +0.013 C 
ATOM     12  C   UNL     1      -3.568  -8.850   9.689  0.00  0.00    +0.013 C 
ENDROOT
BRANCH   8   3
ATOM      3  N   UNL     1      -4.863 -10.104   7.709  0.00  0.00    -0.309 NA
ATOM     28  H   UNL     1      -4.605  -9.118   7.755  0.00  0.00    +0.123 HD
BRANCH   3  14
ATOM     14  C   UNL     1      -5.990 -10.256   6.795  0.00  0.00    +0.118 C 
BRANCH  14  16
ATOM      5  N   UNL     1      -6.140 -11.701   3.299  0.00  0.00    -0.263 NA
ATOM     16  C   UNL     1      -5.609 -11.029   5.560  0.00  0.00    -0.015 A 
ATOM     18  C   UNL     1      -4.432 -11.768   5.511  0.00  0.00    +0.008 A 
ATOM     19  C   UNL     1      -6.421 -11.028   4.437  0.00  0.00    +0.115 A 
ATOM     21  C   UNL     1      -4.108 -12.473   4.357  0.00  0.00    +0.020 A 
ATOM     22  C   UNL     1      -4.987 -12.407   3.288  0.00  0.00    +0.111 A 
ENDBRANCH  14  16
ENDBRANCH   3  14
ENDBRANCH   8   3
BRANCH   7  10
ATOM     10  C   UNL     1      -2.830 -11.058  11.540  0.00  0.00    +0.063 C 
BRANCH  10  13
ATOM      2  O   UNL     1      -2.453 -10.396  15.030  0.00  0.00    -0.354 OA
ATOM      4  N   UNL     1      -1.960 -10.467  13.733  0.00  0.00    -0.083 NA
ATOM     13  C   UNL     1      -2.995 -10.871  12.991  0.00  0.00    +0.084 A 
ATOM     15  C   UNL     1      -4.157 -11.069  13.758  0.00  0.00    +0.076 A 
ATOM     17  C   UNL     1      -3.762 -10.757  15.032  0.00  0.00    +0.167 A 
BRANCH  17  20
ATOM      1  F   UNL     1      -6.289 -10.648  19.996  0.00  0.00    -0.205 F 
ATOM     20  C   UNL     1      -4.417 -10.729  16.317  0.00  0.00    +0.020 A 
ATOM     23  C   UNL     1      -5.584  -9.985  16.489  0.00  0.00    +0.014 A 
ATOM     24  C   UNL     1      -3.882 -11.446  17.387  0.00  0.00    +0.014 A 
ATOM     25  C   UNL     1      -6.216  -9.958  17.732  0.00  0.00    +0.039 A 
ATOM     26  C   UNL     1      -4.514 -11.419  18.630  0.00  0.00    +0.039 A 
ATOM     27  C   UNL     1      -5.681 -10.675  18.803  0.00  0.00    +0.123 A 
ENDBRANCH  17  20
ENDBRANCH  10  13
ENDBRANCH   7  10
TORSDOF 6
ENDMDL
MODEL 5
REMARK VINA RESULT:      -6.6     29.830     33.401
REMARK  Name = 56774062
REMARK  8 active torsions:
REMARK  status: ('A' for Active; 'I' for Inactive)
REMARK    1  A    between atoms: N_3  and  C_8
REMARK    2  A    between atoms: N_3  and  C_14
REMARK    3  A    between atoms: C_6  and  C_11
REMARK    4  A    between atoms: C_6  and  C_12
REMARK    5  A    between atoms: C_7  and  C_10
REMARK    6  A    between atoms: C_10  and  C_13
REMARK    7  A    between atoms: C_14  and  C_16
REMARK    8  A    between atoms: C_17  and  C_20
REMARK                            x       y       z     vdW  Elec       q    Type
REMARK                         _______ _______ _______ _____ _____    ______ ____
ROOT
ATOM      6  C   UNL     1     -17.344   4.389  25.901  0.00  0.00    -0.016 C 
ATOM      7  C   UNL     1     -16.124   4.086  25.006  0.00  0.00    +0.004 C 
ATOM      8  C   UNL     1     -16.600   3.653  27.034  0.00  0.00    +0.060 C 
ATOM      9  C   UNL     1     -15.840   2.884  25.932  0.00  0.00    +0.023 C 
ATOM     11  C   UNL     1     -17.614   5.867  26.084  0.00  0.00    +0.013 C 
ATOM     12  C   UNL     1     -18.633   3.683  25.513  0.00  0.00    +0.013 C 
ENDROOT
BRANCH   8   3
ATOM      3  N   UNL     1     -17.487   2.723  27.735  0.00  0.00    -0.309 NA
ATOM     28  H   UNL     1     -18.475   2.939  27.597  0.00  0.00    +0.123 HD
BRANCH   3  14
ATOM     14  C   UNL     1     -17.192   2.753  29.163  0.00  0.00    +0.118 C 
BRANCH  14  16
ATOM      5  N   UNL     1     -14.724  -0.102  29.463  0.00  0.00    -0.263 NA
ATOM     16  C   UNL     1     -15.936   1.989  29.491  0.00  0.00    -0.015 A 
ATOM     18  C   UNL     1     -14.856   2.615  30.105  0.00  0.00    +0.008 A 
ATOM     19  C   UNL     1     -15.821   0.641  29.194  0.00  0.00    +0.115 A 
ATOM     21  C   UNL     1     -13.711   1.884  30.397  0.00  0.00    +0.020 A 
ATOM     22  C   UNL     1     -13.694   0.540  30.059  0.00  0.00    +0.111 A 
ENDBRANCH  14  16
ENDBRANCH   3  14
ENDBRANCH   8   3
BRANCH   7  10
ATOM     10  C   UNL     1     -16.404   3.714  23.544  0.00  0.00    +0.063 C 
BRANCH  10  13
ATOM      2  O   UNL     1     -15.384   5.764  20.802  0.00  0.00    -0.354 OA
ATOM      4  N   UNL     1     -16.234   4.837  21.393  0.00  0.00    -0.083 NA
ATOM     13  C   UNL     1     -15.742   4.650  22.621  0.00  0.00    +0.084 A 
ATOM     15  C   UNL     1     -14.593   5.425  22.859  0.00  0.00    +0.076 A 
ATOM     17  C   UNL     1     -14.411   6.105  21.685  0.00  0.00    +0.167 A 
BRANCH  17  20
ATOM      1  F   UNL     1     -10.690   9.826  19.853  0.00  0.00    -0.205 F 
ATOM     20  C   UNL     1     -13.447   7.069  21.212  0.00  0.00    +0.020 A 
ATOM     23  C   UNL     1     -13.783   8.422  21.157  0.00  0.00    +0.014 A 
ATOM     24  C   UNL     1     -12.181   6.648  20.807  0.00  0.00    +0.014 A 
ATOM     25  C   UNL     1     -12.851   9.353  20.698  0.00  0.00    +0.039 A 
ATOM     26  C   UNL     1     -11.249   7.578  20.348  0.00  0.00    +0.039 A 
ATOM     27  C   UNL     1     -11.584   8.931  20.293  0.00  0.00    +0.123 A 
ENDBRANCH  17  20
ENDBRANCH  10  13
ENDBRANCH   7  10
TORSDOF 6
ENDMDL
MODEL 6
REMARK VINA RESULT:      -6.5     27.427     29.978
REMARK  Name = 56774062
REMARK  8 active torsions:
REMARK  status: ('A' for Active; 'I' for Inactive)
REMARK    1  A    between atoms: N_3  and  C_8
REMARK    2  A    between atoms: N_3  and  C_14
REMARK    3  A    between atoms: C_6  and  C_11
REMARK    4  A    between atoms: C_6  and  C_12
REMARK    5  A    between atoms: C_7  and  C_10
REMARK    6  A    between atoms: C_10  and  C_13
REMARK    7  A    between atoms: C_14  and  C_16
REMARK    8  A    between atoms: C_17  and  C_20
REMARK                            x       y       z     vdW  Elec       q    Type
REMARK                         _______ _______ _______ _____ _____    ______ ____
ROOT
ATOM      6  C   UNL     1      -3.900 -11.086  14.740  0.00  0.00    -0.016 C 
ATOM      7  C   UNL     1      -2.622 -10.549  14.062  0.00  0.00    +0.004 C 
ATOM      8  C   UNL     1      -3.233 -10.748  16.090  0.00  0.00    +0.060 C 
ATOM      9  C   UNL     1      -1.876 -10.892  15.368  0.00  0.00    +0.023 C 
ATOM     11  C   UNL     1      -5.154 -10.325  14.369  0.00  0.00    +0.013 C 
ATOM     12  C   UNL     1      -4.147 -12.577  14.585  0.00  0.00    +0.013 C 
ENDROOT
BRANCH   8   3
ATOM      3  N   UNL     1      -3.382 -11.848  17.045  0.00  0.00    -0.309 NA
ATOM     28  H   UNL     1      -4.046 -12.557  16.731  0.00  0.00    +0.123 HD
BRANCH   3  14
ATOM     14  C   UNL     1      -3.825 -11.320  18.330  0.00  0.00    +0.118 C 
BRANCH  14  16
ATOM      5  N   UNL     1      -7.258 -11.304  19.924  0.00  0.00    -0.263 NA
ATOM     16  C   UNL     1      -5.258 -11.679  18.619  0.00  0.00    -0.015 A 
ATOM     18  C   UNL     1      -5.907 -12.676  17.898  0.00  0.00    +0.008 A 
ATOM     19  C   UNL     1      -5.972 -11.029  19.613  0.00  0.00    +0.115 A 
ATOM     21  C   UNL     1      -7.230 -12.987  18.189  0.00  0.00    +0.020 A 
ATOM     22  C   UNL     1      -7.856 -12.278  19.202  0.00  0.00    +0.111 A 
ENDBRANCH  14  16
ENDBRANCH   3  14
ENDBRANCH   8   3
BRANCH   7  10
ATOM     10  C   UNL     1      -2.119 -11.302  12.823  0.00  0.00    +0.063 C 
BRANCH  10  13
ATOM      2  O   UNL     1      -3.015  -9.359   9.961  0.00  0.00    -0.354 OA
ATOM      4  N   UNL     1      -2.263  -9.582  11.108  0.00  0.00    -0.083 NA
ATOM     13  C   UNL     1      -2.704 -10.747  11.591  0.00  0.00    +0.084 A 
ATOM     15  C   UNL     1      -3.724 -11.301  10.797  0.00  0.00    +0.076 A 
ATOM     17  C   UNL     1      -3.881 -10.389   9.787  0.00  0.00    +0.167 A 
BRANCH  17  20
ATOM      1  F   UNL     1      -7.178 -10.048   5.309  0.00  0.00    -0.205 F 
ATOM     20  C   UNL     1      -4.734 -10.300   8.627  0.00  0.00    +0.020 A 
ATOM     23  C   UNL     1      -5.745  -9.339   8.577  0.00  0.00    +0.014 A 
ATOM     24  C   UNL     1      -4.550 -11.176   7.558  0.00  0.00    +0.014 A 
ATOM     25  C   UNL     1      -6.570  -9.255   7.455  0.00  0.00    +0.039 A 
ATOM     26  C   UNL     1      -5.375 -11.091   6.436  0.00  0.00    +0.039 A 
ATOM     27  C   UNL     1      -6.385 -10.130   6.385  0.00  0.00    +0.123 A 
ENDBRANCH  17  20
ENDBRANCH  10  13
ENDBRANCH   7  10
TORSDOF 6
ENDMDL
MODEL 7
REMARK VINA RESULT:      -6.5      3.906     10.139
REMARK  Name = 56774062
REMARK  8 active torsions:
REMARK  status: ('A' for Active; 'I' for Inactive)
REMARK    1  A    between atoms: N_3  and  C_8
REMARK    2  A    between atoms: N_3  and  C_14
REMARK    3  A    between atoms: C_6  and  C_11
REMARK    4  A    between atoms: C_6  and  C_12
REMARK    5  A    between atoms: C_7  and  C_10
REMARK    6  A    between atoms: C_10  and  C_13
REMARK    7  A    between atoms: C_14  and  C_16
REMARK    8  A    between atoms: C_17  and  C_20
REMARK                            x       y       z     vdW  Elec       q    Type
REMARK                         _______ _______ _______ _____ _____    ______ ____
ROOT
ATOM      6  C   UNL     1      20.897   5.901  21.298  0.00  0.00    -0.016 C 
ATOM      7  C   UNL     1      19.618   6.515  21.903  0.00  0.00    +0.004 C 
ATOM      8  C   UNL     1      21.352   5.615  22.744  0.00  0.00    +0.060 C 
ATOM      9  C   UNL     1      20.441   6.783  23.180  0.00  0.00    +0.023 C 
ATOM     11  C   UNL     1      20.637   4.712  20.398  0.00  0.00    +0.013 C 
ATOM     12  C   UNL     1      21.823   6.878  20.593  0.00  0.00    +0.013 C 
ENDROOT
BRANCH   8   3
ATOM      3  N   UNL     1      22.749   6.002  22.947  0.00  0.00    -0.309 NA
ATOM     28  H   UNL     1      23.172   6.409  22.112  0.00  0.00    +0.123 HD
BRANCH   3  14
ATOM     14  C   UNL     1      23.524   4.832  23.347  0.00  0.00    +0.118 C 
BRANCH  14  16
ATOM      5  N   UNL     1      25.088   3.843  20.045  0.00  0.00    -0.263 NA
ATOM     16  C   UNL     1      23.931   3.998  22.162  0.00  0.00    -0.015 A 
ATOM     18  C   UNL     1      23.554   2.663  22.062  0.00  0.00    +0.008 A 
ATOM     19  C   UNL     1      24.691   4.536  21.136  0.00  0.00    +0.115 A 
ATOM     21  C   UNL     1      23.944   1.918  20.955  0.00  0.00    +0.020 A 
ATOM     22  C   UNL     1      24.703   2.548  19.983  0.00  0.00    +0.111 A 
ENDBRANCH  14  16
ENDBRANCH   3  14
ENDBRANCH   8   3
BRANCH   7  10
ATOM     10  C   UNL     1      19.059   7.775  21.227  0.00  0.00    +0.063 C 
BRANCH  10  13
ATOM      2  O   UNL     1      16.159   6.426  19.636  0.00  0.00    -0.354 OA
ATOM      4  N   UNL     1      17.469   6.328  20.089  0.00  0.00    -0.083 NA
ATOM     13  C   UNL     1      17.736   7.518  20.636  0.00  0.00    +0.084 A 
ATOM     15  C   UNL     1      16.642   8.398  20.559  0.00  0.00    +0.076 A 
ATOM     17  C   UNL     1      15.678   7.663  19.922  0.00  0.00    +0.167 A 
BRANCH  17  20
ATOM      1  F   UNL     1      10.427   8.643  18.336  0.00  0.00    -0.205 F 
ATOM     20  C   UNL     1      14.318   7.916  19.511  0.00  0.00    +0.020 A 
ATOM     23  C   UNL     1      13.923   7.644  18.201  0.00  0.00    +0.014 A 
ATOM     24  C   UNL     1      13.399   8.434  20.424  0.00  0.00    +0.014 A 
ATOM     25  C   UNL     1      12.608   7.890  17.805  0.00  0.00    +0.039 A 
ATOM     26  C   UNL     1      12.085   8.679  20.028  0.00  0.00    +0.039 A 
ATOM     27  C   UNL     1      11.689   8.408  18.718  0.00  0.00    +0.123 A 
ENDBRANCH  17  20
ENDBRANCH  10  13
ENDBRANCH   7  10
TORSDOF 6
ENDMDL
MODEL 8
REMARK VINA RESULT:      -6.5     28.853     32.593
REMARK  Name = 56774062
REMARK  8 active torsions:
REMARK  status: ('A' for Active; 'I' for Inactive)
REMARK    1  A    between atoms: N_3  and  C_8
REMARK    2  A    between atoms: N_3  and  C_14
REMARK    3  A    between atoms: C_6  and  C_11
REMARK    4  A    between atoms: C_6  and  C_12
REMARK    5  A    between atoms: C_7  and  C_10
REMARK    6  A    between atoms: C_10  and  C_13
REMARK    7  A    between atoms: C_14  and  C_16
REMARK    8  A    between atoms: C_17  and  C_20
REMARK                            x       y       z     vdW  Elec       q    Type
REMARK                         _______ _______ _______ _____ _____    ______ ____
ROOT
ATOM      6  C   UNL     1     -13.405   7.455  21.164  0.00  0.00    -0.016 C 
ATOM      7  C   UNL     1     -14.414   7.044  22.256  0.00  0.00    +0.004 C 
ATOM      8  C   UNL     1     -13.246   8.789  21.920  0.00  0.00    +0.060 C 
ATOM      9  C   UNL     1     -14.662   8.549  22.487  0.00  0.00    +0.023 C 
ATOM     11  C   UNL     1     -12.196   6.549  21.078  0.00  0.00    +0.013 C 
ATOM     12  C   UNL     1     -13.989   7.654  19.775  0.00  0.00    +0.013 C 
ENDROOT
BRANCH   8   3
ATOM      3  N   UNL     1     -13.290   9.928  21.002  0.00  0.00    -0.309 NA
ATOM     28  H   UNL     1     -13.485   9.652  20.039  0.00  0.00    +0.123 HD
BRANCH   3  14
ATOM     14  C   UNL     1     -12.014  10.635  21.042  0.00  0.00    +0.118 C 
BRANCH  14  16
ATOM      5  N   UNL     1     -10.733  11.699  17.643  0.00  0.00    -0.263 NA
ATOM     16  C   UNL     1     -11.307  10.592  19.714  0.00  0.00    -0.015 A 
ATOM     18  C   UNL     1     -10.598   9.463  19.316  0.00  0.00    +0.008 A 
ATOM     19  C   UNL     1     -11.344  11.673  18.848  0.00  0.00    +0.115 A 
ATOM     21  C   UNL     1      -9.956   9.452  18.083  0.00  0.00    +0.020 A 
ATOM     22  C   UNL     1     -10.053  10.585  17.290  0.00  0.00    +0.111 A 
ENDBRANCH  14  16
ENDBRANCH   3  14
ENDBRANCH   8   3
BRANCH   7  10
ATOM     10  C   UNL     1     -15.651   6.255  21.806  0.00  0.00    +0.063 C 
BRANCH  10  13
ATOM      2  O   UNL     1     -16.257   3.013  23.178  0.00  0.00    -0.354 OA
ATOM      4  N   UNL     1     -16.096   3.882  22.106  0.00  0.00    -0.083 NA
ATOM     13  C   UNL     1     -15.870   5.077  22.661  0.00  0.00    +0.084 A 
ATOM     15  C   UNL     1     -15.877   5.022  24.066  0.00  0.00    +0.076 A 
ATOM     17  C   UNL     1     -16.124   3.703  24.339  0.00  0.00    +0.167 A 
BRANCH  17  20
ATOM      1  F   UNL     1     -16.669   0.712  29.008  0.00  0.00    -0.205 F 
ATOM     20  C   UNL     1     -16.265   2.928  25.548  0.00  0.00    +0.020 A 
ATOM     23  C   UNL     1     -16.648   1.589  25.477  0.00  0.00    +0.014 A 
ATOM     24  C   UNL     1     -16.019   3.519  26.787  0.00  0.00    +0.014 A 
ATOM     25  C   UNL     1     -16.784   0.841  26.646  0.00  0.00    +0.039 A 
ATOM     26  C   UNL     1     -16.155   2.771  27.956  0.00  0.00    +0.039 A 
ATOM     27  C   UNL     1     -16.538   1.431  27.886  0.00  0.00    +0.123 A 
ENDBRANCH  17  20
ENDBRANCH  10  13
ENDBRANCH   7  10
TORSDOF 6
ENDMDL
MODEL 9
REMARK VINA RESULT:      -6.4     28.254     31.216
REMARK  Name = 56774062
REMARK  8 active torsions:
REMARK  status: ('A' for Active; 'I' for Inactive)
REMARK    1  A    between atoms: N_3  and  C_8
REMARK    2  A    between atoms: N_3  and  C_14
REMARK    3  A    between atoms: C_6  and  C_11
REMARK    4  A    between atoms: C_6  and  C_12
REMARK    5  A    between atoms: C_7  and  C_10
REMARK    6  A    between atoms: C_10  and  C_13
REMARK    7  A    between atoms: C_14  and  C_16
REMARK    8  A    between atoms: C_17  and  C_20
REMARK                            x       y       z     vdW  Elec       q    Type
REMARK                         _______ _______ _______ _____ _____    ______ ____
ROOT
ATOM      6  C   UNL     1      -4.283 -11.309  15.559  0.00  0.00    -0.016 C 
ATOM      7  C   UNL     1      -5.206 -11.870  16.661  0.00  0.00    +0.004 C 
ATOM      8  C   UNL     1      -4.065 -12.767  15.106  0.00  0.00    +0.060 C 
ATOM      9  C   UNL     1      -4.409 -13.188  16.550  0.00  0.00    +0.023 C 
ATOM     11  C   UNL     1      -4.982 -10.373  14.597  0.00  0.00    +0.013 C 
ATOM     12  C   UNL     1      -2.996 -10.665  16.048  0.00  0.00    +0.013 C 
ENDROOT
BRANCH   8   3
ATOM      3  N   UNL     1      -2.647 -13.038  14.858  0.00  0.00    -0.309 NA
ATOM     28  H   UNL     1      -2.052 -12.229  15.040  0.00  0.00    +0.123 HD
BRANCH   3  14
ATOM     14  C   UNL     1      -2.468 -13.456  13.472  0.00  0.00    +0.118 C 
BRANCH  14  16
ATOM      5  N   UNL     1      -3.786 -11.349  10.616  0.00  0.00    -0.263 NA
ATOM     16  C   UNL     1      -2.635 -12.305  12.514  0.00  0.00    -0.015 A 
ATOM     18  C   UNL     1      -1.836 -11.171  12.611  0.00  0.00    +0.008 A 
ATOM     19  C   UNL     1      -3.586 -12.345  11.508  0.00  0.00    +0.115 A 
ATOM     21  C   UNL     1      -2.013 -10.125  11.712  0.00  0.00    +0.020 A 
ATOM     22  C   UNL     1      -2.992 -10.262  10.741  0.00  0.00    +0.111 A 
ENDBRANCH  14  16
ENDBRANCH   3  14
ENDBRANCH   8   3
BRANCH   7  10
ATOM     10  C   UNL     1      -5.140 -11.198  18.039  0.00  0.00    +0.063 C 
BRANCH  10  13
ATOM      2  O   UNL     1      -8.060 -11.044  20.091  0.00  0.00    -0.354 OA
ATOM      4  N   UNL     1      -6.715 -11.327  19.888  0.00  0.00    -0.083 NA
ATOM     13  C   UNL     1      -6.486 -11.020  18.608  0.00  0.00    +0.084 A 
ATOM     15  C   UNL     1      -7.639 -10.543  17.959  0.00  0.00    +0.076 A 
ATOM     17  C   UNL     1      -8.599 -10.579  18.935  0.00  0.00    +0.167 A 
BRANCH  17  20
ATOM      1  F   UNL     1     -14.009  -9.266  19.147  0.00  0.00    -0.205 F 
ATOM     20  C   UNL     1     -10.000 -10.238  18.991  0.00  0.00    +0.020 A 
ATOM     23  C   UNL     1     -10.768 -10.621  20.091  0.00  0.00    +0.014 A 
ATOM     24  C   UNL     1     -10.586  -9.528  17.944  0.00  0.00    +0.014 A 
ATOM     25  C   UNL     1     -12.122 -10.292  20.143  0.00  0.00    +0.039 A 
ATOM     26  C   UNL     1     -11.940  -9.199  17.996  0.00  0.00    +0.039 A 
ATOM     27  C   UNL     1     -12.709  -9.581  19.095  0.00  0.00    +0.123 A 
ENDBRANCH  17  20
ENDBRANCH  10  13
ENDBRANCH   7  10
TORSDOF 6
ENDMDL
MODEL 10
REMARK VINA RESULT:      -6.3     27.649     30.020
REMARK  Name = 56774062
REMARK  8 active torsions:
REMARK  status: ('A' for Active; 'I' for Inactive)
REMARK    1  A    between atoms: N_3  and  C_8
REMARK    2  A    between atoms: N_3  and  C_14
REMARK    3  A    between atoms: C_6  and  C_11
REMARK    4  A    between atoms: C_6  and  C_12
REMARK    5  A    between atoms: C_7  and  C_10
REMARK    6  A    between atoms: C_10  and  C_13
REMARK    7  A    between atoms: C_14  and  C_16
REMARK    8  A    between atoms: C_17  and  C_20
REMARK                            x       y       z     vdW  Elec       q    Type
REMARK                         _______ _______ _______ _____ _____    ______ ____
ROOT
ATOM      6  C   UNL     1      -6.983 -11.037  17.863  0.00  0.00    -0.016 C 
ATOM      7  C   UNL     1      -5.547 -10.768  18.359  0.00  0.00    +0.004 C 
ATOM      8  C   UNL     1      -7.461 -10.663  19.281  0.00  0.00    +0.060 C 
ATOM      9  C   UNL     1      -6.062 -11.080  19.780  0.00  0.00    +0.023 C 
ATOM     11  C   UNL     1      -7.411 -10.141  16.720  0.00  0.00    +0.013 C 
ATOM     12  C   UNL     1      -7.297 -12.483  17.519  0.00  0.00    +0.013 C 
ENDROOT
BRANCH   8   3
ATOM      3  N   UNL     1      -8.448 -11.623  19.778  0.00  0.00    -0.309 NA
ATOM     28  H   UNL     1      -8.614 -12.393  19.128  0.00  0.00    +0.123 HD
BRANCH   3  14
ATOM     14  C   UNL     1      -9.710 -10.937  20.031  0.00  0.00    +0.118 C 
BRANCH  14  16
ATOM      5  N   UNL     1     -11.610 -11.518  16.808  0.00  0.00    -0.263 NA
ATOM     16  C   UNL     1     -10.463 -10.661  18.756  0.00  0.00    -0.015 A 
ATOM     18  C   UNL     1     -10.709  -9.358  18.336  0.00  0.00    +0.008 A 
ATOM     19  C   UNL     1     -10.930 -11.697  17.963  0.00  0.00    +0.115 A 
ATOM     21  C   UNL     1     -11.405  -9.135  17.154  0.00  0.00    +0.020 A 
ATOM     22  C   UNL     1     -11.831 -10.239  16.432  0.00  0.00    +0.111 A 
ENDBRANCH  14  16
ENDBRANCH   3  14
ENDBRANCH   8   3
BRANCH   7  10
ATOM     10  C   UNL     1      -4.445 -11.711  17.858  0.00  0.00    +0.063 C 
BRANCH  10  13
ATOM      2  O   UNL     1      -2.452 -10.494  15.155  0.00  0.00    -0.354 OA
ATOM      4  N   UNL     1      -2.631 -10.849  16.486  0.00  0.00    -0.083 NA
ATOM     13  C   UNL     1      -3.901 -11.254  16.568  0.00  0.00    +0.084 A 
ATOM     15  C   UNL     1      -4.567 -11.178  15.332  0.00  0.00    +0.076 A 
ATOM     17  C   UNL     1      -3.611 -10.694  14.478  0.00  0.00    +0.167 A 
BRANCH  17  20
ATOM      1  F   UNL     1      -3.490  -9.437   9.051  0.00  0.00    -0.205 F 
ATOM     20  C   UNL     1      -3.579 -10.370  13.073  0.00  0.00    +0.020 A 
ATOM     23  C   UNL     1      -2.357 -10.264  12.409  0.00  0.00    +0.014 A 
ATOM     24  C   UNL     1      -4.771 -10.160  12.379  0.00  0.00    +0.014 A 
ATOM     25  C   UNL     1      -2.328  -9.949  11.051  0.00  0.00    +0.039 A 
ATOM     26  C   UNL     1      -4.741  -9.845  11.021  0.00  0.00    +0.039 A 
ATOM     27  C   UNL     1      -3.519  -9.740  10.356  0.00  0.00    +0.123 A 
ENDBRANCH  17  20
ENDBRANCH  10  13
ENDBRANCH   7  10
TORSDOF 6
ENDMDL
