MODEL 1
REMARK VINA RESULT:      -7.7      0.000      0.000
REMARK  Name = 51137098
REMARK  4 active torsions:
REMARK  status: ('A' for Active; 'I' for Inactive)
REMARK    1  A    between atoms: N_2  and  C_10
REMARK    2  A    between atoms: C_5  and  C_9
REMARK    3  A    between atoms: C_10  and  C_11
REMARK    4  A    between atoms: C_18  and  C_23
REMARK                            x       y       z     vdW  Elec       q    Type
REMARK                         _______ _______ _______ _____ _____    ______ ____
ROOT
ATOM      2  N   UNL     1      12.075   4.143   1.658  0.00  0.00    -0.297 NA
ATOM      5  C   UNL     1      10.450   5.104   3.049  0.00  0.00    +0.070 C 
ATOM      6  C   UNL     1      11.282   6.215   2.385  0.00  0.00    +0.028 C 
ATOM      7  C   UNL     1      11.273   3.826   2.842  0.00  0.00    +0.096 C 
ATOM      8  C   UNL     1      12.533   5.516   1.870  0.00  0.00    +0.085 C 
ENDROOT
BRANCH   5   9
ATOM      3  N   UNL     1      10.239   4.371   5.440  0.00  0.00    -0.342 N 
ATOM      4  N   UNL     1       9.650   6.473   5.017  0.00  0.00    -0.232 NA
ATOM      9  C   UNL     1      10.101   5.353   4.498  0.00  0.00    +0.113 A 
ATOM     12  C   UNL     1       9.849   4.892   6.647  0.00  0.00    +0.066 A 
ATOM     13  C   UNL     1       9.486   6.205   6.357  0.00  0.00    +0.089 A 
ATOM     14  C   UNL     1       9.786   4.345   7.929  0.00  0.00    +0.031 A 
ATOM     15  C   UNL     1       9.030   7.035   7.395  0.00  0.00    +0.030 A 
ATOM     18  C   UNL     1       9.329   5.186   8.950  0.00  0.00    -0.048 A 
ATOM     19  C   UNL     1       8.957   6.507   8.690  0.00  0.00    +0.005 A 
ATOM     23  C   UNL     1       9.238   4.659  10.345  0.00  0.00    +0.044 C 
ATOM     24  H   UNL     1      10.569   3.429   5.279  0.00  0.00    +0.167 HD
ENDBRANCH   5   9
BRANCH   2  10
ATOM     10  C   UNL     1      13.179   3.214   1.469  0.00  0.00    +0.119 C 
BRANCH  10  11
ATOM      1  F   UNL     1      16.579   4.817  -2.728  0.00  0.00    -0.205 F 
ATOM     11  C   UNL     1      14.088   3.642   0.348  0.00  0.00    -0.033 A 
ATOM     16  C   UNL     1      13.574   3.816  -0.937  0.00  0.00    +0.008 A 
ATOM     17  C   UNL     1      15.443   3.865   0.594  0.00  0.00    +0.008 A 
ATOM     20  C   UNL     1      14.416   4.213  -1.976  0.00  0.00    +0.038 A 
ATOM     21  C   UNL     1      16.284   4.261  -0.445  0.00  0.00    +0.038 A 
ATOM     22  C   UNL     1      15.770   4.436  -1.730  0.00  0.00    +0.123 A 
ENDBRANCH  10  11
ENDBRANCH   2  10
TORSDOF 3
ENDMDL
MODEL 2
REMARK VINA RESULT:      -7.2     16.813     19.033
REMARK  Name = 51137098
REMARK  4 active torsions:
REMARK  status: ('A' for Active; 'I' for Inactive)
REMARK    1  A    between atoms: N_2  and  C_10
REMARK    2  A    between atoms: C_5  and  C_9
REMARK    3  A    between atoms: C_10  and  C_11
REMARK    4  A    between atoms: C_18  and  C_23
REMARK                            x       y       z     vdW  Elec       q    Type
REMARK                         _______ _______ _______ _____ _____    ______ ____
ROOT
ATOM      2  N   UNL     1      13.828   7.074  20.176  0.00  0.00    -0.297 NA
ATOM      5  C   UNL     1      12.606   8.244  21.801  0.00  0.00    +0.070 C 
ATOM      6  C   UNL     1      11.648   7.393  20.949  0.00  0.00    +0.028 C 
ATOM      7  C   UNL     1      13.910   8.288  20.992  0.00  0.00    +0.096 C 
ATOM      8  C   UNL     1      12.444   7.031  19.702  0.00  0.00    +0.085 C 
ENDROOT
BRANCH   5   9
ATOM      3  N   UNL     1      11.899   9.987  23.462  0.00  0.00    -0.342 N 
ATOM      4  N   UNL     1      11.771  10.580  21.323  0.00  0.00    -0.232 NA
ATOM      9  C   UNL     1      12.088   9.617  22.159  0.00  0.00    +0.113 A 
ATOM     12  C   UNL     1      11.427  11.275  23.466  0.00  0.00    +0.066 A 
ATOM     13  C   UNL     1      11.356  11.623  22.120  0.00  0.00    +0.089 A 
ATOM     14  C   UNL     1      11.069  12.139  24.502  0.00  0.00    +0.031 A 
ATOM     15  C   UNL     1      10.902  12.904  21.767  0.00  0.00    +0.030 A 
ATOM     18  C   UNL     1      10.619  13.411  24.132  0.00  0.00    -0.048 A 
ATOM     19  C   UNL     1      10.536  13.789  22.789  0.00  0.00    +0.005 A 
ATOM     23  C   UNL     1      10.220  14.382  25.194  0.00  0.00    +0.044 C 
ATOM     24  H   UNL     1      12.074   9.416  24.278  0.00  0.00    +0.167 HD
ENDBRANCH   5   9
BRANCH   2  10
ATOM     10  C   UNL     1      14.788   7.075  19.082  0.00  0.00    +0.119 C 
BRANCH  10  11
ATOM      1  F   UNL     1      19.933   5.557  20.809  0.00  0.00    -0.205 F 
ATOM     11  C   UNL     1      16.163   6.669  19.543  0.00  0.00    -0.033 A 
ATOM     16  C   UNL     1      16.664   7.154  20.752  0.00  0.00    +0.008 A 
ATOM     17  C   UNL     1      16.936   5.809  18.763  0.00  0.00    +0.008 A 
ATOM     20  C   UNL     1      17.938   6.778  21.179  0.00  0.00    +0.038 A 
ATOM     21  C   UNL     1      18.209   5.434  19.190  0.00  0.00    +0.038 A 
ATOM     22  C   UNL     1      18.709   5.918  20.399  0.00  0.00    +0.123 A 
ENDBRANCH  10  11
ENDBRANCH   2  10
TORSDOF 3
ENDMDL
MODEL 3
REMARK VINA RESULT:      -7.1     22.376     25.577
REMARK  Name = 51137098
REMARK  4 active torsions:
REMARK  status: ('A' for Active; 'I' for Inactive)
REMARK    1  A    between atoms: N_2  and  C_10
REMARK    2  A    between atoms: C_5  and  C_9
REMARK    3  A    between atoms: C_10  and  C_11
REMARK    4  A    between atoms: C_18  and  C_23
REMARK                            x       y       z     vdW  Elec       q    Type
REMARK                         _______ _______ _______ _____ _____    ______ ____
ROOT
ATOM      2  N   UNL     1      -2.167 -10.995  13.757  0.00  0.00    -0.297 NA
ATOM      5  C   UNL     1      -3.285 -10.255  15.681  0.00  0.00    +0.070 C 
ATOM      6  C   UNL     1      -1.887 -10.771  16.064  0.00  0.00    +0.028 C 
ATOM      7  C   UNL     1      -3.526 -10.799  14.267  0.00  0.00    +0.096 C 
ATOM      8  C   UNL     1      -1.430 -11.596  14.868  0.00  0.00    +0.085 C 
ENDROOT
BRANCH   5   9
ATOM      3  N   UNL     1      -5.590  -9.977  16.635  0.00  0.00    -0.342 N 
ATOM      4  N   UNL     1      -4.337 -11.553  17.577  0.00  0.00    -0.232 NA
ATOM      9  C   UNL     1      -4.384 -10.623  16.650  0.00  0.00    +0.113 A 
ATOM     12  C   UNL     1      -6.371 -10.527  17.618  0.00  0.00    +0.066 A 
ATOM     13  C   UNL     1      -5.567 -11.509  18.192  0.00  0.00    +0.089 A 
ATOM     14  C   UNL     1      -7.674 -10.259  18.042  0.00  0.00    +0.031 A 
ATOM     15  C   UNL     1      -6.075 -12.277  19.252  0.00  0.00    +0.030 A 
ATOM     18  C   UNL     1      -8.163 -11.034  19.099  0.00  0.00    -0.048 A 
ATOM     19  C   UNL     1      -7.380 -12.025  19.695  0.00  0.00    +0.005 A 
ATOM     23  C   UNL     1      -9.550 -10.795  19.599  0.00  0.00    +0.044 C 
ATOM     24  H   UNL     1      -5.860  -9.228  16.012  0.00  0.00    +0.167 HD
ENDBRANCH   5   9
BRANCH   2  10
ATOM     10  C   UNL     1      -2.137 -11.822  12.559  0.00  0.00    +0.119 C 
BRANCH  10  11
ATOM      1  F   UNL     1      -4.648  -9.290   8.196  0.00  0.00    -0.205 F 
ATOM     11  C   UNL     1      -2.808 -11.145  11.393  0.00  0.00    -0.033 A 
ATOM     16  C   UNL     1      -2.534  -9.807  11.113  0.00  0.00    +0.008 A 
ATOM     17  C   UNL     1      -3.703 -11.857  10.594  0.00  0.00    +0.008 A 
ATOM     20  C   UNL     1      -3.156  -9.180  10.032  0.00  0.00    +0.038 A 
ATOM     21  C   UNL     1      -4.325 -11.230   9.515  0.00  0.00    +0.038 A 
ATOM     22  C   UNL     1      -4.050  -9.892   9.234  0.00  0.00    +0.123 A 
ENDBRANCH  10  11
ENDBRANCH   2  10
TORSDOF 3
ENDMDL
MODEL 4
REMARK VINA RESULT:      -7.1      5.543      6.155
REMARK  Name = 51137098
REMARK  4 active torsions:
REMARK  status: ('A' for Active; 'I' for Inactive)
REMARK    1  A    between atoms: N_2  and  C_10
REMARK    2  A    between atoms: C_5  and  C_9
REMARK    3  A    between atoms: C_10  and  C_11
REMARK    4  A    between atoms: C_18  and  C_23
REMARK                            x       y       z     vdW  Elec       q    Type
REMARK                         _______ _______ _______ _____ _____    ______ ____
ROOT
ATOM      2  N   UNL     1      16.157   8.708   5.172  0.00  0.00    -0.297 NA
ATOM      5  C   UNL     1      14.082   7.618   5.113  0.00  0.00    +0.070 C 
ATOM      6  C   UNL     1      14.040   8.856   4.200  0.00  0.00    +0.028 C 
ATOM      7  C   UNL     1      15.324   7.824   5.990  0.00  0.00    +0.096 C 
ATOM      8  C   UNL     1      15.233   9.702   4.627  0.00  0.00    +0.085 C 
ENDROOT
BRANCH   5   9
ATOM      3  N   UNL     1      12.720   6.318   6.772  0.00  0.00    -0.342 N 
ATOM      4  N   UNL     1      11.734   8.112   5.906  0.00  0.00    -0.232 NA
ATOM      9  C   UNL     1      12.825   7.379   5.917  0.00  0.00    +0.113 A 
ATOM     12  C   UNL     1      11.478   6.368   7.351  0.00  0.00    +0.066 A 
ATOM     13  C   UNL     1      10.882   7.497   6.795  0.00  0.00    +0.089 A 
ATOM     14  C   UNL     1      10.844   5.549   8.286  0.00  0.00    +0.031 A 
ATOM     15  C   UNL     1       9.577   7.844   7.182  0.00  0.00    +0.030 A 
ATOM     18  C   UNL     1       9.546   5.909   8.660  0.00  0.00    -0.048 A 
ATOM     19  C   UNL     1       8.921   7.035   8.119  0.00  0.00    +0.005 A 
ATOM     23  C   UNL     1       8.813   5.072   9.657  0.00  0.00    +0.044 C 
ATOM     24  H   UNL     1      13.429   5.619   6.948  0.00  0.00    +0.167 HD
ENDBRANCH   5   9
BRANCH   2  10
ATOM     10  C   UNL     1      17.238   9.315   5.935  0.00  0.00    +0.119 C 
BRANCH  10  11
ATOM      1  F   UNL     1      22.165   6.740   5.018  0.00  0.00    -0.205 F 
ATOM     11  C   UNL     1      18.555   8.627   5.689  0.00  0.00    -0.033 A 
ATOM     16  C   UNL     1      19.509   8.568   6.704  0.00  0.00    +0.008 A 
ATOM     17  C   UNL     1      18.819   8.048   4.448  0.00  0.00    +0.008 A 
ATOM     20  C   UNL     1      20.730   7.930   6.477  0.00  0.00    +0.038 A 
ATOM     21  C   UNL     1      20.039   7.411   4.221  0.00  0.00    +0.038 A 
ATOM     22  C   UNL     1      20.994   7.352   5.236  0.00  0.00    +0.123 A 
ENDBRANCH  10  11
ENDBRANCH   2  10
TORSDOF 3
ENDMDL
MODEL 5
REMARK VINA RESULT:      -7.0     27.503     32.109
REMARK  Name = 51137098
REMARK  4 active torsions:
REMARK  status: ('A' for Active; 'I' for Inactive)
REMARK    1  A    between atoms: N_2  and  C_10
REMARK    2  A    between atoms: C_5  and  C_9
REMARK    3  A    between atoms: C_10  and  C_11
REMARK    4  A    between atoms: C_18  and  C_23
REMARK                            x       y       z     vdW  Elec       q    Type
REMARK                         _______ _______ _______ _____ _____    ______ ____
ROOT
ATOM      2  N   UNL     1     -13.161   6.648  20.938  0.00  0.00    -0.297 NA
ATOM      5  C   UNL     1     -14.719   5.078  21.717  0.00  0.00    +0.070 C 
ATOM      6  C   UNL     1     -15.459   6.260  21.066  0.00  0.00    +0.028 C 
ATOM      7  C   UNL     1     -13.292   5.593  21.946  0.00  0.00    +0.096 C 
ATOM      8  C   UNL     1     -14.428   7.377  20.989  0.00  0.00    +0.085 C 
ENDROOT
BRANCH   5   9
ATOM      3  N   UNL     1     -15.638   3.213  23.122  0.00  0.00    -0.342 N 
ATOM      4  N   UNL     1     -15.717   5.239  24.034  0.00  0.00    -0.232 NA
ATOM      9  C   UNL     1     -15.362   4.544  22.976  0.00  0.00    +0.113 A 
ATOM     12  C   UNL     1     -16.211   3.037  24.356  0.00  0.00    +0.066 A 
ATOM     13  C   UNL     1     -16.249   4.316  24.905  0.00  0.00    +0.089 A 
ATOM     14  C   UNL     1     -16.684   1.904  25.019  0.00  0.00    +0.031 A 
ATOM     15  C   UNL     1     -16.788   4.494  26.190  0.00  0.00    +0.030 A 
ATOM     18  C   UNL     1     -17.217   2.100  26.297  0.00  0.00    -0.048 A 
ATOM     19  C   UNL     1     -17.270   3.370  26.874  0.00  0.00    +0.005 A 
ATOM     23  C   UNL     1     -17.741   0.926  27.058  0.00  0.00    +0.044 C 
ATOM     24  H   UNL     1     -15.455   2.485  22.444  0.00  0.00    +0.167 HD
ENDBRANCH   5   9
BRANCH   2  10
ATOM     10  C   UNL     1     -12.014   7.510  21.183  0.00  0.00    +0.119 C 
BRANCH  10  11
ATOM      1  F   UNL     1      -9.812   9.484  16.387  0.00  0.00    -0.205 F 
ATOM     11  C   UNL     1     -11.425   8.038  19.902  0.00  0.00    -0.033 A 
ATOM     16  C   UNL     1     -11.459   7.257  18.746  0.00  0.00    +0.008 A 
ATOM     17  C   UNL     1     -10.847   9.307  19.869  0.00  0.00    +0.008 A 
ATOM     20  C   UNL     1     -10.914   7.746  17.558  0.00  0.00    +0.038 A 
ATOM     21  C   UNL     1     -10.302   9.795  18.682  0.00  0.00    +0.038 A 
ATOM     22  C   UNL     1     -10.336   9.015  17.527  0.00  0.00    +0.123 A 
ENDBRANCH  10  11
ENDBRANCH   2  10
TORSDOF 3
ENDMDL
MODEL 6
REMARK VINA RESULT:      -7.0     29.159     33.631
REMARK  Name = 51137098
REMARK  4 active torsions:
REMARK  status: ('A' for Active; 'I' for Inactive)
REMARK    1  A    between atoms: N_2  and  C_10
REMARK    2  A    between atoms: C_5  and  C_9
REMARK    3  A    between atoms: C_10  and  C_11
REMARK    4  A    between atoms: C_18  and  C_23
REMARK                            x       y       z     vdW  Elec       q    Type
REMARK                         _______ _______ _______ _____ _____    ______ ____
ROOT
ATOM      2  N   UNL     1     -14.957   5.971  22.013  0.00  0.00    -0.297 NA
ATOM      5  C   UNL     1     -15.751   4.028  23.059  0.00  0.00    +0.070 C 
ATOM      6  C   UNL     1     -16.938   4.841  22.514  0.00  0.00    +0.028 C 
ATOM      7  C   UNL     1     -14.570   5.008  23.046  0.00  0.00    +0.096 C 
ATOM      8  C   UNL     1     -16.376   6.232  22.253  0.00  0.00    +0.085 C 
ENDROOT
BRANCH   5   9
ATOM      3  N   UNL     1     -15.771   4.101  25.567  0.00  0.00    -0.342 N 
ATOM      4  N   UNL     1     -16.389   2.172  24.651  0.00  0.00    -0.232 NA
ATOM      9  C   UNL     1     -15.981   3.399  24.413  0.00  0.00    +0.113 A 
ATOM     12  C   UNL     1     -16.062   3.272  26.620  0.00  0.00    +0.066 A 
ATOM     13  C   UNL     1     -16.445   2.075  26.023  0.00  0.00    +0.089 A 
ATOM     14  C   UNL     1     -16.025   3.462  28.002  0.00  0.00    +0.031 A 
ATOM     15  C   UNL     1     -16.816   0.991  26.837  0.00  0.00    +0.030 A 
ATOM     18  C   UNL     1     -16.397   2.373  28.797  0.00  0.00    -0.048 A 
ATOM     19  C   UNL     1     -16.786   1.158  28.227  0.00  0.00    +0.005 A 
ATOM     23  C   UNL     1     -16.378   2.513  30.284  0.00  0.00    +0.044 C 
ATOM     24  H   UNL     1     -15.458   5.060  25.636  0.00  0.00    +0.167 HD
ENDBRANCH   5   9
BRANCH   2  10
ATOM     10  C   UNL     1     -14.155   7.184  22.056  0.00  0.00    +0.119 C 
BRANCH  10  11
ATOM      1  F   UNL     1     -11.233   7.939  17.297  0.00  0.00    -0.205 F 
ATOM     11  C   UNL     1     -13.375   7.386  20.784  0.00  0.00    -0.033 A 
ATOM     16  C   UNL     1     -12.003   7.136  20.762  0.00  0.00    +0.008 A 
ATOM     17  C   UNL     1     -14.023   7.824  19.629  0.00  0.00    +0.008 A 
ATOM     20  C   UNL     1     -11.279   7.322  19.583  0.00  0.00    +0.038 A 
ATOM     21  C   UNL     1     -13.299   8.011  18.452  0.00  0.00    +0.038 A 
ATOM     22  C   UNL     1     -11.928   7.760  18.429  0.00  0.00    +0.123 A 
ENDBRANCH  10  11
ENDBRANCH   2  10
TORSDOF 3
ENDMDL
MODEL 7
REMARK VINA RESULT:      -6.9     14.706     18.548
REMARK  Name = 51137098
REMARK  4 active torsions:
REMARK  status: ('A' for Active; 'I' for Inactive)
REMARK    1  A    between atoms: N_2  and  C_10
REMARK    2  A    between atoms: C_5  and  C_9
REMARK    3  A    between atoms: C_10  and  C_11
REMARK    4  A    between atoms: C_18  and  C_23
REMARK                            x       y       z     vdW  Elec       q    Type
REMARK                         _______ _______ _______ _____ _____    ______ ____
ROOT
ATOM      2  N   UNL     1      13.008   7.329  20.407  0.00  0.00    -0.297 NA
ATOM      5  C   UNL     1      11.640   8.490  21.917  0.00  0.00    +0.070 C 
ATOM      6  C   UNL     1      10.854   8.203  20.626  0.00  0.00    +0.028 C 
ATOM      7  C   UNL     1      13.108   8.253  21.539  0.00  0.00    +0.096 C 
ATOM      8  C   UNL     1      11.913   7.852  19.590  0.00  0.00    +0.085 C 
ENDROOT
BRANCH   5   9
ATOM      3  N   UNL     1      11.350  10.037  23.871  0.00  0.00    -0.342 N 
ATOM      4  N   UNL     1      11.218  10.981  21.863  0.00  0.00    -0.232 NA
ATOM      9  C   UNL     1      11.399   9.855  22.517  0.00  0.00    +0.113 A 
ATOM     12  C   UNL     1      11.120  11.369  24.106  0.00  0.00    +0.066 A 
ATOM     13  C   UNL     1      11.042  11.936  22.837  0.00  0.00    +0.089 A 
ATOM     14  C   UNL     1      10.979  12.104  25.284  0.00  0.00    +0.031 A 
ATOM     15  C   UNL     1      10.809  13.317  22.717  0.00  0.00    +0.030 A 
ATOM     18  C   UNL     1      10.748  13.476  25.146  0.00  0.00    -0.048 A 
ATOM     19  C   UNL     1      10.664  14.074  23.886  0.00  0.00    +0.005 A 
ATOM     23  C   UNL     1      10.589  14.318  26.369  0.00  0.00    +0.044 C 
ATOM     24  H   UNL     1      11.461   9.321  24.576  0.00  0.00    +0.167 HD
ENDBRANCH   5   9
BRANCH   2  10
ATOM     10  C   UNL     1      14.254   7.225  19.663  0.00  0.00    +0.119 C 
BRANCH  10  11
ATOM      1  F   UNL     1      14.396  10.778  15.293  0.00  0.00    -0.205 F 
ATOM     11  C   UNL     1      14.292   8.174  18.495  0.00  0.00    -0.033 A 
ATOM     16  C   UNL     1      14.591   9.521  18.701  0.00  0.00    +0.008 A 
ATOM     17  C   UNL     1      14.028   7.707  17.207  0.00  0.00    +0.008 A 
ATOM     20  C   UNL     1      14.626  10.401  17.619  0.00  0.00    +0.038 A 
ATOM     21  C   UNL     1      14.063   8.587  16.126  0.00  0.00    +0.038 A 
ATOM     22  C   UNL     1      14.363   9.933  16.332  0.00  0.00    +0.123 A 
ENDBRANCH  10  11
ENDBRANCH   2  10
TORSDOF 3
ENDMDL
MODEL 8
REMARK VINA RESULT:      -6.7     31.646     36.651
REMARK  Name = 51137098
REMARK  4 active torsions:
REMARK  status: ('A' for Active; 'I' for Inactive)
REMARK    1  A    between atoms: N_2  and  C_10
REMARK    2  A    between atoms: C_5  and  C_9
REMARK    3  A    between atoms: C_10  and  C_11
REMARK    4  A    between atoms: C_18  and  C_23
REMARK                            x       y       z     vdW  Elec       q    Type
REMARK                         _______ _______ _______ _____ _____    ______ ____
ROOT
ATOM      2  N   UNL     1     -16.678   1.810  28.009  0.00  0.00    -0.297 NA
ATOM      5  C   UNL     1     -17.093   3.273  26.224  0.00  0.00    +0.070 C 
ATOM      6  C   UNL     1     -17.790   1.927  25.960  0.00  0.00    +0.028 C 
ATOM      7  C   UNL     1     -16.090   2.977  27.348  0.00  0.00    +0.096 C 
ATOM      8  C   UNL     1     -17.129   0.946  26.919  0.00  0.00    +0.085 C 
ENDROOT
BRANCH   5   9
ATOM      3  N   UNL     1     -15.104   4.135  24.961  0.00  0.00    -0.342 N 
ATOM      4  N   UNL     1     -17.057   4.288  23.910  0.00  0.00    -0.232 NA
ATOM      9  C   UNL     1     -16.450   3.903  25.011  0.00  0.00    +0.113 A 
ATOM     12  C   UNL     1     -14.823   4.709  23.747  0.00  0.00    +0.066 A 
ATOM     13  C   UNL     1     -16.058   4.793  23.110  0.00  0.00    +0.089 A 
ATOM     14  C   UNL     1     -13.631   5.147  23.169  0.00  0.00    +0.031 A 
ATOM     15  C   UNL     1     -16.127   5.344  21.819  0.00  0.00    +0.030 A 
ATOM     18  C   UNL     1     -13.718   5.693  21.884  0.00  0.00    -0.048 A 
ATOM     19  C   UNL     1     -14.943   5.791  21.220  0.00  0.00    +0.005 A 
ATOM     23  C   UNL     1     -12.477   6.180  21.211  0.00  0.00    +0.044 C 
ATOM     24  H   UNL     1     -14.432   3.924  25.686  0.00  0.00    +0.167 HD
ENDBRANCH   5   9
BRANCH   2  10
ATOM     10  C   UNL     1     -15.736   1.141  28.894  0.00  0.00    +0.119 C 
BRANCH  10  11
ATOM      1  F   UNL     1     -13.694   4.632  32.818  0.00  0.00    -0.205 F 
ATOM     11  C   UNL     1     -15.191   2.074  29.943  0.00  0.00    -0.033 A 
ATOM     16  C   UNL     1     -13.813   2.173  30.138  0.00  0.00    +0.008 A 
ATOM     17  C   UNL     1     -16.062   2.838  30.719  0.00  0.00    +0.008 A 
ATOM     20  C   UNL     1     -13.307   3.038  31.110  0.00  0.00    +0.038 A 
ATOM     21  C   UNL     1     -15.557   3.702  31.690  0.00  0.00    +0.038 A 
ATOM     22  C   UNL     1     -14.179   3.802  31.885  0.00  0.00    +0.123 A 
ENDBRANCH  10  11
ENDBRANCH   2  10
TORSDOF 3
ENDMDL
MODEL 9
REMARK VINA RESULT:      -6.4     25.156     28.315
REMARK  Name = 51137098
REMARK  4 active torsions:
REMARK  status: ('A' for Active; 'I' for Inactive)
REMARK    1  A    between atoms: N_2  and  C_10
REMARK    2  A    between atoms: C_5  and  C_9
REMARK    3  A    between atoms: C_10  and  C_11
REMARK    4  A    between atoms: C_18  and  C_23
REMARK                            x       y       z     vdW  Elec       q    Type
REMARK                         _______ _______ _______ _____ _____    ______ ____
ROOT
ATOM      2  N   UNL     1     -11.215   8.987  18.173  0.00  0.00    -0.297 NA
ATOM      5  C   UNL     1     -10.887  10.728  16.636  0.00  0.00    +0.070 C 
ATOM      6  C   UNL     1     -10.638   9.376  15.944  0.00  0.00    +0.028 C 
ATOM      7  C   UNL     1     -10.859  10.407  18.137  0.00  0.00    +0.096 C 
ATOM      8  C   UNL     1     -10.455   8.379  17.081  0.00  0.00    +0.085 C 
ENDROOT
BRANCH   5   9
ATOM      3  N   UNL     1      -8.800  12.077  16.987  0.00  0.00    -0.342 N 
ATOM      4  N   UNL     1     -10.027  12.634  15.219  0.00  0.00    -0.232 NA
ATOM      9  C   UNL     1      -9.924  11.826  16.250  0.00  0.00    +0.113 A 
ATOM     12  C   UNL     1      -8.134  13.118  16.393  0.00  0.00    +0.066 A 
ATOM     13  C   UNL     1      -8.919  13.448  15.291  0.00  0.00    +0.089 A 
ATOM     14  C   UNL     1      -6.947  13.778  16.714  0.00  0.00    +0.031 A 
ATOM     15  C   UNL     1      -8.512  14.497  14.450  0.00  0.00    +0.030 A 
ATOM     18  C   UNL     1      -6.558  14.820  15.866  0.00  0.00    -0.048 A 
ATOM     19  C   UNL     1      -7.325  15.175  14.753  0.00  0.00    +0.005 A 
ATOM     23  C   UNL     1      -5.297  15.566  16.156  0.00  0.00    +0.044 C 
ATOM     24  H   UNL     1      -8.509  11.585  17.821  0.00  0.00    +0.167 HD
ENDBRANCH   5   9
BRANCH   2  10
ATOM     10  C   UNL     1     -10.923   8.374  19.460  0.00  0.00    +0.119 C 
BRANCH  10  11
ATOM      1  F   UNL     1     -15.402   5.686  21.574  0.00  0.00    -0.205 F 
ATOM     11  C   UNL     1     -12.120   7.656  20.024  0.00  0.00    -0.033 A 
ATOM     16  C   UNL     1     -11.950   6.700  21.026  0.00  0.00    +0.008 A 
ATOM     17  C   UNL     1     -13.398   7.946  19.547  0.00  0.00    +0.008 A 
ATOM     20  C   UNL     1     -13.060   6.034  21.549  0.00  0.00    +0.038 A 
ATOM     21  C   UNL     1     -14.506   7.280  20.069  0.00  0.00    +0.038 A 
ATOM     22  C   UNL     1     -14.337   6.325  21.071  0.00  0.00    +0.123 A 
ENDBRANCH  10  11
ENDBRANCH   2  10
TORSDOF 3
ENDMDL
MODEL 10
REMARK VINA RESULT:      -6.4     13.875     15.598
REMARK  Name = 51137098
REMARK  4 active torsions:
REMARK  status: ('A' for Active; 'I' for Inactive)
REMARK    1  A    between atoms: N_2  and  C_10
REMARK    2  A    between atoms: C_5  and  C_9
REMARK    3  A    between atoms: C_10  and  C_11
REMARK    4  A    between atoms: C_18  and  C_23
REMARK                            x       y       z     vdW  Elec       q    Type
REMARK                         _______ _______ _______ _____ _____    ______ ____
ROOT
ATOM      2  N   UNL     1      -1.573  10.185   5.691  0.00  0.00    -0.297 NA
ATOM      5  C   UNL     1      -0.785  12.002   6.945  0.00  0.00    +0.070 C 
ATOM      6  C   UNL     1      -0.490  12.239   5.454  0.00  0.00    +0.028 C 
ATOM      7  C   UNL     1      -1.113  10.507   7.044  0.00  0.00    +0.096 C 
ATOM      8  C   UNL     1      -0.638  10.871   4.801  0.00  0.00    +0.085 C 
ENDROOT
BRANCH   5   9
ATOM      3  N   UNL     1       1.631  12.391   7.502  0.00  0.00    -0.342 N 
ATOM      4  N   UNL     1       0.178  12.862   9.118  0.00  0.00    -0.232 NA
ATOM      9  C   UNL     1       0.319  12.427   7.885  0.00  0.00    +0.113 A 
ATOM     12  C   UNL     1       2.387  12.832   8.559  0.00  0.00    +0.066 A 
ATOM     13  C   UNL     1       1.457  13.119   9.554  0.00  0.00    +0.089 A 
ATOM     14  C   UNL     1       3.763  12.999   8.723  0.00  0.00    +0.031 A 
ATOM     15  C   UNL     1       1.909  13.602  10.794  0.00  0.00    +0.030 A 
ATOM     18  C   UNL     1       4.194  13.480   9.963  0.00  0.00    -0.048 A 
ATOM     19  C   UNL     1       3.286  13.777  10.982  0.00  0.00    +0.005 A 
ATOM     23  C   UNL     1       5.655  13.681  10.201  0.00  0.00    +0.044 C 
ATOM     24  H   UNL     1       1.984  12.094   6.603  0.00  0.00    +0.167 HD
ENDBRANCH   5   9
BRANCH   2  10
ATOM     10  C   UNL     1      -1.620   8.750   5.447  0.00  0.00    +0.119 C 
BRANCH  10  11
ATOM      1  F   UNL     1      -6.802   7.024   4.062  0.00  0.00    -0.205 F 
ATOM     11  C   UNL     1      -3.005   8.289   5.078  0.00  0.00    -0.033 A 
ATOM     16  C   UNL     1      -3.884   9.165   4.442  0.00  0.00    +0.008 A 
ATOM     17  C   UNL     1      -3.407   6.986   5.369  0.00  0.00    +0.008 A 
ATOM     20  C   UNL     1      -5.168   8.738   4.099  0.00  0.00    +0.038 A 
ATOM     21  C   UNL     1      -4.690   6.559   5.027  0.00  0.00    +0.038 A 
ATOM     22  C   UNL     1      -5.569   7.435   4.391  0.00  0.00    +0.123 A 
ENDBRANCH  10  11
ENDBRANCH   2  10
TORSDOF 3
ENDMDL
