REMARK  Name = 45784358
REMARK  7 active torsions:
REMARK  status: ('A' for Active; 'I' for Inactive)
REMARK    1  A    between atoms: O_2  and  C_25
REMARK    2  A    between atoms: O_2  and  C_26
REMARK    3  A    between atoms: N_4  and  C_10
REMARK    4  A    between atoms: C_6  and  C_11
REMARK    5  A    between atoms: C_10  and  C_12
REMARK    6  A    between atoms: C_15  and  C_20
REMARK    7  A    between atoms: C_17  and  C_25
REMARK                            x       y       z     vdW  Elec       q    Type
REMARK                         _______ _______ _______ _____ _____    ______ ____
ROOT
ATOM      4  N   UNL     1      -2.220  -0.511  -0.033  0.00  0.00    -0.297 NA
ATOM      6  C   UNL     1      -0.213  -1.611   0.480  0.00  0.00    +0.090 C 
ATOM      7  C   UNL     1      -0.751  -0.906   1.738  0.00  0.00    +0.029 C 
ATOM      8  C   UNL     1      -0.993  -0.980  -0.681  0.00  0.00    +0.097 C 
ATOM      9  C   UNL     1      -1.775   0.096   1.222  0.00  0.00    +0.085 C 
ENDROOT
BRANCH   6  11
ATOM      1  O   UNL     1       1.804  -0.273   0.197  0.00  0.00    -0.439 OA
ATOM      5  N   UNL     1       2.154  -2.512   0.224  0.00  0.00    -0.213 NA
ATOM     11  C   UNL     1       1.284  -1.528   0.298  0.00  0.00    +0.201 A 
ATOM     13  C   UNL     1       3.143  -0.491   0.044  0.00  0.00    +0.169 A 
ATOM     14  C   UNL     1       3.353  -1.863   0.061  0.00  0.00    +0.110 A 
ATOM     17  C   UNL     1       4.144   0.461  -0.105  0.00  0.00    +0.103 A 
ATOM     18  C   UNL     1       4.661  -2.349  -0.079  0.00  0.00    +0.031 A 
ATOM     23  C   UNL     1       5.442  -0.041  -0.244  0.00  0.00    +0.019 A 
ATOM     24  C   UNL     1       5.698  -1.418  -0.232  0.00  0.00    +0.003 A 
BRANCH  17  25
ATOM      3  O   UNL     1       2.735   2.382   0.004  0.00  0.00    -0.245 OA
ATOM     25  C   UNL     1       3.865   1.883  -0.115  0.00  0.00    +0.343 C 
BRANCH  25   2
ATOM      2  O   UNL     1       5.008   2.623  -0.273  0.00  0.00    -0.464 OA
ATOM     26  C   UNL     1       4.862   4.048  -0.299  0.00  0.00    +0.280 C 
ENDBRANCH  25   2
ENDBRANCH  17  25
ENDBRANCH   6  11
BRANCH   4  10
ATOM     10  C   UNL     1      -2.966   0.422  -0.865  0.00  0.00    +0.119 C 
BRANCH  10  12
ATOM     12  C   UNL     1      -4.395   0.558  -0.412  0.00  0.00    -0.030 A 
ATOM     15  C   UNL     1      -5.334  -0.435  -0.691  0.00  0.00    -0.046 A 
ATOM     16  C   UNL     1      -4.775   1.698   0.297  0.00  0.00    +0.005 A 
ATOM     19  C   UNL     1      -6.653  -0.288  -0.261  0.00  0.00    +0.003 A 
ATOM     20  C   UNL     1      -4.952  -1.664  -1.448  0.00  0.00    +0.044 C 
ATOM     21  C   UNL     1      -6.094   1.845   0.727  0.00  0.00    +0.000 A 
ATOM     22  C   UNL     1      -7.033   0.852   0.448  0.00  0.00    +0.000 A 
ENDBRANCH  10  12
ENDBRANCH   4  10
TORSDOF 5
