MODEL 1
REMARK VINA RESULT:      -7.1      0.000      0.000
REMARK  Name = 11941639
REMARK  8 active torsions:
REMARK  status: ('A' for Active; 'I' for Inactive)
REMARK    1  A    between atoms: N_4  and  C_11
REMARK    2  A    between atoms: N_5  and  C_12
REMARK    3  A    between atoms: N_7  and  C_21
REMARK    4  A    between atoms: C_17  and  C_18
REMARK    5  A    between atoms: C_17  and  C_22
REMARK    6  A    between atoms: C_17  and  C_23
REMARK    7  A    between atoms: C_17  and  C_24
REMARK    8  A    between atoms: C_21  and  C_25
REMARK                            x       y       z     vdW  Elec       q    Type
REMARK                         _______ _______ _______ _____ _____    ______ ____
ROOT
ATOM      1  O   UNL     1     -16.377   4.131  22.127  0.00  0.00    -0.370 OA
ATOM      2  O   UNL     1     -16.363   6.607  24.025  0.00  0.00    -0.370 OA
ATOM      9  C   UNL     1     -15.336   5.932  23.281  0.00  0.00    +0.171 C 
ATOM     10  C   UNL     1     -15.649   4.449  23.324  0.00  0.00    +0.171 C 
ATOM     11  C   UNL     1     -15.431   6.287  21.815  0.00  0.00    +0.130 C 
ATOM     12  C   UNL     1     -16.538   4.296  24.537  0.00  0.00    +0.131 C 
ATOM     13  C   UNL     1     -16.464   5.301  21.300  0.00  0.00    +0.185 C 
ATOM     14  C   UNL     1     -17.258   5.632  24.582  0.00  0.00    +0.185 C 
ENDROOT
BRANCH  11   4
ATOM      4  N   UNL     1     -14.157   6.063  21.168  0.00  0.00    -0.306 N 
ATOM      6  N   UNL     1     -13.584   8.336  21.261  0.00  0.00    -0.219 NA
ATOM      8  N   UNL     1     -12.085   6.720  20.284  0.00  0.00    -0.223 NA
ATOM     15  C   UNL     1     -13.248   7.069  20.896  0.00  0.00    +0.216 A 
ATOM     18  C   UNL     1     -12.675   9.293  20.982  0.00  0.00    +0.052 A 
ATOM     19  C   UNL     1     -11.465   9.045  20.364  0.00  0.00    +0.043 A 
ATOM     20  C   UNL     1     -11.223   7.727  20.034  0.00  0.00    +0.116 A 
ATOM     31  H   UNL     1     -13.875   5.116  20.940  0.00  0.00    +0.149 HD
BRANCH  18  17
ATOM     17  C   UNL     1     -13.026  10.688  21.375  0.00  0.00    +0.005 C 
ATOM     22  C   UNL     1     -12.419  11.053  22.765  0.00  0.00    +0.017 C 
ATOM     23  C   UNL     1     -14.558  10.984  21.499  0.00  0.00    +0.017 C 
ATOM     24  C   UNL     1     -12.486  11.721  20.340  0.00  0.00    +0.017 C 
ENDBRANCH  18  17
ENDBRANCH  11   4
BRANCH  12   5
ATOM      3  O   UNL     1     -17.313   2.780  26.867  0.00  0.00    -0.253 OA
ATOM      5  N   UNL     1     -15.759   4.080  25.732  0.00  0.00    -0.292 N 
ATOM      7  N   UNL     1     -15.263   3.284  27.833  0.00  0.00    -0.295 N 
ATOM     16  C   UNL     1     -16.212   3.331  26.815  0.00  0.00    +0.300 C 
ATOM     32  H   UNL     1     -14.809   4.438  25.762  0.00  0.00    +0.151 HD
ATOM     33  H   UNL     1     -14.373   3.751  27.692  0.00  0.00    +0.151 HD
BRANCH   7  21
ATOM     21  C   UNL     1     -15.478   2.573  29.071  0.00  0.00    +0.141 C 
BRANCH  21  25
ATOM     25  C   UNL     1     -14.857   3.280  30.241  0.00  0.00    -0.030 A 
ATOM     26  C   UNL     1     -15.495   4.383  30.794  0.00  0.00    +0.005 A 
ATOM     27  C   UNL     1     -13.649   2.825  30.758  0.00  0.00    +0.005 A 
ATOM     28  C   UNL     1     -14.919   5.042  31.880  0.00  0.00    +0.000 A 
ATOM     29  C   UNL     1     -13.073   3.482  31.846  0.00  0.00    +0.000 A 
ATOM     30  C   UNL     1     -13.708   4.590  32.406  0.00  0.00    +0.000 A 
ENDBRANCH  21  25
ENDBRANCH   7  21
ENDBRANCH  12   5
TORSDOF 5
ENDMDL
MODEL 2
REMARK VINA RESULT:      -7.1      1.962      9.999
REMARK  Name = 11941639
REMARK  8 active torsions:
REMARK  status: ('A' for Active; 'I' for Inactive)
REMARK    1  A    between atoms: N_4  and  C_11
REMARK    2  A    between atoms: N_5  and  C_12
REMARK    3  A    between atoms: N_7  and  C_21
REMARK    4  A    between atoms: C_17  and  C_18
REMARK    5  A    between atoms: C_17  and  C_22
REMARK    6  A    between atoms: C_17  and  C_23
REMARK    7  A    between atoms: C_17  and  C_24
REMARK    8  A    between atoms: C_21  and  C_25
REMARK                            x       y       z     vdW  Elec       q    Type
REMARK                         _______ _______ _______ _____ _____    ______ ____
ROOT
ATOM      1  O   UNL     1     -18.707   3.605  26.165  0.00  0.00    -0.370 OA
ATOM      2  O   UNL     1     -15.715   2.768  26.448  0.00  0.00    -0.370 OA
ATOM      9  C   UNL     1     -16.548   3.695  27.163  0.00  0.00    +0.171 C 
ATOM     10  C   UNL     1     -17.473   4.342  26.150  0.00  0.00    +0.171 C 
ATOM     11  C   UNL     1     -17.480   2.953  28.092  0.00  0.00    +0.130 C 
ATOM     12  C   UNL     1     -16.763   4.150  24.829  0.00  0.00    +0.131 C 
ATOM     13  C   UNL     1     -18.642   2.596  27.184  0.00  0.00    +0.185 C 
ATOM     14  C   UNL     1     -16.018   2.845  25.047  0.00  0.00    +0.185 C 
ENDROOT
BRANCH  11   4
ATOM      4  N   UNL     1     -17.925   3.832  29.151  0.00  0.00    -0.306 N 
ATOM      6  N   UNL     1     -16.294   3.042  30.642  0.00  0.00    -0.219 NA
ATOM      8  N   UNL     1     -17.857   4.752  31.309  0.00  0.00    -0.223 NA
ATOM     15  C   UNL     1     -17.342   3.877  30.405  0.00  0.00    +0.216 A 
ATOM     18  C   UNL     1     -15.749   3.113  31.874  0.00  0.00    +0.052 A 
ATOM     19  C   UNL     1     -16.196   3.965  32.863  0.00  0.00    +0.043 A 
ATOM     20  C   UNL     1     -17.264   4.769  32.521  0.00  0.00    +0.116 A 
ATOM     31  H   UNL     1     -18.670   4.495  28.968  0.00  0.00    +0.149 HD
BRANCH  18  17
ATOM     17  C   UNL     1     -14.599   2.204  32.152  0.00  0.00    +0.005 C 
ATOM     22  C   UNL     1     -13.238   2.943  31.967  0.00  0.00    +0.017 C 
ATOM     23  C   UNL     1     -14.511   0.935  31.239  0.00  0.00    +0.017 C 
ATOM     24  C   UNL     1     -14.646   1.663  33.613  0.00  0.00    +0.017 C 
ENDBRANCH  18  17
ENDBRANCH  11   4
BRANCH  12   5
ATOM      3  O   UNL     1     -16.904   6.048  22.659  0.00  0.00    -0.253 OA
ATOM      5  N   UNL     1     -15.851   5.236  24.563  0.00  0.00    -0.292 N 
ATOM      7  N   UNL     1     -14.978   7.061  23.467  0.00  0.00    -0.295 N 
ATOM     16  C   UNL     1     -15.994   6.109  23.487  0.00  0.00    +0.300 C 
ATOM     32  H   UNL     1     -15.103   5.413  25.227  0.00  0.00    +0.151 HD
ATOM     33  H   UNL     1     -14.282   7.047  24.206  0.00  0.00    +0.151 HD
BRANCH   7  21
ATOM     21  C   UNL     1     -14.888   8.088  22.457  0.00  0.00    +0.141 C 
BRANCH  21  25
ATOM     25  C   UNL     1     -13.624   7.976  21.653  0.00  0.00    -0.030 A 
ATOM     26  C   UNL     1     -13.004   9.128  21.185  0.00  0.00    +0.005 A 
ATOM     27  C   UNL     1     -13.088   6.722  21.386  0.00  0.00    +0.005 A 
ATOM     28  C   UNL     1     -11.830   9.025  20.438  0.00  0.00    +0.000 A 
ATOM     29  C   UNL     1     -11.913   6.619  20.640  0.00  0.00    +0.000 A 
ATOM     30  C   UNL     1     -11.285   7.770  20.166  0.00  0.00    +0.000 A 
ENDBRANCH  21  25
ENDBRANCH   7  21
ENDBRANCH  12   5
TORSDOF 5
ENDMDL
MODEL 3
REMARK VINA RESULT:      -7.1     20.056     23.151
REMARK  Name = 11941639
REMARK  8 active torsions:
REMARK  status: ('A' for Active; 'I' for Inactive)
REMARK    1  A    between atoms: N_4  and  C_11
REMARK    2  A    between atoms: N_5  and  C_12
REMARK    3  A    between atoms: N_7  and  C_21
REMARK    4  A    between atoms: C_17  and  C_18
REMARK    5  A    between atoms: C_17  and  C_22
REMARK    6  A    between atoms: C_17  and  C_23
REMARK    7  A    between atoms: C_17  and  C_24
REMARK    8  A    between atoms: C_21  and  C_25
REMARK                            x       y       z     vdW  Elec       q    Type
REMARK                         _______ _______ _______ _____ _____    ______ ____
ROOT
ATOM      1  O   UNL     1      -4.714 -11.678  19.568  0.00  0.00    -0.370 OA
ATOM      2  O   UNL     1      -6.295 -10.609  17.100  0.00  0.00    -0.370 OA
ATOM      9  C   UNL     1      -6.307 -11.859  17.810  0.00  0.00    +0.171 C 
ATOM     10  C   UNL     1      -4.878 -12.155  18.223  0.00  0.00    +0.171 C 
ATOM     11  C   UNL     1      -7.046 -11.711  19.120  0.00  0.00    +0.130 C 
ATOM     12  C   UNL     1      -4.042 -11.335  17.268  0.00  0.00    +0.131 C 
ATOM     13  C   UNL     1      -5.971 -11.181  20.051  0.00  0.00    +0.185 C 
ATOM     14  C   UNL     1      -4.942 -10.144  16.989  0.00  0.00    +0.185 C 
ENDROOT
BRANCH  11   4
ATOM      4  N   UNL     1      -7.511 -13.003  19.574  0.00  0.00    -0.306 N 
ATOM      6  N   UNL     1      -9.719 -12.246  19.816  0.00  0.00    -0.219 NA
ATOM      8  N   UNL     1      -9.129 -14.527  20.326  0.00  0.00    -0.223 NA
ATOM     15  C   UNL     1      -8.825 -13.267  19.916  0.00  0.00    +0.216 A 
ATOM     18  C   UNL     1     -10.992 -12.539  20.156  0.00  0.00    +0.052 A 
ATOM     19  C   UNL     1     -11.404 -13.785  20.584  0.00  0.00    +0.043 A 
ATOM     20  C   UNL     1     -10.419 -14.749  20.651  0.00  0.00    +0.116 A 
ATOM     31  H   UNL     1      -6.864 -13.783  19.601  0.00  0.00    +0.149 HD
BRANCH  18  17
ATOM     17  C   UNL     1     -11.986 -11.431  20.053  0.00  0.00    +0.005 C 
ATOM     22  C   UNL     1     -11.298 -10.040  20.205  0.00  0.00    +0.017 C 
ATOM     23  C   UNL     1     -13.126 -11.452  21.124  0.00  0.00    +0.017 C 
ATOM     24  C   UNL     1     -12.711 -11.450  18.673  0.00  0.00    +0.017 C 
ENDBRANCH  18  17
ENDBRANCH  11   4
BRANCH  12   5
ATOM      3  O   UNL     1      -2.157 -10.620  15.203  0.00  0.00    -0.253 OA
ATOM      5  N   UNL     1      -3.756 -12.070  16.059  0.00  0.00    -0.292 N 
ATOM      7  N   UNL     1      -2.748 -12.543  14.046  0.00  0.00    -0.295 N 
ATOM     16  C   UNL     1      -2.826 -11.649  15.111  0.00  0.00    +0.300 C 
ATOM     32  H   UNL     1      -4.208 -12.968  15.921  0.00  0.00    +0.151 HD
ATOM     33  H   UNL     1      -3.324 -13.379  14.067  0.00  0.00    +0.151 HD
BRANCH   7  21
ATOM     21  C   UNL     1      -1.861 -12.347  12.924  0.00  0.00    +0.141 C 
BRANCH  21  25
ATOM     25  C   UNL     1      -2.508 -11.551  11.828  0.00  0.00    -0.030 A 
ATOM     26  C   UNL     1      -2.152 -10.221  11.642  0.00  0.00    +0.005 A 
ATOM     27  C   UNL     1      -3.458 -12.153  11.009  0.00  0.00    +0.005 A 
ATOM     28  C   UNL     1      -2.753  -9.481  10.624  0.00  0.00    +0.000 A 
ATOM     29  C   UNL     1      -4.059 -11.413   9.990  0.00  0.00    +0.000 A 
ATOM     30  C   UNL     1      -3.706 -10.077   9.798  0.00  0.00    +0.000 A 
ENDBRANCH  21  25
ENDBRANCH   7  21
ENDBRANCH  12   5
TORSDOF 5
ENDMDL
MODEL 4
REMARK VINA RESULT:      -7.0     20.896     22.925
REMARK  Name = 11941639
REMARK  8 active torsions:
REMARK  status: ('A' for Active; 'I' for Inactive)
REMARK    1  A    between atoms: N_4  and  C_11
REMARK    2  A    between atoms: N_5  and  C_12
REMARK    3  A    between atoms: N_7  and  C_21
REMARK    4  A    between atoms: C_17  and  C_18
REMARK    5  A    between atoms: C_17  and  C_22
REMARK    6  A    between atoms: C_17  and  C_23
REMARK    7  A    between atoms: C_17  and  C_24
REMARK    8  A    between atoms: C_21  and  C_25
REMARK                            x       y       z     vdW  Elec       q    Type
REMARK                         _______ _______ _______ _____ _____    ______ ____
ROOT
ATOM      1  O   UNL     1      -3.579  -8.810  10.130  0.00  0.00    -0.370 OA
ATOM      2  O   UNL     1      -4.945 -11.615  10.168  0.00  0.00    -0.370 OA
ATOM      9  C   UNL     1      -5.431 -10.281  10.391  0.00  0.00    +0.171 C 
ATOM     10  C   UNL     1      -4.341  -9.521  11.120  0.00  0.00    +0.171 C 
ATOM     11  C   UNL     1      -5.575  -9.550   9.077  0.00  0.00    +0.130 C 
ATOM     12  C   UNL     1      -3.498 -10.604  11.754  0.00  0.00    +0.131 C 
ATOM     13  C   UNL     1      -4.177  -9.010   8.840  0.00  0.00    +0.185 C 
ATOM     14  C   UNL     1      -3.649 -11.750  10.770  0.00  0.00    +0.185 C 
ENDROOT
BRANCH  11   4
ATOM      4  N   UNL     1      -6.516  -8.460   9.218  0.00  0.00    -0.306 N 
ATOM      6  N   UNL     1      -7.329  -8.733   7.034  0.00  0.00    -0.219 NA
ATOM      8  N   UNL     1      -8.214  -7.019   8.480  0.00  0.00    -0.223 NA
ATOM     15  C   UNL     1      -7.379  -8.058   8.214  0.00  0.00    +0.216 A 
ATOM     18  C   UNL     1      -8.185  -8.316   6.078  0.00  0.00    +0.052 A 
ATOM     19  C   UNL     1      -9.073  -7.272   6.245  0.00  0.00    +0.043 A 
ATOM     20  C   UNL     1      -9.042  -6.654   7.478  0.00  0.00    +0.116 A 
ATOM     31  H   UNL     1      -6.597  -7.986  10.110  0.00  0.00    +0.149 HD
BRANCH  18  17
ATOM     17  C   UNL     1      -8.144  -9.044   4.776  0.00  0.00    +0.005 C 
ATOM     22  C   UNL     1      -9.508  -9.737   4.473  0.00  0.00    +0.017 C 
ATOM     23  C   UNL     1      -7.070 -10.178   4.676  0.00  0.00    +0.017 C 
ATOM     24  C   UNL     1      -7.836  -8.074   3.595  0.00  0.00    +0.017 C 
ENDBRANCH  18  17
ENDBRANCH  11   4
BRANCH  12   5
ATOM      3  O   UNL     1      -2.165 -10.258  14.291  0.00  0.00    -0.253 OA
ATOM      5  N   UNL     1      -4.003 -10.963  13.058  0.00  0.00    -0.292 N 
ATOM      7  N   UNL     1      -4.007 -11.195  15.347  0.00  0.00    -0.295 N 
ATOM     16  C   UNL     1      -3.288 -10.759  14.237  0.00  0.00    +0.300 C 
ATOM     32  H   UNL     1      -4.949 -11.323  13.128  0.00  0.00    +0.151 HD
ATOM     33  H   UNL     1      -4.937 -11.576  15.207  0.00  0.00    +0.151 HD
BRANCH   7  21
ATOM     21  C   UNL     1      -3.498 -11.101  16.695  0.00  0.00    +0.141 C 
BRANCH  21  25
ATOM     25  C   UNL     1      -4.602 -11.007  17.707  0.00  0.00    -0.030 A 
ATOM     26  C   UNL     1      -5.768 -10.321  17.390  0.00  0.00    +0.005 A 
ATOM     27  C   UNL     1      -4.448 -11.609  18.952  0.00  0.00    +0.005 A 
ATOM     28  C   UNL     1      -6.794 -10.233  18.331  0.00  0.00    +0.000 A 
ATOM     29  C   UNL     1      -5.474 -11.522  19.892  0.00  0.00    +0.000 A 
ATOM     30  C   UNL     1      -6.647 -10.834  19.582  0.00  0.00    +0.000 A 
ENDBRANCH  21  25
ENDBRANCH   7  21
ENDBRANCH  12   5
TORSDOF 5
ENDMDL
MODEL 5
REMARK VINA RESULT:      -6.9     26.182     28.339
REMARK  Name = 11941639
REMARK  8 active torsions:
REMARK  status: ('A' for Active; 'I' for Inactive)
REMARK    1  A    between atoms: N_4  and  C_11
REMARK    2  A    between atoms: N_5  and  C_12
REMARK    3  A    between atoms: N_7  and  C_21
REMARK    4  A    between atoms: C_17  and  C_18
REMARK    5  A    between atoms: C_17  and  C_22
REMARK    6  A    between atoms: C_17  and  C_23
REMARK    7  A    between atoms: C_17  and  C_24
REMARK    8  A    between atoms: C_21  and  C_25
REMARK                            x       y       z     vdW  Elec       q    Type
REMARK                         _______ _______ _______ _____ _____    ______ ____
ROOT
ATOM      1  O   UNL     1      10.812  12.936  24.034  0.00  0.00    -0.370 OA
ATOM      2  O   UNL     1      13.841  12.401  23.510  0.00  0.00    -0.370 OA
ATOM      9  C   UNL     1      12.729  11.542  23.811  0.00  0.00    +0.171 C 
ATOM     10  C   UNL     1      11.843  12.282  24.795  0.00  0.00    +0.171 C 
ATOM     11  C   UNL     1      11.857  11.366  22.590  0.00  0.00    +0.130 C 
ATOM     12  C   UNL     1      12.763  13.306  25.420  0.00  0.00    +0.131 C 
ATOM     13  C   UNL     1      10.948  12.580  22.650  0.00  0.00    +0.185 C 
ATOM     14  C   UNL     1      13.737  13.599  24.293  0.00  0.00    +0.185 C 
ENDROOT
BRANCH  11   4
ATOM      4  N   UNL     1      11.080  10.152  22.708  0.00  0.00    -0.306 N 
ATOM      6  N   UNL     1      12.531   8.955  21.305  0.00  0.00    -0.219 NA
ATOM      8  N   UNL     1      10.593   7.898  22.275  0.00  0.00    -0.223 NA
ATOM     15  C   UNL     1      11.411   8.966  22.077  0.00  0.00    +0.216 A 
ATOM     18  C   UNL     1      12.824   7.782  20.706  0.00  0.00    +0.052 A 
ATOM     19  C   UNL     1      12.062   6.640  20.841  0.00  0.00    +0.043 A 
ATOM     20  C   UNL     1      10.947   6.758  21.645  0.00  0.00    +0.116 A 
ATOM     31  H   UNL     1      10.273  10.135  23.322  0.00  0.00    +0.149 HD
BRANCH  18  17
ATOM     17  C   UNL     1      14.050   7.752  19.855  0.00  0.00    +0.005 C 
ATOM     22  C   UNL     1      14.990   6.575  20.261  0.00  0.00    +0.017 C 
ATOM     23  C   UNL     1      14.941   9.037  19.916  0.00  0.00    +0.017 C 
ATOM     24  C   UNL     1      13.688   7.568  18.350  0.00  0.00    +0.017 C 
ENDBRANCH  18  17
ENDBRANCH  11   4
BRANCH  12   5
ATOM      3  O   UNL     1      13.245  14.628  27.940  0.00  0.00    -0.253 OA
ATOM      5  N   UNL     1      13.443  12.762  26.572  0.00  0.00    -0.292 N 
ATOM      7  N   UNL     1      14.316  12.714  28.700  0.00  0.00    -0.295 N 
ATOM     16  C   UNL     1      13.632  13.474  27.754  0.00  0.00    +0.300 C 
ATOM     32  H   UNL     1      13.742  11.793  26.543  0.00  0.00    +0.151 HD
ATOM     33  H   UNL     1      14.577  11.762  28.464  0.00  0.00    +0.151 HD
BRANCH   7  21
ATOM     21  C   UNL     1      14.645  13.212  30.014  0.00  0.00    +0.141 C 
BRANCH  21  25
ATOM     25  C   UNL     1      13.751  12.635  31.074  0.00  0.00    -0.030 A 
ATOM     26  C   UNL     1      13.888  11.301  31.436  0.00  0.00    +0.005 A 
ATOM     27  C   UNL     1      12.795  13.442  31.681  0.00  0.00    +0.005 A 
ATOM     28  C   UNL     1      13.058  10.764  32.420  0.00  0.00    +0.000 A 
ATOM     29  C   UNL     1      11.965  12.905  32.666  0.00  0.00    +0.000 A 
ATOM     30  C   UNL     1      12.097  11.566  33.035  0.00  0.00    +0.000 A 
ENDBRANCH  21  25
ENDBRANCH   7  21
ENDBRANCH  12   5
TORSDOF 5
ENDMDL
MODEL 6
REMARK VINA RESULT:      -6.8     18.588     21.011
REMARK  Name = 11941639
REMARK  8 active torsions:
REMARK  status: ('A' for Active; 'I' for Inactive)
REMARK    1  A    between atoms: N_4  and  C_11
REMARK    2  A    between atoms: N_5  and  C_12
REMARK    3  A    between atoms: N_7  and  C_21
REMARK    4  A    between atoms: C_17  and  C_18
REMARK    5  A    between atoms: C_17  and  C_22
REMARK    6  A    between atoms: C_17  and  C_23
REMARK    7  A    between atoms: C_17  and  C_24
REMARK    8  A    between atoms: C_21  and  C_25
REMARK                            x       y       z     vdW  Elec       q    Type
REMARK                         _______ _______ _______ _____ _____    ______ ____
ROOT
ATOM      1  O   UNL     1      -6.106 -11.417  19.090  0.00  0.00    -0.370 OA
ATOM      2  O   UNL     1      -7.155 -11.822  16.179  0.00  0.00    -0.370 OA
ATOM      9  C   UNL     1      -6.021 -11.130  16.729  0.00  0.00    +0.171 C 
ATOM     10  C   UNL     1      -6.466 -10.506  18.038  0.00  0.00    +0.171 C 
ATOM     11  C   UNL     1      -4.952 -12.117  17.136  0.00  0.00    +0.130 C 
ATOM     12  C   UNL     1      -7.970 -10.418  17.911  0.00  0.00    +0.131 C 
ATOM     13  C   UNL     1      -5.389 -12.527  18.530  0.00  0.00    +0.185 C 
ATOM     14  C   UNL     1      -8.292 -11.612  17.029  0.00  0.00    +0.185 C 
ENDROOT
BRANCH  11   4
ATOM      4  N   UNL     1      -3.665 -11.458  17.188  0.00  0.00    -0.306 N 
ATOM      6  N   UNL     1      -3.559 -11.240  14.854  0.00  0.00    -0.219 NA
ATOM      8  N   UNL     1      -1.778 -10.419  16.257  0.00  0.00    -0.223 NA
ATOM     15  C   UNL     1      -2.980 -11.026  16.066  0.00  0.00    +0.216 A 
ATOM     18  C   UNL     1      -2.864 -10.805  13.782  0.00  0.00    +0.052 A 
ATOM     19  C   UNL     1      -1.638 -10.177  13.866  0.00  0.00    +0.043 A 
ATOM     20  C   UNL     1      -1.138 -10.011  15.142  0.00  0.00    +0.116 A 
ATOM     31  H   UNL     1      -3.250 -11.247  18.089  0.00  0.00    +0.149 HD
BRANCH  18  17
ATOM     17  C   UNL     1      -3.484 -11.031  12.444  0.00  0.00    +0.005 C 
ATOM     22  C   UNL     1      -5.016 -10.742  12.475  0.00  0.00    +0.017 C 
ATOM     23  C   UNL     1      -3.345 -12.484  11.878  0.00  0.00    +0.017 C 
ATOM     24  C   UNL     1      -2.851 -10.102  11.364  0.00  0.00    +0.017 C 
ENDBRANCH  18  17
ENDBRANCH  11   4
BRANCH  12   5
ATOM      3  O   UNL     1     -10.587  -9.203  17.972  0.00  0.00    -0.253 OA
ATOM      5  N   UNL     1      -8.370  -9.182  17.283  0.00  0.00    -0.292 N 
ATOM      7  N   UNL     1      -9.772  -7.464  16.669  0.00  0.00    -0.295 N 
ATOM     16  C   UNL     1      -9.661  -8.666  17.364  0.00  0.00    +0.300 C 
ATOM     32  H   UNL     1      -7.662  -8.628  16.812  0.00  0.00    +0.151 HD
ATOM     33  H   UNL     1      -8.947  -7.085  16.214  0.00  0.00    +0.151 HD
BRANCH   7  21
ATOM     21  C   UNL     1     -11.005  -6.717  16.591  0.00  0.00    +0.141 C 
BRANCH  21  25
ATOM     25  C   UNL     1     -11.574  -6.715  15.202  0.00  0.00    -0.030 A 
ATOM     26  C   UNL     1     -11.928  -5.510  14.606  0.00  0.00    +0.005 A 
ATOM     27  C   UNL     1     -11.742  -7.918  14.525  0.00  0.00    +0.005 A 
ATOM     28  C   UNL     1     -12.457  -5.508  13.315  0.00  0.00    +0.000 A 
ATOM     29  C   UNL     1     -12.270  -7.916  13.234  0.00  0.00    +0.000 A 
ATOM     30  C   UNL     1     -12.627  -6.711  12.629  0.00  0.00    +0.000 A 
ENDBRANCH  21  25
ENDBRANCH   7  21
ENDBRANCH  12   5
TORSDOF 5
ENDMDL
MODEL 7
REMARK VINA RESULT:      -6.8      5.765     10.545
REMARK  Name = 11941639
REMARK  8 active torsions:
REMARK  status: ('A' for Active; 'I' for Inactive)
REMARK    1  A    between atoms: N_4  and  C_11
REMARK    2  A    between atoms: N_5  and  C_12
REMARK    3  A    between atoms: N_7  and  C_21
REMARK    4  A    between atoms: C_17  and  C_18
REMARK    5  A    between atoms: C_17  and  C_22
REMARK    6  A    between atoms: C_17  and  C_23
REMARK    7  A    between atoms: C_17  and  C_24
REMARK    8  A    between atoms: C_21  and  C_25
REMARK                            x       y       z     vdW  Elec       q    Type
REMARK                         _______ _______ _______ _____ _____    ______ ____
ROOT
ATOM      1  O   UNL     1     -14.230   5.722  34.502  0.00  0.00    -0.370 OA
ATOM      2  O   UNL     1     -15.571   6.628  31.835  0.00  0.00    -0.370 OA
ATOM      9  C   UNL     1     -14.649   5.577  32.164  0.00  0.00    +0.171 C 
ATOM     10  C   UNL     1     -13.708   6.118  33.223  0.00  0.00    +0.171 C 
ATOM     11  C   UNL     1     -15.370   4.444  32.856  0.00  0.00    +0.130 C 
ATOM     12  C   UNL     1     -13.797   7.619  33.061  0.00  0.00    +0.131 C 
ATOM     13  C   UNL     1     -15.387   4.895  34.305  0.00  0.00    +0.185 C 
ATOM     14  C   UNL     1     -15.223   7.808  32.573  0.00  0.00    +0.185 C 
ENDROOT
BRANCH  11   4
ATOM      4  N   UNL     1     -14.613   3.219  32.722  0.00  0.00    -0.306 N 
ATOM      6  N   UNL     1     -15.632   2.683  30.677  0.00  0.00    -0.219 NA
ATOM      8  N   UNL     1     -13.965   1.236  31.647  0.00  0.00    -0.223 NA
ATOM     15  C   UNL     1     -14.740   2.353  31.650  0.00  0.00    +0.216 A 
ATOM     18  C   UNL     1     -15.730   1.817  29.647  0.00  0.00    +0.052 A 
ATOM     19  C   UNL     1     -14.990   0.657  29.547  0.00  0.00    +0.043 A 
ATOM     20  C   UNL     1     -14.116   0.415  30.587  0.00  0.00    +0.116 A 
ATOM     31  H   UNL     1     -13.908   2.991  33.414  0.00  0.00    +0.149 HD
BRANCH  18  17
ATOM     17  C   UNL     1     -16.704   2.163  28.571  0.00  0.00    +0.005 C 
ATOM     22  C   UNL     1     -17.985   2.828  29.160  0.00  0.00    +0.017 C 
ATOM     23  C   UNL     1     -17.216   0.956  27.717  0.00  0.00    +0.017 C 
ATOM     24  C   UNL     1     -16.083   3.163  27.547  0.00  0.00    +0.017 C 
ENDBRANCH  18  17
ENDBRANCH  11   4
BRANCH  12   5
ATOM      3  O   UNL     1     -13.314  10.361  32.304  0.00  0.00    -0.253 OA
ATOM      5  N   UNL     1     -12.843   8.097  32.090  0.00  0.00    -0.292 N 
ATOM      7  N   UNL     1     -11.691   9.627  30.815  0.00  0.00    -0.295 N 
ATOM     16  C   UNL     1     -12.675   9.446  31.784  0.00  0.00    +0.300 C 
ATOM     32  H   UNL     1     -12.220   7.426  31.653  0.00  0.00    +0.151 HD
ATOM     33  H   UNL     1     -11.200   8.813  30.459  0.00  0.00    +0.151 HD
BRANCH   7  21
ATOM     21  C   UNL     1     -11.316  10.929  30.315  0.00  0.00    +0.141 C 
BRANCH  21  25
ATOM     25  C   UNL     1     -11.409  11.004  28.818  0.00  0.00    -0.030 A 
ATOM     26  C   UNL     1     -11.969  12.126  28.221  0.00  0.00    +0.005 A 
ATOM     27  C   UNL     1     -10.933   9.950  28.046  0.00  0.00    +0.005 A 
ATOM     28  C   UNL     1     -12.056  12.197  26.830  0.00  0.00    +0.000 A 
ATOM     29  C   UNL     1     -11.019  10.021  26.655  0.00  0.00    +0.000 A 
ATOM     30  C   UNL     1     -11.580  11.144  26.048  0.00  0.00    +0.000 A 
ENDBRANCH  21  25
ENDBRANCH   7  21
ENDBRANCH  12   5
TORSDOF 5
ENDMDL
MODEL 8
REMARK VINA RESULT:      -6.8     17.189     19.313
REMARK  Name = 11941639
REMARK  8 active torsions:
REMARK  status: ('A' for Active; 'I' for Inactive)
REMARK    1  A    between atoms: N_4  and  C_11
REMARK    2  A    between atoms: N_5  and  C_12
REMARK    3  A    between atoms: N_7  and  C_21
REMARK    4  A    between atoms: C_17  and  C_18
REMARK    5  A    between atoms: C_17  and  C_22
REMARK    6  A    between atoms: C_17  and  C_23
REMARK    7  A    between atoms: C_17  and  C_24
REMARK    8  A    between atoms: C_21  and  C_25
REMARK                            x       y       z     vdW  Elec       q    Type
REMARK                         _______ _______ _______ _____ _____    ______ ____
ROOT
ATOM      1  O   UNL     1     -11.900  -9.528  15.928  0.00  0.00    -0.370 OA
ATOM      2  O   UNL     1     -10.414  -6.792  15.727  0.00  0.00    -0.370 OA
ATOM      9  C   UNL     1     -10.752  -7.801  14.761  0.00  0.00    +0.171 C 
ATOM     10  C   UNL     1     -10.601  -9.147  15.444  0.00  0.00    +0.171 C 
ATOM     11  C   UNL     1     -12.221  -7.726  14.415  0.00  0.00    +0.130 C 
ATOM     12  C   UNL     1      -9.670  -8.869  16.602  0.00  0.00    +0.131 C 
ATOM     13  C   UNL     1     -12.865  -8.550  15.515  0.00  0.00    +0.185 C 
ATOM     14  C   UNL     1     -10.000  -7.427  16.946  0.00  0.00    +0.185 C 
ENDROOT
BRANCH  11   4
ATOM      4  N   UNL     1     -12.458  -8.337  13.126  0.00  0.00    -0.306 N 
ATOM      6  N   UNL     1     -12.523  -6.264  12.030  0.00  0.00    -0.219 NA
ATOM      8  N   UNL     1     -12.822  -8.320  10.808  0.00  0.00    -0.223 NA
ATOM     15  C   UNL     1     -12.605  -7.619  11.953  0.00  0.00    +0.216 A 
ATOM     18  C   UNL     1     -12.671  -5.595  10.868  0.00  0.00    +0.052 A 
ATOM     19  C   UNL     1     -12.894  -6.210   9.652  0.00  0.00    +0.043 A 
ATOM     20  C   UNL     1     -12.962  -7.588   9.684  0.00  0.00    +0.116 A 
ATOM     31  H   UNL     1     -12.468  -9.349  13.050  0.00  0.00    +0.149 HD
BRANCH  18  17
ATOM     17  C   UNL     1     -12.583  -4.107  10.933  0.00  0.00    +0.005 C 
ATOM     22  C   UNL     1     -12.243  -3.625  12.377  0.00  0.00    +0.017 C 
ATOM     23  C   UNL     1     -13.888  -3.340  10.535  0.00  0.00    +0.017 C 
ATOM     24  C   UNL     1     -11.474  -3.564   9.982  0.00  0.00    +0.017 C 
ENDBRANCH  18  17
ENDBRANCH  11   4
BRANCH  12   5
ATOM      3  O   UNL     1      -7.563 -10.173  18.082  0.00  0.00    -0.253 OA
ATOM      5  N   UNL     1      -8.289  -9.009  16.208  0.00  0.00    -0.292 N 
ATOM      7  N   UNL     1      -6.085  -9.649  16.371  0.00  0.00    -0.295 N 
ATOM     16  C   UNL     1      -7.333  -9.658  16.987  0.00  0.00    +0.300 C 
ATOM     32  H   UNL     1      -8.012  -8.676  15.290  0.00  0.00    +0.151 HD
ATOM     33  H   UNL     1      -5.995  -9.218  15.456  0.00  0.00    +0.151 HD
BRANCH   7  21
ATOM     21  C   UNL     1      -4.915 -10.253  16.964  0.00  0.00    +0.141 C 
BRANCH  21  25
ATOM     25  C   UNL     1      -3.842 -10.518  15.947  0.00  0.00    -0.030 A 
ATOM     26  C   UNL     1      -2.522 -10.648  16.361  0.00  0.00    +0.005 A 
ATOM     27  C   UNL     1      -4.181 -10.629  14.603  0.00  0.00    +0.005 A 
ATOM     28  C   UNL     1      -1.525 -10.894  15.416  0.00  0.00    +0.000 A 
ATOM     29  C   UNL     1      -3.184 -10.876  13.659  0.00  0.00    +0.000 A 
ATOM     30  C   UNL     1      -1.856 -11.009  14.066  0.00  0.00    +0.000 A 
ENDBRANCH  21  25
ENDBRANCH   7  21
ENDBRANCH  12   5
TORSDOF 5
ENDMDL
MODEL 9
REMARK VINA RESULT:      -6.8     19.313     22.256
REMARK  Name = 11941639
REMARK  8 active torsions:
REMARK  status: ('A' for Active; 'I' for Inactive)
REMARK    1  A    between atoms: N_4  and  C_11
REMARK    2  A    between atoms: N_5  and  C_12
REMARK    3  A    between atoms: N_7  and  C_21
REMARK    4  A    between atoms: C_17  and  C_18
REMARK    5  A    between atoms: C_17  and  C_22
REMARK    6  A    between atoms: C_17  and  C_23
REMARK    7  A    between atoms: C_17  and  C_24
REMARK    8  A    between atoms: C_21  and  C_25
REMARK                            x       y       z     vdW  Elec       q    Type
REMARK                         _______ _______ _______ _____ _____    ______ ____
ROOT
ATOM      1  O   UNL     1      -7.204 -12.305  17.235  0.00  0.00    -0.370 OA
ATOM      2  O   UNL     1      -4.905 -10.967  18.864  0.00  0.00    -0.370 OA
ATOM      9  C   UNL     1      -5.798 -10.486  17.847  0.00  0.00    +0.171 C 
ATOM     10  C   UNL     1      -6.001 -11.615  16.856  0.00  0.00    +0.171 C 
ATOM     11  C   UNL     1      -7.174 -10.251  18.426  0.00  0.00    +0.130 C 
ATOM     12  C   UNL     1      -4.797 -12.506  17.061  0.00  0.00    +0.131 C 
ATOM     13  C   UNL     1      -7.809 -11.626  18.345  0.00  0.00    +0.185 C 
ATOM     14  C   UNL     1      -4.489 -12.300  18.534  0.00  0.00    +0.185 C 
ENDROOT
BRANCH  11   4
ATOM      4  N   UNL     1      -7.904  -9.313  17.601  0.00  0.00    -0.306 N 
ATOM      6  N   UNL     1      -9.969  -9.940  18.522  0.00  0.00    -0.219 NA
ATOM      8  N   UNL     1      -9.838  -8.239  16.819  0.00  0.00    -0.223 NA
ATOM     15  C   UNL     1      -9.278  -9.159  17.648  0.00  0.00    +0.216 A 
ATOM     18  C   UNL     1     -11.306  -9.764  18.542  0.00  0.00    +0.052 A 
ATOM     19  C   UNL     1     -11.973  -8.858  17.743  0.00  0.00    +0.043 A 
ATOM     20  C   UNL     1     -11.179  -8.116  16.891  0.00  0.00    +0.116 A 
ATOM     31  H   UNL     1      -7.393  -8.689  16.986  0.00  0.00    +0.149 HD
BRANCH  18  17
ATOM     17  C   UNL     1     -12.080 -10.612  19.494  0.00  0.00    +0.005 C 
ATOM     22  C   UNL     1     -12.738  -9.749  20.614  0.00  0.00    +0.017 C 
ATOM     23  C   UNL     1     -11.250 -11.706  20.245  0.00  0.00    +0.017 C 
ATOM     24  C   UNL     1     -13.221 -11.385  18.764  0.00  0.00    +0.017 C 
ENDBRANCH  18  17
ENDBRANCH  11   4
BRANCH  12   5
ATOM      3  O   UNL     1      -4.182 -13.425  14.396  0.00  0.00    -0.253 OA
ATOM      5  N   UNL     1      -3.692 -12.090  16.232  0.00  0.00    -0.292 N 
ATOM      7  N   UNL     1      -2.336 -12.018  14.374  0.00  0.00    -0.295 N 
ATOM     16  C   UNL     1      -3.469 -12.588  14.950  0.00  0.00    +0.300 C 
ATOM     32  H   UNL     1      -3.083 -11.353  16.572  0.00  0.00    +0.151 HD
ATOM     33  H   UNL     1      -1.821 -11.318  14.900  0.00  0.00    +0.151 HD
BRANCH   7  21
ATOM     21  C   UNL     1      -1.877 -12.358  13.049  0.00  0.00    +0.141 C 
BRANCH  21  25
ATOM     25  C   UNL     1      -2.365 -11.382  12.018  0.00  0.00    -0.030 A 
ATOM     26  C   UNL     1      -1.685 -10.185  11.829  0.00  0.00    +0.005 A 
ATOM     27  C   UNL     1      -3.493 -11.685  11.262  0.00  0.00    +0.005 A 
ATOM     28  C   UNL     1      -2.138  -9.277  10.872  0.00  0.00    +0.000 A 
ATOM     29  C   UNL     1      -3.945 -10.778  10.304  0.00  0.00    +0.000 A 
ATOM     30  C   UNL     1      -3.268  -9.574  10.109  0.00  0.00    +0.000 A 
ENDBRANCH  21  25
ENDBRANCH   7  21
ENDBRANCH  12   5
TORSDOF 5
ENDMDL
MODEL 10
REMARK VINA RESULT:      -6.7     18.557     21.801
REMARK  Name = 11941639
REMARK  8 active torsions:
REMARK  status: ('A' for Active; 'I' for Inactive)
REMARK    1  A    between atoms: N_4  and  C_11
REMARK    2  A    between atoms: N_5  and  C_12
REMARK    3  A    between atoms: N_7  and  C_21
REMARK    4  A    between atoms: C_17  and  C_18
REMARK    5  A    between atoms: C_17  and  C_22
REMARK    6  A    between atoms: C_17  and  C_23
REMARK    7  A    between atoms: C_17  and  C_24
REMARK    8  A    between atoms: C_21  and  C_25
REMARK                            x       y       z     vdW  Elec       q    Type
REMARK                         _______ _______ _______ _____ _____    ______ ____
ROOT
ATOM      1  O   UNL     1      -9.906  -9.325   8.589  0.00  0.00    -0.370 OA
ATOM      2  O   UNL     1      -7.729  -7.225   7.825  0.00  0.00    -0.370 OA
ATOM      9  C   UNL     1      -8.300  -7.638   9.077  0.00  0.00    +0.171 C 
ATOM     10  C   UNL     1      -9.771  -7.915   8.832  0.00  0.00    +0.171 C 
ATOM     11  C   UNL     1      -7.737  -8.977   9.493  0.00  0.00    +0.130 C 
ATOM     12  C   UNL     1     -10.088  -7.133   7.577  0.00  0.00    +0.131 C 
ATOM     13  C   UNL     1      -8.628  -9.958   8.753  0.00  0.00    +0.185 C 
ATOM     14  C   UNL     1      -8.764  -7.164   6.833  0.00  0.00    +0.185 C 
ENDROOT
BRANCH  11   4
ATOM      4  N   UNL     1      -7.879  -9.151  10.922  0.00  0.00    -0.306 N 
ATOM      6  N   UNL     1      -5.637  -9.794  11.179  0.00  0.00    -0.219 NA
ATOM      8  N   UNL     1      -7.116  -9.674  13.079  0.00  0.00    -0.223 NA
ATOM     15  C   UNL     1      -6.847  -9.552  11.752  0.00  0.00    +0.216 A 
ATOM     18  C   UNL     1      -4.654 -10.182  12.016  0.00  0.00    +0.052 A 
ATOM     19  C   UNL     1      -4.821 -10.337  13.378  0.00  0.00    +0.043 A 
ATOM     20  C   UNL     1      -6.087 -10.067  13.857  0.00  0.00    +0.116 A 
ATOM     31  H   UNL     1      -8.762  -8.922  11.366  0.00  0.00    +0.149 HD
BRANCH  18  17
ATOM     17  C   UNL     1      -3.320 -10.453  11.405  0.00  0.00    +0.005 C 
ATOM     22  C   UNL     1      -3.298 -11.837  10.687  0.00  0.00    +0.017 C 
ATOM     23  C   UNL     1      -2.117 -10.483  12.406  0.00  0.00    +0.017 C 
ATOM     24  C   UNL     1      -2.952  -9.368  10.347  0.00  0.00    +0.017 C 
ENDBRANCH  18  17
ENDBRANCH  11   4
BRANCH  12   5
ATOM      3  O   UNL     1     -12.709  -6.225   8.372  0.00  0.00    -0.253 OA
ATOM      5  N   UNL     1     -10.481  -5.780   7.890  0.00  0.00    -0.292 N 
ATOM      7  N   UNL     1     -11.880  -4.061   8.510  0.00  0.00    -0.295 N 
ATOM     16  C   UNL     1     -11.776  -5.429   8.267  0.00  0.00    +0.300 C 
ATOM     32  H   UNL     1      -9.768  -5.059   7.897  0.00  0.00    +0.151 HD
ATOM     33  H   UNL     1     -11.049  -3.485   8.418  0.00  0.00    +0.151 HD
BRANCH   7  21
ATOM     21  C   UNL     1     -13.113  -3.431   8.916  0.00  0.00    +0.141 C 
BRANCH  21  25
ATOM     25  C   UNL     1     -13.347  -3.554  10.394  0.00  0.00    -0.030 A 
ATOM     26  C   UNL     1     -14.647  -3.595  10.882  0.00  0.00    +0.005 A 
ATOM     27  C   UNL     1     -12.260  -3.626  11.259  0.00  0.00    +0.005 A 
ATOM     28  C   UNL     1     -14.865  -3.709  12.256  0.00  0.00    +0.000 A 
ATOM     29  C   UNL     1     -12.478  -3.741  12.632  0.00  0.00    +0.000 A 
ATOM     30  C   UNL     1     -13.780  -3.783  13.130  0.00  0.00    +0.000 A 
ENDBRANCH  21  25
ENDBRANCH   7  21
ENDBRANCH  12   5
TORSDOF 5
ENDMDL
