REMARK  Name = 71693625
REMARK  7 active torsions:
REMARK  status: ('A' for Active; 'I' for Inactive)
REMARK    1  A    between atoms: O_2  and  C_12
REMARK    2  A    between atoms: N_6  and  C_15
REMARK    3  A    between atoms: N_7  and  C_20
REMARK    4  A    between atoms: C_9  and  C_12
REMARK    5  A    between atoms: C_10  and  C_11
REMARK    6  A    between atoms: C_21  and  C_22
REMARK    7  A    between atoms: C_24  and  C_25
REMARK                            x       y       z     vdW  Elec       q    Type
REMARK                         _______ _______ _______ _____ _____    ______ ____
ROOT
ATOM     11  C   UNL     1       1.575  -0.205   0.267  0.00  0.00    -0.017 A 
ATOM     16  C   UNL     1       0.731   0.363   1.221  0.00  0.00    +0.008 A 
ATOM     17  C   UNL     1       1.036  -0.808  -0.870  0.00  0.00    +0.008 A 
ATOM     18  C   UNL     1      -0.651   0.328   1.040  0.00  0.00    +0.023 A 
ATOM     19  C   UNL     1      -0.346  -0.844  -1.051  0.00  0.00    +0.023 A 
ATOM     20  C   UNL     1      -1.190  -0.276  -0.097  0.00  0.00    +0.034 A 
ENDROOT
BRANCH  11  10
ATOM      1  O   UNL     1       3.517  -1.520   0.579  0.00  0.00    -0.361 OA
ATOM      3  O   UNL     1       7.036  -1.096   0.215  0.00  0.00    -0.273 OA
ATOM      6  N   UNL     1       5.311   0.269  -0.555  0.00  0.00    -0.295 N 
ATOM      9  C   UNL     1       3.851   0.490  -0.694  0.00  0.00    +0.134 C 
ATOM     10  C   UNL     1       3.076  -0.166   0.465  0.00  0.00    +0.171 C 
ATOM     13  C   UNL     1       4.853  -1.575   1.020  0.00  0.00    +0.256 C 
ATOM     14  C   UNL     1       5.841  -0.797   0.174  0.00  0.00    +0.242 C 
ATOM     15  C   UNL     1       6.208   1.049  -1.405  0.00  0.00    +0.132 C 
BRANCH   9  12
ATOM     12  C   UNL     1       3.490   1.978  -0.810  0.00  0.00    +0.181 C 
BRANCH  12   2
ATOM      2  O   UNL     1       3.821   2.609   0.409  0.00  0.00    -0.393 OA
ATOM     26  H   UNL     1       3.577   3.546   0.324  0.00  0.00    +0.209 HD
ENDBRANCH  12   2
ENDBRANCH   9  12
ENDBRANCH  11  10
BRANCH  20   7
ATOM      4  O   UNL     1      -3.400   0.783   1.630  0.00  0.00    -0.268 OA
ATOM      7  N   UNL     1      -2.573  -0.312  -0.279  0.00  0.00    -0.280 N 
ATOM     21  C   UNL     1      -3.568   0.201   0.564  0.00  0.00    +0.270 C 
ATOM     27  H   UNL     1      -2.888  -0.766  -1.134  0.00  0.00    +0.155 HD
BRANCH  21  22
ATOM      5  O   UNL     1      -6.577  -0.564  -1.231  0.00  0.00    -0.359 OA
ATOM      8  N   UNL     1      -5.195  -0.576  -1.088  0.00  0.00    -0.073 NA
ATOM     22  C   UNL     1      -4.963   0.032   0.080  0.00  0.00    +0.168 A 
ATOM     23  C   UNL     1      -6.149   0.444   0.711  0.00  0.00    +0.080 A 
ATOM     24  C   UNL     1      -7.134   0.046  -0.153  0.00  0.00    +0.135 A 
ATOM     25  C   UNL     1      -8.598   0.146  -0.141  0.00  0.00    +0.089 C 
ENDBRANCH  21  22
ENDBRANCH  20   7
TORSDOF 5
