REMARK  Name = 45361366
REMARK  9 active torsions:
REMARK  status: ('A' for Active; 'I' for Inactive)
REMARK    1  A    between atoms: O_1  and  C_9
REMARK    2  A    between atoms: N_4  and  C_13
REMARK    3  A    between atoms: C_6  and  C_16
REMARK    4  A    between atoms: C_8  and  C_18
REMARK    5  A    between atoms: C_11  and  C_17
REMARK    6  A    between atoms: C_17  and  C_19
REMARK    7  A    between atoms: C_17  and  C_20
REMARK    8  A    between atoms: C_21  and  C_27
REMARK    9  A    between atoms: C_26  and  C_28
REMARK                            x       y       z     vdW  Elec       q    Type
REMARK                         _______ _______ _______ _____ _____    ______ ____
ROOT
ATOM      6  C   UNL     1      -1.535   1.033  -1.246  0.00  0.00    -0.027 C 
ATOM      7  C   UNL     1      -1.461   0.240   0.101  0.00  0.00    +0.028 C 
ATOM      8  C   UNL     1      -2.868   0.190   0.798  0.00  0.00    +0.012 C 
ATOM      9  C   UNL     1      -0.292   0.751   0.992  0.00  0.00    +0.122 C 
ATOM     10  C   UNL     1      -0.163   0.967  -1.959  0.00  0.00    +0.007 C 
ATOM     11  C   UNL     1       1.059   0.782   0.241  0.00  0.00    +0.029 C 
ATOM     12  C   UNL     1      -2.578   0.361  -2.170  0.00  0.00    +0.009 C 
ATOM     13  C   UNL     1      -3.925  -0.418  -0.167  0.00  0.00    +0.076 C 
ATOM     14  C   UNL     1       0.977   1.503  -1.104  0.00  0.00    +0.007 C 
ATOM     15  C   UNL     1      -3.958   0.260  -1.537  0.00  0.00    +0.023 C 
ATOM     16  C   UNL     1      -1.918   2.520  -1.041  0.00  0.00    +0.011 C 
ATOM     18  C   UNL     1      -2.874  -0.601   2.117  0.00  0.00    +0.010 C 
ENDROOT
BRANCH  13   4
ATOM      3  O   UNL     1      -6.085  -2.312  -0.589  0.00  0.00    -0.276 OA
ATOM      4  N   UNL     1      -5.256  -0.374   0.399  0.00  0.00    -0.312 N 
ATOM     21  C   UNL     1      -6.221  -1.329   0.136  0.00  0.00    +0.210 C 
ATOM     27  C   UNL     1      -7.506  -1.056   0.871  0.00  0.00    +0.109 C 
ATOM     29  H   UNL     1      -5.504   0.430   0.969  0.00  0.00    +0.149 HD
ENDBRANCH  13   4
BRANCH   9   1
ATOM      1  O   UNL     1      -0.121  -0.128   2.105  0.00  0.00    -0.391 OA
ATOM     30  H   UNL     1       0.085  -1.014   1.761  0.00  0.00    +0.210 HD
ENDBRANCH   9   1
BRANCH  11  17
ATOM     17  C   UNL     1       2.170   1.409   1.092  0.00  0.00    +0.078 C 
ATOM     19  C   UNL     1       1.841   2.849   1.446  0.00  0.00    +0.017 C 
BRANCH  17  20
ATOM      2  O   UNL     1       3.785   2.303  -0.393  0.00  0.00    -0.275 OA
ATOM      5  N   UNL     1       4.222   0.188   0.462  0.00  0.00    -0.301 N 
ATOM     20  C   UNL     1       3.463   1.348   0.319  0.00  0.00    +0.219 C 
ATOM     22  C   UNL     1       5.509   0.069  -0.226  0.00  0.00    +0.108 C 
ATOM     23  C   UNL     1       3.865  -0.964   1.299  0.00  0.00    +0.108 C 
ATOM     24  C   UNL     1       5.558  -1.198  -1.076  0.00  0.00    +0.022 C 
ATOM     25  C   UNL     1       3.881  -2.254   0.481  0.00  0.00    +0.022 C 
ATOM     26  C   UNL     1       5.225  -2.442  -0.239  0.00  0.00    -0.011 C 
ATOM     28  C   UNL     1       5.203  -3.695  -1.112  0.00  0.00    +0.007 C 
ENDBRANCH  17  20
ENDBRANCH  11  17
TORSDOF 4
