REMARK  Name = 11912978
REMARK  6 active torsions:
REMARK  status: ('A' for Active; 'I' for Inactive)
REMARK    1  A    between atoms: S_1  and  N_7
REMARK    2  A    between atoms: S_1  and  C_18
REMARK    3  A    between atoms: N_7  and  C_13
REMARK    4  A    between atoms: N_8  and  C_14
REMARK    5  A    between atoms: C_21  and  C_27
REMARK    6  A    between atoms: C_25  and  C_28
REMARK                            x       y       z     vdW  Elec       q    Type
REMARK                         _______ _______ _______ _____ _____    ______ ____
ROOT
ATOM      2  O   UNL     1       0.298   2.396  -0.919  0.00  0.00    -0.370 OA
ATOM      3  O   UNL     1      -1.546   0.291  -2.300  0.00  0.00    -0.370 OA
ATOM     11  C   UNL     1      -1.377   0.707  -0.934  0.00  0.00    +0.170 C 
ATOM     12  C   UNL     1       0.099   0.986  -0.727  0.00  0.00    +0.171 C 
ATOM     13  C   UNL     1      -2.040   2.046  -0.706  0.00  0.00    +0.133 C 
ATOM     14  C   UNL     1       0.780   0.206  -1.827  0.00  0.00    +0.130 C 
ATOM     15  C   UNL     1      -0.971   3.021  -1.167  0.00  0.00    +0.183 C 
ATOM     16  C   UNL     1      -0.260   0.211  -2.932  0.00  0.00    +0.185 C 
ENDROOT
BRANCH  14   8
ATOM      8  N   UNL     1       1.038  -1.148  -1.388  0.00  0.00    -0.306 N 
ATOM      9  N   UNL     1       3.060  -0.548  -0.360  0.00  0.00    -0.211 NA
ATOM     10  N   UNL     1       2.277  -2.826  -0.315  0.00  0.00    -0.223 NA
ATOM     17  C   UNL     1       2.158  -1.518  -0.666  0.00  0.00    +0.216 A 
ATOM     21  C   UNL     1       4.140  -0.944   0.344  0.00  0.00    +0.111 A 
ATOM     24  C   UNL     1       3.381  -3.153   0.389  0.00  0.00    +0.116 A 
ATOM     26  C   UNL     1       4.356  -2.245   0.750  0.00  0.00    +0.051 A 
ATOM     33  H   UNL     1       0.346  -1.868  -1.564  0.00  0.00    +0.149 HD
BRANCH  21  27
ATOM      6  O   UNL     1       4.740   1.335   0.191  0.00  0.00    -0.461 OA
ATOM     27  C   UNL     1       5.076   0.104   0.652  0.00  0.00    +0.153 A 
ATOM     29  C   UNL     1       6.272   0.146   1.327  0.00  0.00    +0.051 A 
ATOM     30  C   UNL     1       6.701   1.494   1.278  0.00  0.00    +0.042 A 
ATOM     31  C   UNL     1       5.735   2.177   0.576  0.00  0.00    +0.196 A 
ENDBRANCH  21  27
ENDBRANCH  14   8
BRANCH  13   7
ATOM      7  N   UNL     1      -2.358   2.240   0.688  0.00  0.00    -0.182 NA
ATOM     32  H   UNL     1      -1.573   2.246   1.351  0.00  0.00    +0.148 HD
BRANCH   7   1
ATOM      1  S   UNL     1      -3.908   1.850   1.263  0.00  0.00    +0.059 S 
ATOM      4  O   UNL     1      -4.905   2.540   0.468  0.00  0.00    -0.153 OA
ATOM      5  O   UNL     1      -3.915   1.972   2.708  0.00  0.00    -0.153 OA
BRANCH   1  18
ATOM     18  C   UNL     1      -4.012   0.125   0.891  0.00  0.00    +0.105 A 
ATOM     19  C   UNL     1      -3.584  -0.796   1.831  0.00  0.00    +0.029 A 
ATOM     20  C   UNL     1      -4.520  -0.272  -0.333  0.00  0.00    +0.029 A 
ATOM     22  C   UNL     1      -3.667  -2.157   1.538  0.00  0.00    +0.005 A 
ATOM     23  C   UNL     1      -4.604  -1.633  -0.626  0.00  0.00    +0.005 A 
ATOM     25  C   UNL     1      -4.178  -2.576   0.310  0.00  0.00    -0.050 A 
ATOM     28  C   UNL     1      -4.267  -4.031  -0.004  0.00  0.00    +0.044 C 
ENDBRANCH   1  18
ENDBRANCH   7   1
ENDBRANCH  13   7
TORSDOF 5
