MODEL 1
REMARK VINA RESULT:      -7.9      0.000      0.000
REMARK  Name = 11882576
REMARK  11 active torsions:
REMARK  status: ('A' for Active; 'I' for Inactive)
REMARK    1  A    between atoms: O_2  and  C_13
REMARK    2  A    between atoms: O_3  and  C_16
REMARK    3  A    between atoms: O_4  and  C_18
REMARK    4  A    between atoms: O_8  and  C_32
REMARK    5  A    between atoms: N_9  and  C_14
REMARK    6  A    between atoms: N_10  and  C_20
REMARK    7  A    between atoms: N_11  and  C_25
REMARK    8  A    between atoms: C_13  and  C_19
REMARK    9  A    between atoms: C_20  and  C_22
REMARK   10  A    between atoms: C_20  and  C_23
REMARK   11  A    between atoms: C_22  and  C_24
REMARK                            x       y       z     vdW  Elec       q    Type
REMARK                         _______ _______ _______ _____ _____    ______ ____
ROOT
ATOM     13  C   UNL     1      -5.565 -11.354  17.046  0.00  0.00    +0.146 C 
ATOM     14  C   UNL     1      -7.630 -10.104  17.840  0.00  0.00    +0.109 C 
ATOM     15  C   UNL     1      -6.450 -10.120  16.862  0.00  0.00    +0.069 C 
ATOM     16  C   UNL     1      -7.169 -10.262  19.294  0.00  0.00    +0.163 C 
ATOM     17  C   UNL     1      -5.097 -11.489  18.494  0.00  0.00    +0.078 C 
ATOM     18  C   UNL     1      -6.265 -11.483  19.481  0.00  0.00    +0.148 C 
ENDROOT
BRANCH  14   9
ATOM      6  O   UNL     1      -9.906  -9.711  16.146  0.00  0.00    -0.252 OA
ATOM      9  N   UNL     1      -8.385  -8.880  17.675  0.00  0.00    -0.294 N 
ATOM     11  N   UNL     1     -10.012  -7.480  16.871  0.00  0.00    -0.269 N 
ATOM     21  C   UNL     1      -9.488  -8.775  16.823  0.00  0.00    +0.304 C 
ATOM     36  H   UNL     1      -8.053  -8.042  18.142  0.00  0.00    +0.151 HD
ATOM     41  H   UNL     1      -9.545  -6.821  17.488  0.00  0.00    +0.156 HD
BRANCH  11  25
ATOM      1  F   UNL     1     -11.835  -4.648  13.448  0.00  0.00    -0.205 F 
ATOM     25  C   UNL     1     -11.122  -6.966  16.160  0.00  0.00    +0.037 A 
ATOM     28  C   UNL     1     -10.927  -6.041  15.134  0.00  0.00    +0.061 A 
ATOM     29  C   UNL     1     -12.412  -7.386  16.485  0.00  0.00    +0.023 A 
ATOM     33  C   UNL     1     -12.021  -5.536  14.435  0.00  0.00    +0.125 A 
ATOM     34  C   UNL     1     -13.506  -6.879  15.786  0.00  0.00    +0.005 A 
ATOM     35  C   UNL     1     -13.312  -5.955  14.760  0.00  0.00    +0.038 A 
ENDBRANCH  11  25
ENDBRANCH  14   9
BRANCH  13  19
ATOM      5  O   UNL     1      -3.349 -10.715  16.429  0.00  0.00    -0.273 OA
ATOM     10  N   UNL     1      -4.624 -11.952  14.926  0.00  0.00    -0.301 N 
ATOM     19  C   UNL     1      -4.384 -11.300  16.123  0.00  0.00    +0.246 C 
ATOM     40  H   UNL     1      -5.547 -12.328  14.732  0.00  0.00    +0.150 HD
BRANCH  10  20
ATOM     20  C   UNL     1      -3.655 -12.025  13.856  0.00  0.00    +0.163 C 
BRANCH  20  23
ATOM      7  O   UNL     1      -2.681 -14.198  14.336  0.00  0.00    -0.274 OA
ATOM     12  N   UNL     1      -1.389 -12.324  14.641  0.00  0.00    -0.328 N 
ATOM     23  C   UNL     1      -2.559 -12.976  14.309  0.00  0.00    +0.231 C 
ATOM     42  H   UNL     1      -0.572 -12.843  14.945  0.00  0.00    +0.145 HD
ATOM     43  H   UNL     1      -1.300 -11.313  14.611  0.00  0.00    +0.145 HD
ENDBRANCH  20  23
BRANCH  20  22
ATOM     22  C   UNL     1      -3.064 -10.652  13.515  0.00  0.00    +0.067 C 
BRANCH  22  24
ATOM     24  C   UNL     1      -3.584 -10.101  12.209  0.00  0.00    -0.045 A 
ATOM     26  C   UNL     1      -4.944  -9.835  12.055  0.00  0.00    +0.007 A 
ATOM     27  C   UNL     1      -2.701  -9.858  11.155  0.00  0.00    +0.007 A 
ATOM     30  C   UNL     1      -5.423  -9.325  10.848  0.00  0.00    +0.045 A 
ATOM     31  C   UNL     1      -3.181  -9.349   9.948  0.00  0.00    +0.045 A 
ATOM     32  C   UNL     1      -4.542  -9.082   9.795  0.00  0.00    +0.117 A 
BRANCH  32   8
ATOM      8  O   UNL     1      -5.009  -8.585   8.617  0.00  0.00    -0.507 OA
ATOM     44  H   UNL     1      -5.395  -9.313   8.100  0.00  0.00    +0.292 HD
ENDBRANCH  32   8
ENDBRANCH  22  24
ENDBRANCH  20  22
ENDBRANCH  10  20
ENDBRANCH  13  19
BRANCH  13   2
ATOM      2  O   UNL     1      -6.271 -12.533  16.675  0.00  0.00    -0.379 OA
ATOM     37  H   UNL     1      -6.054 -12.742  15.750  0.00  0.00    +0.211 HD
ENDBRANCH  13   2
BRANCH  16   3
ATOM      3  O   UNL     1      -8.315 -10.440  20.131  0.00  0.00    -0.387 OA
ATOM     38  H   UNL     1      -8.381 -11.385  20.355  0.00  0.00    +0.210 HD
ENDBRANCH  16   3
BRANCH  18   4
ATOM      4  O   UNL     1      -5.746 -11.463  20.810  0.00  0.00    -0.389 OA
ATOM     39  H   UNL     1      -5.546 -12.381  21.061  0.00  0.00    +0.210 HD
ENDBRANCH  18   4
TORSDOF 11
ENDMDL
MODEL 2
REMARK VINA RESULT:      -7.7     28.754     31.397
REMARK  Name = 11882576
REMARK  11 active torsions:
REMARK  status: ('A' for Active; 'I' for Inactive)
REMARK    1  A    between atoms: O_2  and  C_13
REMARK    2  A    between atoms: O_3  and  C_16
REMARK    3  A    between atoms: O_4  and  C_18
REMARK    4  A    between atoms: O_8  and  C_32
REMARK    5  A    between atoms: N_9  and  C_14
REMARK    6  A    between atoms: N_10  and  C_20
REMARK    7  A    between atoms: N_11  and  C_25
REMARK    8  A    between atoms: C_13  and  C_19
REMARK    9  A    between atoms: C_20  and  C_22
REMARK   10  A    between atoms: C_20  and  C_23
REMARK   11  A    between atoms: C_22  and  C_24
REMARK                            x       y       z     vdW  Elec       q    Type
REMARK                         _______ _______ _______ _____ _____    ______ ____
ROOT
ATOM     13  C   UNL     1      16.039   7.288  21.406  0.00  0.00    +0.146 C 
ATOM     14  C   UNL     1      18.513   6.785  21.112  0.00  0.00    +0.109 C 
ATOM     15  C   UNL     1      17.468   7.813  21.561  0.00  0.00    +0.069 C 
ATOM     16  C   UNL     1      18.242   6.280  19.690  0.00  0.00    +0.163 C 
ATOM     17  C   UNL     1      15.778   6.807  19.981  0.00  0.00    +0.078 C 
ATOM     18  C   UNL     1      16.808   5.774  19.522  0.00  0.00    +0.148 C 
ENDROOT
BRANCH  14   9
ATOM      6  O   UNL     1      20.914   5.440  21.904  0.00  0.00    -0.252 OA
ATOM      9  N   UNL     1      19.837   7.362  21.205  0.00  0.00    -0.294 N 
ATOM     11  N   UNL     1      22.094   7.447  21.598  0.00  0.00    -0.269 N 
ATOM     21  C   UNL     1      20.959   6.630  21.602  0.00  0.00    +0.304 C 
ATOM     36  H   UNL     1      19.941   8.359  21.048  0.00  0.00    +0.151 HD
ATOM     41  H   UNL     1      21.958   8.415  21.320  0.00  0.00    +0.156 HD
BRANCH  11  25
ATOM      1  F   UNL     1      26.419   5.781  20.342  0.00  0.00    -0.205 F 
ATOM     25  C   UNL     1      23.421   7.091  21.934  0.00  0.00    +0.037 A 
ATOM     28  C   UNL     1      24.282   6.601  20.952  0.00  0.00    +0.061 A 
ATOM     29  C   UNL     1      23.867   7.230  23.248  0.00  0.00    +0.023 A 
ATOM     33  C   UNL     1      25.590   6.251  21.285  0.00  0.00    +0.125 A 
ATOM     34  C   UNL     1      25.175   6.879  23.580  0.00  0.00    +0.005 A 
ATOM     35  C   UNL     1      26.038   6.390  22.600  0.00  0.00    +0.038 A 
ENDBRANCH  11  25
ENDBRANCH  14   9
BRANCH  13  19
ATOM      5  O   UNL     1      15.388   9.397  22.319  0.00  0.00    -0.273 OA
ATOM     10  N   UNL     1      13.745   7.973  21.488  0.00  0.00    -0.301 N 
ATOM     19  C   UNL     1      15.044   8.345  21.787  0.00  0.00    +0.246 C 
ATOM     40  H   UNL     1      13.556   7.042  21.131  0.00  0.00    +0.150 HD
BRANCH  10  20
ATOM     20  C   UNL     1      12.598   8.805  21.777  0.00  0.00    +0.163 C 
BRANCH  20  23
ATOM      7  O   UNL     1      11.421   6.692  21.552  0.00  0.00    -0.274 OA
ATOM     12  N   UNL     1      10.208   8.577  22.052  0.00  0.00    -0.328 N 
ATOM     23  C   UNL     1      11.375   7.901  21.759  0.00  0.00    +0.231 C 
ATOM     42  H   UNL     1       9.320   8.088  22.090  0.00  0.00    +0.145 HD
ATOM     43  H   UNL     1      10.185   9.577  22.226  0.00  0.00    +0.145 HD
ENDBRANCH  20  23
BRANCH  20  22
ATOM     22  C   UNL     1      12.437   9.942  20.762  0.00  0.00    +0.067 C 
BRANCH  22  24
ATOM     24  C   UNL     1      12.751   9.514  19.350  0.00  0.00    -0.045 A 
ATOM     26  C   UNL     1      11.846   8.724  18.642  0.00  0.00    +0.007 A 
ATOM     27  C   UNL     1      13.948   9.909  18.752  0.00  0.00    +0.007 A 
ATOM     30  C   UNL     1      12.137   8.328  17.336  0.00  0.00    +0.045 A 
ATOM     31  C   UNL     1      14.239   9.513  17.446  0.00  0.00    +0.045 A 
ATOM     32  C   UNL     1      13.334   8.723  16.738  0.00  0.00    +0.117 A 
BRANCH  32   8
ATOM      8  O   UNL     1      13.618   8.338  15.464  0.00  0.00    -0.507 OA
ATOM     44  H   UNL     1      14.497   8.675  15.222  0.00  0.00    +0.292 HD
ENDBRANCH  32   8
ENDBRANCH  22  24
ENDBRANCH  20  22
ENDBRANCH  10  20
ENDBRANCH  13  19
BRANCH  13   2
ATOM      2  O   UNL     1      15.802   6.215  22.310  0.00  0.00    -0.379 OA
ATOM     37  H   UNL     1      16.604   6.080  22.844  0.00  0.00    +0.211 HD
ENDBRANCH  13   2
BRANCH  16   3
ATOM      3  O   UNL     1      19.122   5.188  19.407  0.00  0.00    -0.387 OA
ATOM     38  H   UNL     1      20.029   5.469  19.620  0.00  0.00    +0.210 HD
ENDBRANCH  16   3
BRANCH  18   4
ATOM      4  O   UNL     1      16.588   5.484  18.143  0.00  0.00    -0.389 OA
ATOM     39  H   UNL     1      17.251   4.825  17.873  0.00  0.00    +0.210 HD
ENDBRANCH  18   4
TORSDOF 11
ENDMDL
MODEL 3
REMARK VINA RESULT:      -7.7     29.076     31.546
REMARK  Name = 11882576
REMARK  11 active torsions:
REMARK  status: ('A' for Active; 'I' for Inactive)
REMARK    1  A    between atoms: O_2  and  C_13
REMARK    2  A    between atoms: O_3  and  C_16
REMARK    3  A    between atoms: O_4  and  C_18
REMARK    4  A    between atoms: O_8  and  C_32
REMARK    5  A    between atoms: N_9  and  C_14
REMARK    6  A    between atoms: N_10  and  C_20
REMARK    7  A    between atoms: N_11  and  C_25
REMARK    8  A    between atoms: C_13  and  C_19
REMARK    9  A    between atoms: C_20  and  C_22
REMARK   10  A    between atoms: C_20  and  C_23
REMARK   11  A    between atoms: C_22  and  C_24
REMARK                            x       y       z     vdW  Elec       q    Type
REMARK                         _______ _______ _______ _____ _____    ______ ____
ROOT
ATOM     13  C   UNL     1      15.346   7.058  20.422  0.00  0.00    +0.146 C 
ATOM     14  C   UNL     1      17.741   7.054  21.272  0.00  0.00    +0.109 C 
ATOM     15  C   UNL     1      16.436   7.849  21.147  0.00  0.00    +0.069 C 
ATOM     16  C   UNL     1      18.224   6.531  19.913  0.00  0.00    +0.163 C 
ATOM     17  C   UNL     1      15.833   6.560  19.063  0.00  0.00    +0.078 C 
ATOM     18  C   UNL     1      17.130   5.757  19.174  0.00  0.00    +0.148 C 
ENDROOT
BRANCH  14   9
ATOM      6  O   UNL     1      19.811   6.173  23.045  0.00  0.00    -0.252 OA
ATOM      9  N   UNL     1      18.757   7.877  21.891  0.00  0.00    -0.294 N 
ATOM     11  N   UNL     1      20.575   8.389  23.191  0.00  0.00    -0.269 N 
ATOM     21  C   UNL     1      19.735   7.363  22.748  0.00  0.00    +0.304 C 
ATOM     36  H   UNL     1      18.712   8.883  21.757  0.00  0.00    +0.151 HD
ATOM     41  H   UNL     1      20.374   9.324  22.848  0.00  0.00    +0.156 HD
BRANCH  11  25
ATOM      1  F   UNL     1      25.209   7.401  23.967  0.00  0.00    -0.205 F 
ATOM     25  C   UNL     1      21.682   8.287  24.066  0.00  0.00    +0.037 A 
ATOM     28  C   UNL     1      22.925   7.886  23.575  0.00  0.00    +0.061 A 
ATOM     29  C   UNL     1      21.530   8.588  25.419  0.00  0.00    +0.023 A 
ATOM     33  C   UNL     1      24.015   7.786  24.438  0.00  0.00    +0.125 A 
ATOM     34  C   UNL     1      22.621   8.487  26.282  0.00  0.00    +0.005 A 
ATOM     35  C   UNL     1      23.864   8.087  25.792  0.00  0.00    +0.038 A 
ENDBRANCH  11  25
ENDBRANCH  14   9
BRANCH  13  19
ATOM      5  O   UNL     1      13.862   8.481  19.208  0.00  0.00    -0.273 OA
ATOM     10  N   UNL     1      13.338   7.920  21.404  0.00  0.00    -0.301 N 
ATOM     19  C   UNL     1      14.110   7.892  20.256  0.00  0.00    +0.246 C 
ATOM     40  H   UNL     1      13.676   7.472  22.250  0.00  0.00    +0.150 HD
BRANCH  10  20
ATOM     20  C   UNL     1      12.108   8.670  21.513  0.00  0.00    +0.163 C 
BRANCH  20  23
ATOM      7  O   UNL     1      10.549   8.402  19.669  0.00  0.00    -0.274 OA
ATOM     12  N   UNL     1      10.788   6.676  21.165  0.00  0.00    -0.328 N 
ATOM     23  C   UNL     1      11.063   7.940  20.684  0.00  0.00    +0.231 C 
ATOM     42  H   UNL     1      10.120   6.075  20.694  0.00  0.00    +0.145 HD
ATOM     43  H   UNL     1      11.223   6.304  22.003  0.00  0.00    +0.145 HD
ENDBRANCH  20  23
BRANCH  20  22
ATOM     22  C   UNL     1      12.264  10.114  21.022  0.00  0.00    +0.067 C 
BRANCH  22  24
ATOM     24  C   UNL     1      11.665  11.122  21.973  0.00  0.00    -0.045 A 
ATOM     26  C   UNL     1      11.421  12.426  21.546  0.00  0.00    +0.007 A 
ATOM     27  C   UNL     1      11.355  10.746  23.281  0.00  0.00    +0.007 A 
ATOM     30  C   UNL     1      10.868  13.357  22.425  0.00  0.00    +0.045 A 
ATOM     31  C   UNL     1      10.802  11.678  24.160  0.00  0.00    +0.045 A 
ATOM     32  C   UNL     1      10.558  12.983  23.733  0.00  0.00    +0.117 A 
BRANCH  32   8
ATOM      8  O   UNL     1      10.017  13.890  24.591  0.00  0.00    -0.507 OA
ATOM     44  H   UNL     1      10.718  14.493  24.893  0.00  0.00    +0.292 HD
ENDBRANCH  32   8
ENDBRANCH  22  24
ENDBRANCH  20  22
ENDBRANCH  10  20
ENDBRANCH  13  19
BRANCH  13   2
ATOM      2  O   UNL     1      14.936   5.942  21.206  0.00  0.00    -0.379 OA
ATOM     37  H   UNL     1      15.587   5.811  21.916  0.00  0.00    +0.211 HD
ENDBRANCH  13   2
BRANCH  16   3
ATOM      3  O   UNL     1      19.322   5.638  20.120  0.00  0.00    -0.387 OA
ATOM     38  H   UNL     1      19.449   5.534  21.078  0.00  0.00    +0.210 HD
ENDBRANCH  16   3
BRANCH  18   4
ATOM      4  O   UNL     1      17.599   5.455  17.860  0.00  0.00    -0.389 OA
ATOM     39  H   UNL     1      17.728   6.299  17.394  0.00  0.00    +0.210 HD
ENDBRANCH  18   4
TORSDOF 11
ENDMDL
MODEL 4
REMARK VINA RESULT:      -7.6     28.873     31.393
REMARK  Name = 11882576
REMARK  11 active torsions:
REMARK  status: ('A' for Active; 'I' for Inactive)
REMARK    1  A    between atoms: O_2  and  C_13
REMARK    2  A    between atoms: O_3  and  C_16
REMARK    3  A    between atoms: O_4  and  C_18
REMARK    4  A    between atoms: O_8  and  C_32
REMARK    5  A    between atoms: N_9  and  C_14
REMARK    6  A    between atoms: N_10  and  C_20
REMARK    7  A    between atoms: N_11  and  C_25
REMARK    8  A    between atoms: C_13  and  C_19
REMARK    9  A    between atoms: C_20  and  C_22
REMARK   10  A    between atoms: C_20  and  C_23
REMARK   11  A    between atoms: C_22  and  C_24
REMARK                            x       y       z     vdW  Elec       q    Type
REMARK                         _______ _______ _______ _____ _____    ______ ____
ROOT
ATOM     13  C   UNL     1      15.779   7.262  20.971  0.00  0.00    +0.146 C 
ATOM     14  C   UNL     1      18.290   6.945  21.201  0.00  0.00    +0.109 C 
ATOM     15  C   UNL     1      17.111   7.914  21.346  0.00  0.00    +0.069 C 
ATOM     16  C   UNL     1      18.339   6.310  19.805  0.00  0.00    +0.163 C 
ATOM     17  C   UNL     1      15.835   6.651  19.573  0.00  0.00    +0.078 C 
ATOM     18  C   UNL     1      17.002   5.674  19.416  0.00  0.00    +0.148 C 
ENDROOT
BRANCH  14   9
ATOM      6  O   UNL     1      20.135   6.341  23.307  0.00  0.00    -0.252 OA
ATOM      9  N   UNL     1      19.528   7.635  21.490  0.00  0.00    -0.294 N 
ATOM     11  N   UNL     1      21.489   8.115  22.577  0.00  0.00    -0.269 N 
ATOM     21  C   UNL     1      20.374   7.273  22.543  0.00  0.00    +0.304 C 
ATOM     36  H   UNL     1      19.755   8.466  20.952  0.00  0.00    +0.151 HD
ATOM     41  H   UNL     1      21.535   8.842  21.867  0.00  0.00    +0.156 HD
BRANCH  11  25
ATOM      1  F   UNL     1      23.405   9.224  26.838  0.00  0.00    -0.205 F 
ATOM     25  C   UNL     1      22.573   8.083  23.485  0.00  0.00    +0.037 A 
ATOM     28  C   UNL     1      22.452   8.682  24.739  0.00  0.00    +0.061 A 
ATOM     29  C   UNL     1      23.764   7.451  23.126  0.00  0.00    +0.023 A 
ATOM     33  C   UNL     1      23.521   8.650  25.633  0.00  0.00    +0.125 A 
ATOM     34  C   UNL     1      24.833   7.419  24.020  0.00  0.00    +0.005 A 
ATOM     35  C   UNL     1      24.712   8.018  25.274  0.00  0.00    +0.038 A 
ENDBRANCH  11  25
ENDBRANCH  14   9
BRANCH  13  19
ATOM      5  O   UNL     1      14.851   9.417  21.416  0.00  0.00    -0.273 OA
ATOM     10  N   UNL     1      13.439   7.706  20.712  0.00  0.00    -0.301 N 
ATOM     19  C   UNL     1      14.660   8.258  21.056  0.00  0.00    +0.246 C 
ATOM     40  H   UNL     1      13.372   6.712  20.516  0.00  0.00    +0.150 HD
BRANCH  10  20
ATOM     20  C   UNL     1      12.200   8.449  20.735  0.00  0.00    +0.163 C 
BRANCH  20  23
ATOM      7  O   UNL     1      10.701   8.179  22.627  0.00  0.00    -0.274 OA
ATOM     12  N   UNL     1      10.994   6.406  21.197  0.00  0.00    -0.328 N 
ATOM     23  C   UNL     1      11.239   7.691  21.637  0.00  0.00    +0.231 C 
ATOM     42  H   UNL     1      10.357   5.797  21.700  0.00  0.00    +0.145 HD
ATOM     43  H   UNL     1      11.442   6.016  20.374  0.00  0.00    +0.145 HD
ENDBRANCH  20  23
BRANCH  20  22
ATOM     22  C   UNL     1      11.598   8.616  19.335  0.00  0.00    +0.067 C 
BRANCH  22  24
ATOM     24  C   UNL     1      12.584   9.177  18.339  0.00  0.00    -0.045 A 
ATOM     26  C   UNL     1      13.016   8.395  17.268  0.00  0.00    +0.007 A 
ATOM     27  C   UNL     1      13.063  10.479  18.490  0.00  0.00    +0.007 A 
ATOM     30  C   UNL     1      13.927   8.914  16.348  0.00  0.00    +0.045 A 
ATOM     31  C   UNL     1      13.975  10.997  17.570  0.00  0.00    +0.045 A 
ATOM     32  C   UNL     1      14.406  10.215  16.499  0.00  0.00    +0.117 A 
BRANCH  32   8
ATOM      8  O   UNL     1      15.295  10.722  15.601  0.00  0.00    -0.507 OA
ATOM     44  H   UNL     1      15.567  10.013  14.993  0.00  0.00    +0.292 HD
ENDBRANCH  32   8
ENDBRANCH  22  24
ENDBRANCH  20  22
ENDBRANCH  10  20
ENDBRANCH  13  19
BRANCH  13   2
ATOM      2  O   UNL     1      15.441   6.246  21.909  0.00  0.00    -0.379 OA
ATOM     37  H   UNL     1      14.749   5.686  21.519  0.00  0.00    +0.211 HD
ENDBRANCH  13   2
BRANCH  16   3
ATOM      3  O   UNL     1      19.328   5.276  19.797  0.00  0.00    -0.387 OA
ATOM     38  H   UNL     1      20.126   5.627  19.365  0.00  0.00    +0.210 HD
ENDBRANCH  16   3
BRANCH  18   4
ATOM      4  O   UNL     1      17.078   5.261  18.053  0.00  0.00    -0.389 OA
ATOM     39  H   UNL     1      16.895   4.306  18.025  0.00  0.00    +0.210 HD
ENDBRANCH  18   4
TORSDOF 11
ENDMDL
MODEL 5
REMARK VINA RESULT:      -7.6      3.935      7.788
REMARK  Name = 11882576
REMARK  11 active torsions:
REMARK  status: ('A' for Active; 'I' for Inactive)
REMARK    1  A    between atoms: O_2  and  C_13
REMARK    2  A    between atoms: O_3  and  C_16
REMARK    3  A    between atoms: O_4  and  C_18
REMARK    4  A    between atoms: O_8  and  C_32
REMARK    5  A    between atoms: N_9  and  C_14
REMARK    6  A    between atoms: N_10  and  C_20
REMARK    7  A    between atoms: N_11  and  C_25
REMARK    8  A    between atoms: C_13  and  C_19
REMARK    9  A    between atoms: C_20  and  C_22
REMARK   10  A    between atoms: C_20  and  C_23
REMARK   11  A    between atoms: C_22  and  C_24
REMARK                            x       y       z     vdW  Elec       q    Type
REMARK                         _______ _______ _______ _____ _____    ______ ____
ROOT
ATOM     13  C   UNL     1      -3.920 -10.617  11.445  0.00  0.00    +0.146 C 
ATOM     14  C   UNL     1      -4.481  -9.860   9.085  0.00  0.00    +0.109 C 
ATOM     15  C   UNL     1      -4.676  -9.604  10.583  0.00  0.00    +0.069 C 
ATOM     16  C   UNL     1      -4.827 -11.305   8.703  0.00  0.00    +0.163 C 
ATOM     17  C   UNL     1      -4.288 -12.050  11.067  0.00  0.00    +0.078 C 
ATOM     18  C   UNL     1      -4.090 -12.323   9.576  0.00  0.00    +0.148 C 
ENDROOT
BRANCH  14   9
ATOM      6  O   UNL     1      -7.200  -9.117   9.593  0.00  0.00    -0.252 OA
ATOM      9  N   UNL     1      -5.279  -8.926   8.321  0.00  0.00    -0.294 N 
ATOM     11  N   UNL     1      -7.118  -7.690   7.730  0.00  0.00    -0.269 N 
ATOM     21  C   UNL     1      -6.605  -8.619   8.640  0.00  0.00    +0.304 C 
ATOM     36  H   UNL     1      -4.883  -8.533   7.473  0.00  0.00    +0.151 HD
ATOM     41  H   UNL     1      -6.489  -7.376   6.996  0.00  0.00    +0.156 HD
BRANCH  11  25
ATOM      1  F   UNL     1     -10.185  -4.211   8.974  0.00  0.00    -0.205 F 
ATOM     25  C   UNL     1      -8.414  -7.125   7.704  0.00  0.00    +0.037 A 
ATOM     28  C   UNL     1      -8.665  -5.922   8.366  0.00  0.00    +0.061 A 
ATOM     29  C   UNL     1      -9.441  -7.770   7.016  0.00  0.00    +0.023 A 
ATOM     33  C   UNL     1      -9.943  -5.366   8.339  0.00  0.00    +0.125 A 
ATOM     34  C   UNL     1     -10.720  -7.214   6.991  0.00  0.00    +0.005 A 
ATOM     35  C   UNL     1     -10.971  -6.012   7.651  0.00  0.00    +0.038 A 
ENDBRANCH  11  25
ENDBRANCH  14   9
BRANCH  13  19
ATOM      5  O   UNL     1      -5.270  -9.947  13.297  0.00  0.00    -0.273 OA
ATOM     10  N   UNL     1      -3.097 -10.678  13.694  0.00  0.00    -0.301 N 
ATOM     19  C   UNL     1      -4.191 -10.379  12.901  0.00  0.00    +0.246 C 
ATOM     40  H   UNL     1      -2.218 -10.944  13.261  0.00  0.00    +0.150 HD
BRANCH  10  20
ATOM     20  C   UNL     1      -3.091 -10.513  15.130  0.00  0.00    +0.163 C 
BRANCH  20  23
ATOM      7  O   UNL     1      -0.865  -9.554  14.975  0.00  0.00    -0.274 OA
ATOM     12  N   UNL     1      -1.312 -11.020  16.685  0.00  0.00    -0.328 N 
ATOM     23  C   UNL     1      -1.644 -10.307  15.551  0.00  0.00    +0.231 C 
ATOM     42  H   UNL     1      -0.381 -10.960  17.082  0.00  0.00    +0.145 HD
ATOM     43  H   UNL     1      -1.967 -11.636  17.155  0.00  0.00    +0.145 HD
ENDBRANCH  20  23
BRANCH  20  22
ATOM     22  C   UNL     1      -3.692 -11.723  15.855  0.00  0.00    +0.067 C 
BRANCH  22  24
ATOM     24  C   UNL     1      -4.650 -11.329  16.953  0.00  0.00    -0.045 A 
ATOM     26  C   UNL     1      -4.430 -11.761  18.260  0.00  0.00    +0.007 A 
ATOM     27  C   UNL     1      -5.757 -10.532  16.658  0.00  0.00    +0.007 A 
ATOM     30  C   UNL     1      -5.316 -11.396  19.274  0.00  0.00    +0.045 A 
ATOM     31  C   UNL     1      -6.643 -10.168  17.672  0.00  0.00    +0.045 A 
ATOM     32  C   UNL     1      -6.422 -10.599  18.980  0.00  0.00    +0.117 A 
BRANCH  32   8
ATOM      8  O   UNL     1      -7.287 -10.244  19.969  0.00  0.00    -0.507 OA
ATOM     44  H   UNL     1      -8.007  -9.716  19.583  0.00  0.00    +0.292 HD
ENDBRANCH  32   8
ENDBRANCH  22  24
ENDBRANCH  20  22
ENDBRANCH  10  20
ENDBRANCH  13  19
BRANCH  13   2
ATOM      2  O   UNL     1      -2.515 -10.445  11.298  0.00  0.00    -0.379 OA
ATOM     37  H   UNL     1      -2.092 -11.320  11.335  0.00  0.00    +0.211 HD
ENDBRANCH  13   2
BRANCH  16   3
ATOM      3  O   UNL     1      -4.437 -11.535   7.346  0.00  0.00    -0.387 OA
ATOM     38  H   UNL     1      -3.501 -11.797   7.342  0.00  0.00    +0.210 HD
ENDBRANCH  16   3
BRANCH  18   4
ATOM      4  O   UNL     1      -4.592 -13.624   9.274  0.00  0.00    -0.389 OA
ATOM     39  H   UNL     1      -4.757 -14.078  10.118  0.00  0.00    +0.210 HD
ENDBRANCH  18   4
TORSDOF 11
ENDMDL
MODEL 6
REMARK VINA RESULT:      -7.5     27.653     30.066
REMARK  Name = 11882576
REMARK  11 active torsions:
REMARK  status: ('A' for Active; 'I' for Inactive)
REMARK    1  A    between atoms: O_2  and  C_13
REMARK    2  A    between atoms: O_3  and  C_16
REMARK    3  A    between atoms: O_4  and  C_18
REMARK    4  A    between atoms: O_8  and  C_32
REMARK    5  A    between atoms: N_9  and  C_14
REMARK    6  A    between atoms: N_10  and  C_20
REMARK    7  A    between atoms: N_11  and  C_25
REMARK    8  A    between atoms: C_13  and  C_19
REMARK    9  A    between atoms: C_20  and  C_22
REMARK   10  A    between atoms: C_20  and  C_23
REMARK   11  A    between atoms: C_22  and  C_24
REMARK                            x       y       z     vdW  Elec       q    Type
REMARK                         _______ _______ _______ _____ _____    ______ ____
ROOT
ATOM     13  C   UNL     1      13.057   7.963  17.969  0.00  0.00    +0.146 C 
ATOM     14  C   UNL     1      14.018   9.636  16.315  0.00  0.00    +0.109 C 
ATOM     15  C   UNL     1      14.087   9.070  17.738  0.00  0.00    +0.069 C 
ATOM     16  C   UNL     1      12.600  10.092  15.950  0.00  0.00    +0.163 C 
ATOM     17  C   UNL     1      11.647   8.437  17.620  0.00  0.00    +0.078 C 
ATOM     18  C   UNL     1      11.562   8.996  16.199  0.00  0.00    +0.148 C 
ENDROOT
BRANCH  14   9
ATOM      6  O   UNL     1      15.514  10.325  13.972  0.00  0.00    -0.252 OA
ATOM      9  N   UNL     1      14.956  10.730  16.178  0.00  0.00    -0.294 N 
ATOM     11  N   UNL     1      16.478  12.108  15.158  0.00  0.00    -0.269 N 
ATOM     21  C   UNL     1      15.647  10.996  14.993  0.00  0.00    +0.304 C 
ATOM     36  H   UNL     1      15.178  11.281  17.001  0.00  0.00    +0.151 HD
ATOM     41  H   UNL     1      16.469  12.552  16.072  0.00  0.00    +0.156 HD
BRANCH  11  25
ATOM      1  F   UNL     1      20.806  12.510  13.119  0.00  0.00    -0.205 F 
ATOM     25  C   UNL     1      17.338  12.698  14.203  0.00  0.00    +0.037 A 
ATOM     28  C   UNL     1      18.675  12.305  14.131  0.00  0.00    +0.061 A 
ATOM     29  C   UNL     1      16.850  13.672  13.333  0.00  0.00    +0.023 A 
ATOM     33  C   UNL     1      19.522  12.887  13.189  0.00  0.00    +0.125 A 
ATOM     34  C   UNL     1      17.698  14.255  12.392  0.00  0.00    +0.005 A 
ATOM     35  C   UNL     1      19.034  13.863  12.319  0.00  0.00    +0.038 A 
ENDBRANCH  11  25
ENDBRANCH  14   9
BRANCH  13  19
ATOM      5  O   UNL     1      13.957   6.688  19.776  0.00  0.00    -0.273 OA
ATOM     10  N   UNL     1      12.090   8.023  20.160  0.00  0.00    -0.301 N 
ATOM     19  C   UNL     1      13.106   7.484  19.390  0.00  0.00    +0.246 C 
ATOM     40  H   UNL     1      11.380   8.603  19.724  0.00  0.00    +0.150 HD
BRANCH  10  20
ATOM     20  C   UNL     1      11.902   7.704  21.556  0.00  0.00    +0.163 C 
BRANCH  20  23
ATOM      7  O   UNL     1      11.022   5.450  21.328  0.00  0.00    -0.274 OA
ATOM     12  N   UNL     1       9.630   7.098  22.118  0.00  0.00    -0.328 N 
ATOM     23  C   UNL     1      10.831   6.626  21.629  0.00  0.00    +0.231 C 
ATOM     42  H   UNL     1       8.836   6.477  22.233  0.00  0.00    +0.145 HD
ATOM     43  H   UNL     1       9.487   8.071  22.368  0.00  0.00    +0.145 HD
ENDBRANCH  20  23
BRANCH  20  22
ATOM     22  C   UNL     1      11.484   8.927  22.380  0.00  0.00    +0.067 C 
BRANCH  22  24
ATOM     24  C   UNL     1      12.283  10.161  22.039  0.00  0.00    -0.045 A 
ATOM     26  C   UNL     1      11.650  11.273  21.485  0.00  0.00    +0.007 A 
ATOM     27  C   UNL     1      13.658  10.189  22.278  0.00  0.00    +0.007 A 
ATOM     30  C   UNL     1      12.389  12.413  21.170  0.00  0.00    +0.045 A 
ATOM     31  C   UNL     1      14.397  11.329  21.962  0.00  0.00    +0.045 A 
ATOM     32  C   UNL     1      13.763  12.441  21.409  0.00  0.00    +0.117 A 
BRANCH  32   8
ATOM      8  O   UNL     1      14.485  13.553  21.102  0.00  0.00    -0.507 OA
ATOM     44  H   UNL     1      14.086  13.983  20.326  0.00  0.00    +0.292 HD
ENDBRANCH  32   8
ENDBRANCH  22  24
ENDBRANCH  20  22
ENDBRANCH  10  20
ENDBRANCH  13  19
BRANCH  13   2
ATOM      2  O   UNL     1      13.371   6.820  17.182  0.00  0.00    -0.379 OA
ATOM     37  H   UNL     1      14.338   6.731  17.142  0.00  0.00    +0.211 HD
ENDBRANCH  13   2
BRANCH  16   3
ATOM      3  O   UNL     1      12.559  10.419  14.558  0.00  0.00    -0.387 OA
ATOM     38  H   UNL     1      12.180   9.661  14.081  0.00  0.00    +0.210 HD
ENDBRANCH  16   3
BRANCH  18   4
ATOM      4  O   UNL     1      10.262   9.550  15.999  0.00  0.00    -0.389 OA
ATOM     39  H   UNL     1       9.992   9.972  16.833  0.00  0.00    +0.210 HD
ENDBRANCH  18   4
TORSDOF 11
ENDMDL
MODEL 7
REMARK VINA RESULT:      -7.4     19.797     23.013
REMARK  Name = 11882576
REMARK  11 active torsions:
REMARK  status: ('A' for Active; 'I' for Inactive)
REMARK    1  A    between atoms: O_2  and  C_13
REMARK    2  A    between atoms: O_3  and  C_16
REMARK    3  A    between atoms: O_4  and  C_18
REMARK    4  A    between atoms: O_8  and  C_32
REMARK    5  A    between atoms: N_9  and  C_14
REMARK    6  A    between atoms: N_10  and  C_20
REMARK    7  A    between atoms: N_11  and  C_25
REMARK    8  A    between atoms: C_13  and  C_19
REMARK    9  A    between atoms: C_20  and  C_22
REMARK   10  A    between atoms: C_20  and  C_23
REMARK   11  A    between atoms: C_22  and  C_24
REMARK                            x       y       z     vdW  Elec       q    Type
REMARK                         _______ _______ _______ _____ _____    ______ ____
ROOT
ATOM     13  C   UNL     1     -14.184   2.601  30.481  0.00  0.00    +0.146 C 
ATOM     14  C   UNL     1     -15.482   2.807  28.306  0.00  0.00    +0.109 C 
ATOM     15  C   UNL     1     -14.967   3.533  29.554  0.00  0.00    +0.069 C 
ATOM     16  C   UNL     1     -16.287   1.552  28.667  0.00  0.00    +0.163 C 
ATOM     17  C   UNL     1     -15.005   1.367  30.848  0.00  0.00    +0.078 C 
ATOM     18  C   UNL     1     -15.517   0.627  29.612  0.00  0.00    +0.148 C 
ENDROOT
BRANCH  14   9
ATOM      6  O   UNL     1     -15.623   2.897  25.447  0.00  0.00    -0.252 OA
ATOM      9  N   UNL     1     -16.279   3.712  27.508  0.00  0.00    -0.294 N 
ATOM     11  N   UNL     1     -17.149   4.673  25.617  0.00  0.00    -0.269 N 
ATOM     21  C   UNL     1     -16.290   3.688  26.110  0.00  0.00    +0.304 C 
ATOM     36  H   UNL     1     -16.796   4.447  27.982  0.00  0.00    +0.151 HD
ATOM     41  H   UNL     1     -17.629   5.247  26.305  0.00  0.00    +0.156 HD
BRANCH  11  25
ATOM      1  F   UNL     1     -15.857   6.530  21.381  0.00  0.00    -0.205 F 
ATOM     25  C   UNL     1     -17.439   4.975  24.265  0.00  0.00    +0.037 A 
ATOM     28  C   UNL     1     -16.486   5.617  23.474  0.00  0.00    +0.061 A 
ATOM     29  C   UNL     1     -18.677   4.630  23.724  0.00  0.00    +0.023 A 
ATOM     33  C   UNL     1     -16.772   5.914  22.142  0.00  0.00    +0.125 A 
ATOM     34  C   UNL     1     -18.963   4.928  22.392  0.00  0.00    +0.005 A 
ATOM     35  C   UNL     1     -18.011   5.569  21.601  0.00  0.00    +0.038 A 
ENDBRANCH  11  25
ENDBRANCH  14   9
BRANCH  13  19
ATOM      5  O   UNL     1     -12.936   2.853  32.502  0.00  0.00    -0.273 OA
ATOM     10  N   UNL     1     -14.409   4.540  31.870  0.00  0.00    -0.301 N 
ATOM     19  C   UNL     1     -13.758   3.328  31.723  0.00  0.00    +0.246 C 
ATOM     40  H   UNL     1     -15.141   4.803  31.217  0.00  0.00    +0.150 HD
BRANCH  10  20
ATOM     20  C   UNL     1     -14.195   5.422  32.995  0.00  0.00    +0.163 C 
BRANCH  20  23
ATOM      7  O   UNL     1     -16.351   5.330  34.109  0.00  0.00    -0.274 OA
ATOM     12  N   UNL     1     -14.593   4.169  35.022  0.00  0.00    -0.328 N 
ATOM     23  C   UNL     1     -15.168   5.002  34.085  0.00  0.00    +0.231 C 
ATOM     42  H   UNL     1     -15.138   3.802  35.796  0.00  0.00    +0.145 HD
ATOM     43  H   UNL     1     -13.615   3.901  34.988  0.00  0.00    +0.145 HD
ENDBRANCH  20  23
BRANCH  20  22
ATOM     22  C   UNL     1     -14.408   6.895  32.626  0.00  0.00    +0.067 C 
BRANCH  22  24
ATOM     24  C   UNL     1     -13.298   7.788  33.124  0.00  0.00    -0.045 A 
ATOM     26  C   UNL     1     -12.429   8.393  32.217  0.00  0.00    +0.007 A 
ATOM     27  C   UNL     1     -13.142   8.008  34.493  0.00  0.00    +0.007 A 
ATOM     30  C   UNL     1     -11.404   9.219  32.678  0.00  0.00    +0.045 A 
ATOM     31  C   UNL     1     -12.116   8.833  34.954  0.00  0.00    +0.045 A 
ATOM     32  C   UNL     1     -11.247   9.439  34.047  0.00  0.00    +0.117 A 
BRANCH  32   8
ATOM      8  O   UNL     1     -10.247  10.244  34.497  0.00  0.00    -0.507 OA
ATOM     44  H   UNL     1     -10.222  11.050  33.952  0.00  0.00    +0.292 HD
ENDBRANCH  32   8
ENDBRANCH  22  24
ENDBRANCH  20  22
ENDBRANCH  10  20
ENDBRANCH  13  19
BRANCH  13   2
ATOM      2  O   UNL     1     -12.972   2.187  29.862  0.00  0.00    -0.379 OA
ATOM     37  H   UNL     1     -13.044   1.241  29.649  0.00  0.00    +0.211 HD
ENDBRANCH  13   2
BRANCH  16   3
ATOM      3  O   UNL     1     -16.565   0.816  27.472  0.00  0.00    -0.387 OA
ATOM     38  H   UNL     1     -15.872   1.024  26.822  0.00  0.00    +0.210 HD
ENDBRANCH  16   3
BRANCH  18   4
ATOM      4  O   UNL     1     -16.391  -0.420  30.030  0.00  0.00    -0.389 OA
ATOM     39  H   UNL     1     -17.207  -0.007  30.361  0.00  0.00    +0.210 HD
ENDBRANCH  18   4
TORSDOF 11
ENDMDL
MODEL 8
REMARK VINA RESULT:      -7.3     18.130     20.286
REMARK  Name = 11882576
REMARK  11 active torsions:
REMARK  status: ('A' for Active; 'I' for Inactive)
REMARK    1  A    between atoms: O_2  and  C_13
REMARK    2  A    between atoms: O_3  and  C_16
REMARK    3  A    between atoms: O_4  and  C_18
REMARK    4  A    between atoms: O_8  and  C_32
REMARK    5  A    between atoms: N_9  and  C_14
REMARK    6  A    between atoms: N_10  and  C_20
REMARK    7  A    between atoms: N_11  and  C_25
REMARK    8  A    between atoms: C_13  and  C_19
REMARK    9  A    between atoms: C_20  and  C_22
REMARK   10  A    between atoms: C_20  and  C_23
REMARK   11  A    between atoms: C_22  and  C_24
REMARK                            x       y       z     vdW  Elec       q    Type
REMARK                         _______ _______ _______ _____ _____    ______ ____
ROOT
ATOM     13  C   UNL     1     -16.944   3.466  23.883  0.00  0.00    +0.146 C 
ATOM     14  C   UNL     1     -16.422   2.987  26.324  0.00  0.00    +0.109 C 
ATOM     15  C   UNL     1     -15.998   3.736  25.055  0.00  0.00    +0.069 C 
ATOM     16  C   UNL     1     -16.600   1.485  26.068  0.00  0.00    +0.163 C 
ATOM     17  C   UNL     1     -17.097   1.968  23.628  0.00  0.00    +0.078 C 
ATOM     18  C   UNL     1     -17.528   1.210  24.883  0.00  0.00    +0.148 C 
ENDROOT
BRANCH  14   9
ATOM      6  O   UNL     1     -16.937   3.094  29.139  0.00  0.00    -0.252 OA
ATOM      9  N   UNL     1     -15.452   3.215  27.373  0.00  0.00    -0.294 N 
ATOM     11  N   UNL     1     -14.651   3.487  29.504  0.00  0.00    -0.269 N 
ATOM     21  C   UNL     1     -15.790   3.251  28.728  0.00  0.00    +0.304 C 
ATOM     36  H   UNL     1     -14.496   3.432  27.107  0.00  0.00    +0.151 HD
ATOM     41  H   UNL     1     -13.773   3.594  29.004  0.00  0.00    +0.156 HD
BRANCH  11  25
ATOM      1  F   UNL     1     -14.239   1.453  33.833  0.00  0.00    -0.205 F 
ATOM     25  C   UNL     1     -14.567   3.596  30.911  0.00  0.00    +0.037 A 
ATOM     28  C   UNL     1     -14.443   2.447  31.694  0.00  0.00    +0.061 A 
ATOM     29  C   UNL     1     -14.608   4.852  31.517  0.00  0.00    +0.023 A 
ATOM     33  C   UNL     1     -14.359   2.556  33.081  0.00  0.00    +0.125 A 
ATOM     34  C   UNL     1     -14.526   4.959  32.905  0.00  0.00    +0.005 A 
ATOM     35  C   UNL     1     -14.401   3.812  33.688  0.00  0.00    +0.038 A 
ENDBRANCH  11  25
ENDBRANCH  14   9
BRANCH  13  19
ATOM      5  O   UNL     1     -17.142   4.214  21.624  0.00  0.00    -0.273 OA
ATOM     10  N   UNL     1     -15.184   4.674  22.796  0.00  0.00    -0.301 N 
ATOM     19  C   UNL     1     -16.459   4.157  22.643  0.00  0.00    +0.246 C 
ATOM     40  H   UNL     1     -14.666   4.495  23.650  0.00  0.00    +0.150 HD
BRANCH  10  20
ATOM     20  C   UNL     1     -14.480   5.366  21.741  0.00  0.00    +0.163 C 
BRANCH  20  23
ATOM      7  O   UNL     1     -12.135   5.959  21.510  0.00  0.00    -0.274 OA
ATOM     12  N   UNL     1     -12.720   4.385  23.075  0.00  0.00    -0.328 N 
ATOM     23  C   UNL     1     -12.995   5.278  22.061  0.00  0.00    +0.231 C 
ATOM     42  H   UNL     1     -11.769   4.241  23.398  0.00  0.00    +0.145 HD
ATOM     43  H   UNL     1     -13.442   3.831  23.526  0.00  0.00    +0.145 HD
ENDBRANCH  20  23
BRANCH  20  22
ATOM     22  C   UNL     1     -14.913   6.832  21.618  0.00  0.00    +0.067 C 
BRANCH  22  24
ATOM     24  C   UNL     1     -15.124   7.260  20.187  0.00  0.00    -0.045 A 
ATOM     26  C   UNL     1     -14.164   8.039  19.542  0.00  0.00    +0.007 A 
ATOM     27  C   UNL     1     -16.282   6.876  19.508  0.00  0.00    +0.007 A 
ATOM     30  C   UNL     1     -14.360   8.434  18.218  0.00  0.00    +0.045 A 
ATOM     31  C   UNL     1     -16.478   7.273  18.185  0.00  0.00    +0.045 A 
ATOM     32  C   UNL     1     -15.517   8.051  17.540  0.00  0.00    +0.117 A 
BRANCH  32   8
ATOM      8  O   UNL     1     -15.709   8.436  16.249  0.00  0.00    -0.507 OA
ATOM     44  H   UNL     1     -15.234   7.822  15.663  0.00  0.00    +0.292 HD
ENDBRANCH  32   8
ENDBRANCH  22  24
ENDBRANCH  20  22
ENDBRANCH  10  20
ENDBRANCH  13  19
BRANCH  13   2
ATOM      2  O   UNL     1     -18.227   4.027  24.140  0.00  0.00    -0.379 OA
ATOM     37  H   UNL     1     -18.855   3.300  24.292  0.00  0.00    +0.211 HD
ENDBRANCH  13   2
BRANCH  16   3
ATOM      3  O   UNL     1     -17.184   0.881  27.226  0.00  0.00    -0.387 OA
ATOM     38  H   UNL     1     -16.825   1.326  28.012  0.00  0.00    +0.210 HD
ENDBRANCH  16   3
BRANCH  18   4
ATOM      4  O   UNL     1     -17.506  -0.190  24.607  0.00  0.00    -0.389 OA
ATOM     39  H   UNL     1     -16.609  -0.415  24.306  0.00  0.00    +0.210 HD
ENDBRANCH  18   4
TORSDOF 11
ENDMDL
MODEL 9
REMARK VINA RESULT:      -7.3      1.827      2.316
REMARK  Name = 11882576
REMARK  11 active torsions:
REMARK  status: ('A' for Active; 'I' for Inactive)
REMARK    1  A    between atoms: O_2  and  C_13
REMARK    2  A    between atoms: O_3  and  C_16
REMARK    3  A    between atoms: O_4  and  C_18
REMARK    4  A    between atoms: O_8  and  C_32
REMARK    5  A    between atoms: N_9  and  C_14
REMARK    6  A    between atoms: N_10  and  C_20
REMARK    7  A    between atoms: N_11  and  C_25
REMARK    8  A    between atoms: C_13  and  C_19
REMARK    9  A    between atoms: C_20  and  C_22
REMARK   10  A    between atoms: C_20  and  C_23
REMARK   11  A    between atoms: C_22  and  C_24
REMARK                            x       y       z     vdW  Elec       q    Type
REMARK                         _______ _______ _______ _____ _____    ______ ____
ROOT
ATOM     13  C   UNL     1      -5.462 -12.549  16.609  0.00  0.00    +0.146 C 
ATOM     14  C   UNL     1      -6.867 -10.981  18.032  0.00  0.00    +0.109 C 
ATOM     15  C   UNL     1      -6.343 -11.298  16.627  0.00  0.00    +0.069 C 
ATOM     16  C   UNL     1      -5.731 -10.893  19.059  0.00  0.00    +0.163 C 
ATOM     17  C   UNL     1      -4.324 -12.440  17.622  0.00  0.00    +0.078 C 
ATOM     18  C   UNL     1      -4.833 -12.132  19.030  0.00  0.00    +0.148 C 
ENDROOT
BRANCH  14   9
ATOM      6  O   UNL     1      -9.342 -10.524  16.664  0.00  0.00    -0.252 OA
ATOM      9  N   UNL     1      -7.625  -9.748  18.004  0.00  0.00    -0.294 N 
ATOM     11  N   UNL     1      -9.331  -8.315  17.462  0.00  0.00    -0.269 N 
ATOM     21  C   UNL     1      -8.830  -9.611  17.308  0.00  0.00    +0.304 C 
ATOM     36  H   UNL     1      -7.227  -8.926  18.447  0.00  0.00    +0.151 HD
ATOM     41  H   UNL     1      -8.780  -7.678  18.031  0.00  0.00    +0.156 HD
BRANCH  11  25
ATOM      1  F   UNL     1     -14.077  -8.522  16.768  0.00  0.00    -0.205 F 
ATOM     25  C   UNL     1     -10.520  -7.775  16.919  0.00  0.00    +0.037 A 
ATOM     28  C   UNL     1     -11.736  -8.429  17.115  0.00  0.00    +0.061 A 
ATOM     29  C   UNL     1     -10.475  -6.588  16.188  0.00  0.00    +0.023 A 
ATOM     33  C   UNL     1     -12.908  -7.895  16.580  0.00  0.00    +0.125 A 
ATOM     34  C   UNL     1     -11.647  -6.055  15.653  0.00  0.00    +0.005 A 
ATOM     35  C   UNL     1     -12.864  -6.707  15.849  0.00  0.00    +0.038 A 
ENDBRANCH  11  25
ENDBRANCH  14   9
BRANCH  13  19
ATOM      5  O   UNL     1      -5.505 -12.418  14.225  0.00  0.00    -0.273 OA
ATOM     10  N   UNL     1      -3.708 -13.470  15.263  0.00  0.00    -0.301 N 
ATOM     19  C   UNL     1      -4.911 -12.787  15.234  0.00  0.00    +0.246 C 
ATOM     40  H   UNL     1      -3.343 -13.813  16.146  0.00  0.00    +0.150 HD
BRANCH  10  20
ATOM     20  C   UNL     1      -2.982 -13.844  14.070  0.00  0.00    +0.163 C 
BRANCH  20  23
ATOM      7  O   UNL     1      -1.328 -15.588  13.714  0.00  0.00    -0.274 OA
ATOM     12  N   UNL     1      -2.763 -15.783  15.496  0.00  0.00    -0.328 N 
ATOM     23  C   UNL     1      -2.270 -15.155  14.372  0.00  0.00    +0.231 C 
ATOM     42  H   UNL     1      -2.366 -16.659  15.818  0.00  0.00    +0.145 HD
ATOM     43  H   UNL     1      -3.540 -15.412  16.034  0.00  0.00    +0.145 HD
ENDBRANCH  20  23
BRANCH  20  22
ATOM     22  C   UNL     1      -1.971 -12.773  13.647  0.00  0.00    +0.067 C 
BRANCH  22  24
ATOM     24  C   UNL     1      -2.451 -11.945  12.481  0.00  0.00    -0.045 A 
ATOM     26  C   UNL     1      -2.086 -10.603  12.379  0.00  0.00    +0.007 A 
ATOM     27  C   UNL     1      -3.262 -12.523  11.503  0.00  0.00    +0.007 A 
ATOM     30  C   UNL     1      -2.531  -9.838  11.300  0.00  0.00    +0.045 A 
ATOM     31  C   UNL     1      -3.707 -11.758  10.424  0.00  0.00    +0.045 A 
ATOM     32  C   UNL     1      -3.341 -10.416  10.322  0.00  0.00    +0.117 A 
BRANCH  32   8
ATOM      8  O   UNL     1      -3.775  -9.671   9.270  0.00  0.00    -0.507 OA
ATOM     44  H   UNL     1      -3.253  -8.852   9.228  0.00  0.00    +0.292 HD
ENDBRANCH  32   8
ENDBRANCH  22  24
ENDBRANCH  20  22
ENDBRANCH  10  20
ENDBRANCH  13  19
BRANCH  13   2
ATOM      2  O   UNL     1      -6.236 -13.707  16.903  0.00  0.00    -0.379 OA
ATOM     37  H   UNL     1      -6.758 -13.532  17.704  0.00  0.00    +0.211 HD
ENDBRANCH  13   2
BRANCH  16   3
ATOM      3  O   UNL     1      -6.294 -10.795  20.371  0.00  0.00    -0.387 OA
ATOM     38  H   UNL     1      -6.160  -9.886  20.689  0.00  0.00    +0.210 HD
ENDBRANCH  16   3
BRANCH  18   4
ATOM      4  O   UNL     1      -3.714 -11.899  19.885  0.00  0.00    -0.389 OA
ATOM     39  H   UNL     1      -2.909 -12.061  19.364  0.00  0.00    +0.210 HD
ENDBRANCH  18   4
TORSDOF 11
ENDMDL
MODEL 10
REMARK VINA RESULT:      -7.3     29.344     31.824
REMARK  Name = 11882576
REMARK  11 active torsions:
REMARK  status: ('A' for Active; 'I' for Inactive)
REMARK    1  A    between atoms: O_2  and  C_13
REMARK    2  A    between atoms: O_3  and  C_16
REMARK    3  A    between atoms: O_4  and  C_18
REMARK    4  A    between atoms: O_8  and  C_32
REMARK    5  A    between atoms: N_9  and  C_14
REMARK    6  A    between atoms: N_10  and  C_20
REMARK    7  A    between atoms: N_11  and  C_25
REMARK    8  A    between atoms: C_13  and  C_19
REMARK    9  A    between atoms: C_20  and  C_22
REMARK   10  A    between atoms: C_20  and  C_23
REMARK   11  A    between atoms: C_22  and  C_24
REMARK                            x       y       z     vdW  Elec       q    Type
REMARK                         _______ _______ _______ _____ _____    ______ ____
ROOT
ATOM     13  C   UNL     1      16.015   6.925  21.002  0.00  0.00    +0.146 C 
ATOM     14  C   UNL     1      18.518   7.042  21.427  0.00  0.00    +0.109 C 
ATOM     15  C   UNL     1      17.176   7.777  21.518  0.00  0.00    +0.069 C 
ATOM     16  C   UNL     1      18.784   6.511  20.012  0.00  0.00    +0.163 C 
ATOM     17  C   UNL     1      16.285   6.420  19.587  0.00  0.00    +0.078 C 
ATOM     18  C   UNL     1      17.616   5.676  19.483  0.00  0.00    +0.148 C 
ENDROOT
BRANCH  14   9
ATOM      6  O   UNL     1      20.234   6.680  23.692  0.00  0.00    -0.252 OA
ATOM      9  N   UNL     1      19.587   7.920  21.852  0.00  0.00    -0.294 N 
ATOM     11  N   UNL     1      21.325   8.683  23.136  0.00  0.00    -0.269 N 
ATOM     21  C   UNL     1      20.380   7.667  22.975  0.00  0.00    +0.304 C 
ATOM     36  H   UNL     1      19.717   8.796  21.355  0.00  0.00    +0.151 HD
ATOM     41  H   UNL     1      21.312   9.433  22.450  0.00  0.00    +0.156 HD
BRANCH  11  25
ATOM      1  F   UNL     1      22.634  10.015  27.560  0.00  0.00    -0.205 F 
ATOM     25  C   UNL     1      22.309   8.801  24.146  0.00  0.00    +0.037 A 
ATOM     28  C   UNL     1      21.980   9.362  25.380  0.00  0.00    +0.061 A 
ATOM     29  C   UNL     1      23.609   8.355  23.907  0.00  0.00    +0.023 A 
ATOM     33  C   UNL     1      22.950   9.477  26.374  0.00  0.00    +0.125 A 
ATOM     34  C   UNL     1      24.579   8.471  24.902  0.00  0.00    +0.005 A 
ATOM     35  C   UNL     1      24.251   9.031  26.136  0.00  0.00    +0.038 A 
ENDBRANCH  11  25
ENDBRANCH  14   9
BRANCH  13  19
ATOM      5  O   UNL     1      14.238   8.085  22.097  0.00  0.00    -0.273 OA
ATOM     10  N   UNL     1      14.199   7.895  19.778  0.00  0.00    -0.301 N 
ATOM     19  C   UNL     1      14.732   7.702  21.040  0.00  0.00    +0.246 C 
ATOM     40  H   UNL     1      14.638   7.460  18.973  0.00  0.00    +0.150 HD
BRANCH  10  20
ATOM     20  C   UNL     1      12.956   8.593  19.543  0.00  0.00    +0.163 C 
BRANCH  20  23
ATOM      7  O   UNL     1      12.187   7.133  17.760  0.00  0.00    -0.274 OA
ATOM     12  N   UNL     1      12.474   9.366  17.304  0.00  0.00    -0.328 N 
ATOM     23  C   UNL     1      12.515   8.259  18.126  0.00  0.00    +0.231 C 
ATOM     42  H   UNL     1      12.180   9.285  16.337  0.00  0.00    +0.145 HD
ATOM     43  H   UNL     1      12.743  10.292  17.621  0.00  0.00    +0.145 HD
ENDBRANCH  20  23
BRANCH  20  22
ATOM     22  C   UNL     1      13.101  10.110  19.713  0.00  0.00    +0.067 C 
BRANCH  22  24
ATOM     24  C   UNL     1      12.285  10.649  20.862  0.00  0.00    -0.045 A 
ATOM     26  C   UNL     1      11.543   9.780  21.661  0.00  0.00    +0.007 A 
ATOM     27  C   UNL     1      12.273  12.020  21.125  0.00  0.00    +0.007 A 
ATOM     30  C   UNL     1      10.790  10.279  22.723  0.00  0.00    +0.045 A 
ATOM     31  C   UNL     1      11.518  12.519  22.187  0.00  0.00    +0.045 A 
ATOM     32  C   UNL     1      10.777  11.649  22.987  0.00  0.00    +0.117 A 
BRANCH  32   8
ATOM      8  O   UNL     1      10.042  12.137  24.022  0.00  0.00    -0.507 OA
ATOM     44  H   UNL     1      10.575  12.790  24.507  0.00  0.00    +0.292 HD
ENDBRANCH  32   8
ENDBRANCH  22  24
ENDBRANCH  20  22
ENDBRANCH  10  20
ENDBRANCH  13  19
BRANCH  13   2
ATOM      2  O   UNL     1      15.798   5.810  21.860  0.00  0.00    -0.379 OA
ATOM     37  H   UNL     1      14.892   5.485  21.717  0.00  0.00    +0.211 HD
ENDBRANCH  13   2
BRANCH  16   3
ATOM      3  O   UNL     1      19.941   5.671  20.039  0.00  0.00    -0.387 OA
ATOM     38  H   UNL     1      19.664   4.786  20.332  0.00  0.00    +0.210 HD
ENDBRANCH  16   3
BRANCH  18   4
ATOM      4  O   UNL     1      17.867   5.367  18.112  0.00  0.00    -0.389 OA
ATOM     39  H   UNL     1      17.103   5.679  17.597  0.00  0.00    +0.210 HD
ENDBRANCH  18   4
TORSDOF 11
ENDMDL
