REMARK  Name = 44716528
REMARK  9 active torsions:
REMARK  status: ('A' for Active; 'I' for Inactive)
REMARK    1  A    between atoms: O_3  and  C_22
REMARK    2  A    between atoms: O_3  and  C_35
REMARK    3  A    between atoms: N_6  and  C_13
REMARK    4  A    between atoms: N_6  and  C_23
REMARK    5  A    between atoms: N_8  and  C_33
REMARK    6  A    between atoms: C_11  and  C_19
REMARK    7  A    between atoms: C_15  and  C_22
REMARK    8  A    between atoms: C_23  and  C_28
REMARK    9  A    between atoms: C_28  and  C_33
REMARK                            x       y       z     vdW  Elec       q    Type
REMARK                         _______ _______ _______ _____ _____    ______ ____
ROOT
ATOM      5  N   UNL     1       1.626   0.031   1.096  0.00  0.00    -0.274 NA
ATOM      7  N   UNL     1      -0.674  -2.956   0.749  0.00  0.00    -0.356 N 
ATOM     10  C   UNL     1       0.443  -0.784   1.559  0.00  0.00    +0.106 C 
ATOM     11  C   UNL     1       1.376   0.679  -0.229  0.00  0.00    +0.090 C 
ATOM     12  C   UNL     1      -0.878  -0.006   1.510  0.00  0.00    +0.044 C 
ATOM     13  C   UNL     1      -1.147   0.568   0.123  0.00  0.00    +0.057 C 
ATOM     14  C   UNL     1       0.032   1.452  -0.270  0.00  0.00    +0.042 C 
ATOM     15  C   UNL     1       2.831  -0.863   1.157  0.00  0.00    +0.172 C 
ATOM     16  C   UNL     1       0.397  -2.112   0.844  0.00  0.00    +0.038 A 
ATOM     17  C   UNL     1       2.805  -2.050   0.166  0.00  0.00    +0.068 C 
ATOM     18  C   UNL     1       1.471  -2.713   0.215  0.00  0.00    -0.016 A 
ATOM     20  C   UNL     1       1.027  -3.953  -0.314  0.00  0.00    +0.003 A 
ATOM     21  C   UNL     1      -0.321  -4.081   0.034  0.00  0.00    +0.047 A 
ATOM     26  C   UNL     1       1.637  -4.986  -1.053  0.00  0.00    +0.010 A 
ATOM     27  C   UNL     1      -1.089  -5.196  -0.323  0.00  0.00    +0.026 A 
ATOM     29  C   UNL     1       0.880  -6.105  -1.418  0.00  0.00    +0.001 A 
ATOM     32  C   UNL     1      -0.462  -6.206  -1.058  0.00  0.00    +0.002 A 
ATOM     40  H   UNL     1      -1.593  -2.786   1.135  0.00  0.00    +0.166 HD
ENDROOT
BRANCH  11  19
ATOM      1  F   UNL     1       4.027   4.730   0.518  0.00  0.00    -0.202 F 
ATOM      2  F   UNL     1       5.370   4.348  -1.833  0.00  0.00    -0.202 F 
ATOM     19  C   UNL     1       2.454   1.670  -0.662  0.00  0.00    -0.027 A 
ATOM     24  C   UNL     1       2.754   2.769   0.142  0.00  0.00    +0.046 A 
ATOM     25  C   UNL     1       3.139   1.475  -1.862  0.00  0.00    +0.008 A 
ATOM     30  C   UNL     1       3.739   3.674  -0.254  0.00  0.00    +0.159 A 
ATOM     31  C   UNL     1       4.124   2.380  -2.257  0.00  0.00    +0.041 A 
ATOM     34  C   UNL     1       4.424   3.480  -1.453  0.00  0.00    +0.158 A 
ENDBRANCH  11  19
BRANCH  15  22
ATOM      4  O   UNL     1       4.975  -0.301   0.232  0.00  0.00    -0.249 OA
ATOM     22  C   UNL     1       4.098  -0.080   1.055  0.00  0.00    +0.325 C 
BRANCH  22   3
ATOM      3  O   UNL     1       4.109   0.896   2.008  0.00  0.00    -0.467 OA
ATOM     35  C   UNL     1       5.273   1.727   2.023  0.00  0.00    +0.280 C 
ENDBRANCH  22   3
ENDBRANCH  15  22
BRANCH  13   6
ATOM      6  N   UNL     1      -2.384   1.348   0.114  0.00  0.00    -0.313 NA
ATOM     39  H   UNL     1      -2.388   1.980  -0.687  0.00  0.00    +0.122 HD
BRANCH   6  23
ATOM     23  C   UNL     1      -3.543   0.473   0.027  0.00  0.00    +0.083 C 
BRANCH  23  28
ATOM     28  C   UNL     1      -4.830   1.296   0.045  0.00  0.00    +0.037 C 
BRANCH  28  33
ATOM     33  C   UNL     1      -6.063   0.392  -0.036  0.00  0.00    +0.124 C 
BRANCH  33   8
ATOM      8  N   UNL     1      -7.340   1.192  -0.063  0.00  0.00    -0.337 N 
ATOM      9  N   UNL     1      -9.163   2.176  -0.863  0.00  0.00    -0.244 NA
ATOM     36  C   UNL     1      -7.942   1.792   1.007  0.00  0.00    +0.106 A 
ATOM     37  C   UNL     1      -8.110   1.450  -1.163  0.00  0.00    +0.199 A 
ATOM     38  C   UNL     1      -9.064   2.393   0.488  0.00  0.00    +0.130 A 
ENDBRANCH  33   8
ENDBRANCH  28  33
ENDBRANCH  23  28
ENDBRANCH   6  23
ENDBRANCH  13   6
TORSDOF 8
