REMARK  Name = 75536984
REMARK  5 active torsions:
REMARK  status: ('A' for Active; 'I' for Inactive)
REMARK    1  A    between atoms: N_4  and  C_14
REMARK    2  A    between atoms: N_6  and  C_17
REMARK    3  A    between atoms: C_14  and  C_16
REMARK    4  A    between atoms: C_17  and  C_19
REMARK    5  A    between atoms: C_17  and  C_20
REMARK                            x       y       z     vdW  Elec       q    Type
REMARK                         _______ _______ _______ _____ _____    ______ ____
ROOT
ATOM      1  O   UNL     1      -1.976   2.716   0.374  0.00  0.00    -0.252 OA
ATOM      2  O   UNL     1       4.568   1.079  -1.146  0.00  0.00    -0.253 OA
ATOM      3  N   UNL     1       0.025   1.486   0.317  0.00  0.00    -0.278 N 
ATOM      4  N   UNL     1      -1.802   0.509   1.186  0.00  0.00    -0.278 N 
ATOM      5  N   UNL     1       2.379   0.439  -0.731  0.00  0.00    -0.282 N 
ATOM      6  N   UNL     1       4.200  -0.940  -0.123  0.00  0.00    -0.297 N 
ATOM      8  C   UNL     1       0.498   0.208   0.823  0.00  0.00    +0.112 C 
ATOM      9  C   UNL     1      -0.784  -0.527   1.204  0.00  0.00    +0.133 C 
ATOM     10  C   UNL     1       1.349  -0.494  -0.231  0.00  0.00    +0.133 C 
ATOM     11  C   UNL     1       0.960   2.410  -0.301  0.00  0.00    +0.128 C 
ATOM     12  C   UNL     1       1.831   1.673  -1.318  0.00  0.00    +0.128 C 
ATOM     13  C   UNL     1      -1.331   1.700   0.600  0.00  0.00    +0.306 C 
ATOM     15  C   UNL     1       3.769   0.248  -0.699  0.00  0.00    +0.303 C 
ATOM     24  H   UNL     1       3.555  -1.546   0.364  0.00  0.00    +0.150 HD
ENDROOT
BRANCH   6  17
ATOM     17  C   UNL     1       5.602  -1.277  -0.012  0.00  0.00    +0.068 C 
ATOM     19  C   UNL     1       5.793  -2.785  -0.106  0.00  0.00    +0.027 C 
ATOM     20  C   UNL     1       6.183  -0.727   1.285  0.00  0.00    +0.027 C 
ENDBRANCH   6  17
BRANCH   4  14
ATOM     14  C   UNL     1      -3.164   0.251   1.599  0.00  0.00    +0.164 C 
BRANCH  14  16
ATOM      7  N   UNL     1      -4.215  -1.723   0.650  0.00  0.00    -0.258 NA
ATOM     16  C   UNL     1      -3.967  -0.401   0.510  0.00  0.00    +0.059 A 
ATOM     18  C   UNL     1      -4.406   0.362  -0.559  0.00  0.00    +0.025 A 
ATOM     21  C   UNL     1      -5.148  -0.272  -1.550  0.00  0.00    +0.003 A 
ATOM     22  C   UNL     1      -4.940  -2.305  -0.332  0.00  0.00    +0.111 A 
ATOM     23  C   UNL     1      -5.424  -1.631  -1.441  0.00  0.00    +0.020 A 
ENDBRANCH  14  16
ENDBRANCH   4  14
TORSDOF 3
