MODEL 1
REMARK VINA RESULT:      -7.8      0.000      0.000
REMARK  Name = 7134495
REMARK  12 active torsions:
REMARK  status: ('A' for Active; 'I' for Inactive)
REMARK    1  A    between atoms: S_1  and  N_12
REMARK    2  A    between atoms: S_1  and  C_23
REMARK    3  A    between atoms: O_5  and  C_15
REMARK    4  A    between atoms: O_6  and  C_18
REMARK    5  A    between atoms: O_7  and  C_20
REMARK    6  A    between atoms: N_12  and  C_16
REMARK    7  A    between atoms: N_13  and  C_22
REMARK    8  A    between atoms: C_15  and  C_21
REMARK    9  A    between atoms: C_22  and  C_24
REMARK   10  A    between atoms: C_22  and  C_25
REMARK   11  A    between atoms: C_24  and  C_28
REMARK   12  A    between atoms: C_29  and  C_34
REMARK                            x       y       z     vdW  Elec       q    Type
REMARK                         _______ _______ _______ _____ _____    ______ ____
ROOT
ATOM     15  C   UNL     1      12.134   9.305  22.154  0.00  0.00    +0.145 C 
ATOM     16  C   UNL     1      13.191   7.216  21.180  0.00  0.00    +0.111 C 
ATOM     17  C   UNL     1      13.435   8.539  21.911  0.00  0.00    +0.067 C 
ATOM     18  C   UNL     1      12.398   7.406  19.882  0.00  0.00    +0.162 C 
ATOM     19  C   UNL     1      11.363   9.511  20.852  0.00  0.00    +0.078 C 
ATOM     20  C   UNL     1      11.106   8.195  20.116  0.00  0.00    +0.148 C 
ENDROOT
BRANCH  15  21
ATOM      8  O   UNL     1      11.598  11.547  22.779  0.00  0.00    -0.273 OA
ATOM     13  N   UNL     1      13.664  10.670  23.392  0.00  0.00    -0.301 N 
ATOM     21  C   UNL     1      12.412  10.628  22.806  0.00  0.00    +0.245 C 
ATOM     42  H   UNL     1      14.232   9.830  23.426  0.00  0.00    +0.150 HD
BRANCH  13  22
ATOM     22  C   UNL     1      14.183  11.839  24.066  0.00  0.00    +0.163 C 
BRANCH  22  25
ATOM     11  O   UNL     1      14.530  11.204  26.386  0.00  0.00    -0.274 OA
ATOM     14  N   UNL     1      12.581  12.281  25.822  0.00  0.00    -0.328 N 
ATOM     25  C   UNL     1      13.806  11.714  25.535  0.00  0.00    +0.231 C 
ATOM     43  H   UNL     1      12.216  12.280  26.768  0.00  0.00    +0.145 HD
ATOM     44  H   UNL     1      12.004  12.721  25.112  0.00  0.00    +0.145 HD
ENDBRANCH  22  25
BRANCH  22  24
ATOM     24  C   UNL     1      15.703  11.968  23.915  0.00  0.00    +0.067 C 
BRANCH  24  28
ATOM     28  C   UNL     1      16.150  11.954  22.473  0.00  0.00    -0.045 A 
ATOM     32  C   UNL     1      17.087  11.014  22.043  0.00  0.00    +0.004 A 
ATOM     33  C   UNL     1      15.627  12.881  21.572  0.00  0.00    +0.004 A 
ATOM     35  C   UNL     1      17.500  11.000  20.711  0.00  0.00    +0.000 A 
ATOM     36  C   UNL     1      16.040  12.867  20.239  0.00  0.00    +0.000 A 
ATOM     37  C   UNL     1      16.977  11.926  19.809  0.00  0.00    +0.000 A 
ENDBRANCH  24  28
ENDBRANCH  22  24
ENDBRANCH  13  22
ENDBRANCH  15  21
BRANCH  15   5
ATOM      5  O   UNL     1      11.309   8.605  23.077  0.00  0.00    -0.379 OA
ATOM     39  H   UNL     1      11.851   8.309  23.827  0.00  0.00    +0.211 HD
ENDBRANCH  15   5
BRANCH  18   6
ATOM      6  O   UNL     1      12.059   6.111  19.378  0.00  0.00    -0.388 OA
ATOM     40  H   UNL     1      11.098   5.994  19.466  0.00  0.00    +0.210 HD
ENDBRANCH  18   6
BRANCH  20   7
ATOM      7  O   UNL     1      10.503   8.512  18.862  0.00  0.00    -0.389 OA
ATOM     41  H   UNL     1      10.217   9.441  18.899  0.00  0.00    +0.210 HD
ENDBRANCH  20   7
BRANCH  16  12
ATOM     12  N   UNL     1      14.508   6.601  20.860  0.00  0.00    -0.184 NA
ATOM     38  H   UNL     1      14.940   6.005  21.576  0.00  0.00    +0.148 HD
BRANCH  12   1
ATOM      1  S   UNL     1      15.410   7.183  19.550  0.00  0.00    +0.059 S 
ATOM      9  O   UNL     1      15.396   8.634  19.556  0.00  0.00    -0.153 OA
ATOM     10  O   UNL     1      15.018   6.454  18.358  0.00  0.00    -0.153 OA
BRANCH   1  23
ATOM     23  C   UNL     1      17.045   6.652  19.963  0.00  0.00    +0.106 A 
ATOM     26  C   UNL     1      17.735   7.266  21.008  0.00  0.00    +0.041 A 
ATOM     27  C   UNL     1      17.644   5.617  19.245  0.00  0.00    +0.028 A 
ATOM     29  C   UNL     1      19.024   6.845  21.334  0.00  0.00    +0.057 A 
ATOM     30  C   UNL     1      18.933   5.196  19.572  0.00  0.00    +0.002 A 
ATOM     31  C   UNL     1      19.623   5.810  20.616  0.00  0.00    +0.012 A 
BRANCH  29  34
ATOM      2  F   UNL     1      19.173   8.652  22.895  0.00  0.00    -0.166 F 
ATOM      3  F   UNL     1      19.886   6.717  23.562  0.00  0.00    -0.166 F 
ATOM      4  F   UNL     1      21.035   7.853  22.107  0.00  0.00    -0.166 F 
ATOM     34  C   UNL     1      19.762   7.503  22.452  0.00  0.00    +0.417 C 
ENDBRANCH  29  34
ENDBRANCH   1  23
ENDBRANCH  12   1
ENDBRANCH  16  12
TORSDOF 12
ENDMDL
MODEL 2
REMARK VINA RESULT:      -7.8      4.193      6.219
REMARK  Name = 7134495
REMARK  12 active torsions:
REMARK  status: ('A' for Active; 'I' for Inactive)
REMARK    1  A    between atoms: S_1  and  N_12
REMARK    2  A    between atoms: S_1  and  C_23
REMARK    3  A    between atoms: O_5  and  C_15
REMARK    4  A    between atoms: O_6  and  C_18
REMARK    5  A    between atoms: O_7  and  C_20
REMARK    6  A    between atoms: N_12  and  C_16
REMARK    7  A    between atoms: N_13  and  C_22
REMARK    8  A    between atoms: C_15  and  C_21
REMARK    9  A    between atoms: C_22  and  C_24
REMARK   10  A    between atoms: C_22  and  C_25
REMARK   11  A    between atoms: C_24  and  C_28
REMARK   12  A    between atoms: C_29  and  C_34
REMARK                            x       y       z     vdW  Elec       q    Type
REMARK                         _______ _______ _______ _____ _____    ______ ____
ROOT
ATOM     15  C   UNL     1      13.555   9.697  16.489  0.00  0.00    +0.145 C 
ATOM     16  C   UNL     1      13.072   8.701  18.770  0.00  0.00    +0.111 C 
ATOM     17  C   UNL     1      14.112   8.890  17.662  0.00  0.00    +0.067 C 
ATOM     18  C   UNL     1      11.764   8.099  18.244  0.00  0.00    +0.162 C 
ATOM     19  C   UNL     1      12.265   9.076  15.955  0.00  0.00    +0.078 C 
ATOM     20  C   UNL     1      11.215   8.889  17.051  0.00  0.00    +0.148 C 
ENDROOT
BRANCH  15  21
ATOM      8  O   UNL     1      14.856   8.848  14.675  0.00  0.00    -0.273 OA
ATOM     13  N   UNL     1      15.130  11.068  15.315  0.00  0.00    -0.301 N 
ATOM     21  C   UNL     1      14.571   9.805  15.389  0.00  0.00    +0.245 C 
ATOM     42  H   UNL     1      14.770  11.813  15.903  0.00  0.00    +0.150 HD
BRANCH  13  22
ATOM     22  C   UNL     1      16.150  11.426  14.357  0.00  0.00    +0.163 C 
BRANCH  22  25
ATOM     11  O   UNL     1      14.282  12.058  12.937  0.00  0.00    -0.274 OA
ATOM     14  N   UNL     1      16.279  11.509  11.944  0.00  0.00    -0.328 N 
ATOM     25  C   UNL     1      15.449  11.686  13.031  0.00  0.00    +0.231 C 
ATOM     43  H   UNL     1      15.940  11.663  11.000  0.00  0.00    +0.145 HD
ATOM     44  H   UNL     1      17.249  11.225  12.038  0.00  0.00    +0.145 HD
ENDBRANCH  22  25
BRANCH  22  24
ATOM     24  C   UNL     1      16.946  12.663  14.791  0.00  0.00    +0.067 C 
BRANCH  24  28
ATOM     28  C   UNL     1      18.371  12.337  15.168  0.00  0.00    -0.045 A 
ATOM     32  C   UNL     1      18.908  12.834  16.355  0.00  0.00    +0.004 A 
ATOM     33  C   UNL     1      19.149  11.540  14.329  0.00  0.00    +0.004 A 
ATOM     35  C   UNL     1      20.225  12.534  16.704  0.00  0.00    +0.000 A 
ATOM     36  C   UNL     1      20.466  11.239  14.678  0.00  0.00    +0.000 A 
ATOM     37  C   UNL     1      21.004  11.736  15.866  0.00  0.00    +0.000 A 
ENDBRANCH  24  28
ENDBRANCH  22  24
ENDBRANCH  13  22
ENDBRANCH  15  21
BRANCH  15   5
ATOM      5  O   UNL     1      13.296  11.039  16.884  0.00  0.00    -0.379 OA
ATOM     39  H   UNL     1      12.446  11.322  16.508  0.00  0.00    +0.211 HD
ENDBRANCH  15   5
BRANCH  18   6
ATOM      6  O   UNL     1      10.804   8.139  19.302  0.00  0.00    -0.388 OA
ATOM     40  H   UNL     1      10.093   8.749  19.042  0.00  0.00    +0.210 HD
ENDBRANCH  18   6
BRANCH  20   7
ATOM      7  O   UNL     1      10.113   8.188  16.479  0.00  0.00    -0.389 OA
ATOM     41  H   UNL     1       9.397   8.176  17.137  0.00  0.00    +0.210 HD
ENDBRANCH  20   7
BRANCH  16  12
ATOM     12  N   UNL     1      13.643   7.796  19.805  0.00  0.00    -0.184 NA
ATOM     38  H   UNL     1      13.134   6.927  20.009  0.00  0.00    +0.148 HD
BRANCH  12   1
ATOM      1  S   UNL     1      14.839   8.373  20.857  0.00  0.00    +0.059 S 
ATOM      9  O   UNL     1      14.475   8.063  22.226  0.00  0.00    -0.153 OA
ATOM     10  O   UNL     1      15.169   9.734  20.480  0.00  0.00    -0.153 OA
BRANCH   1  23
ATOM     23  C   UNL     1      16.227   7.368  20.421  0.00  0.00    +0.106 A 
ATOM     26  C   UNL     1      17.387   7.409  21.194  0.00  0.00    +0.041 A 
ATOM     27  C   UNL     1      16.162   6.535  19.304  0.00  0.00    +0.028 A 
ATOM     29  C   UNL     1      18.482   6.615  20.850  0.00  0.00    +0.057 A 
ATOM     30  C   UNL     1      17.256   5.742  18.960  0.00  0.00    +0.002 A 
ATOM     31  C   UNL     1      18.417   5.782  19.733  0.00  0.00    +0.012 A 
BRANCH  29  34
ATOM      2  F   UNL     1      19.492   6.528  23.017  0.00  0.00    -0.166 F 
ATOM      3  F   UNL     1      20.617   5.671  21.374  0.00  0.00    -0.166 F 
ATOM      4  F   UNL     1      20.408   7.830  21.536  0.00  0.00    -0.166 F 
ATOM     34  C   UNL     1      19.723   6.658  21.677  0.00  0.00    +0.417 C 
ENDBRANCH  29  34
ENDBRANCH   1  23
ENDBRANCH  12   1
ENDBRANCH  16  12
TORSDOF 12
ENDMDL
MODEL 3
REMARK VINA RESULT:      -7.5      3.657      6.065
REMARK  Name = 7134495
REMARK  12 active torsions:
REMARK  status: ('A' for Active; 'I' for Inactive)
REMARK    1  A    between atoms: S_1  and  N_12
REMARK    2  A    between atoms: S_1  and  C_23
REMARK    3  A    between atoms: O_5  and  C_15
REMARK    4  A    between atoms: O_6  and  C_18
REMARK    5  A    between atoms: O_7  and  C_20
REMARK    6  A    between atoms: N_12  and  C_16
REMARK    7  A    between atoms: N_13  and  C_22
REMARK    8  A    between atoms: C_15  and  C_21
REMARK    9  A    between atoms: C_22  and  C_24
REMARK   10  A    between atoms: C_22  and  C_25
REMARK   11  A    between atoms: C_24  and  C_28
REMARK   12  A    between atoms: C_29  and  C_34
REMARK                            x       y       z     vdW  Elec       q    Type
REMARK                         _______ _______ _______ _____ _____    ______ ____
ROOT
ATOM     15  C   UNL     1      16.082   7.284  21.042  0.00  0.00    +0.145 C 
ATOM     16  C   UNL     1      18.573   6.831  21.191  0.00  0.00    +0.111 C 
ATOM     17  C   UNL     1      17.459   7.868  21.361  0.00  0.00    +0.067 C 
ATOM     18  C   UNL     1      18.548   6.171  19.808  0.00  0.00    +0.162 C 
ATOM     19  C   UNL     1      16.059   6.651  19.652  0.00  0.00    +0.078 C 
ATOM     20  C   UNL     1      17.163   5.607  19.474  0.00  0.00    +0.148 C 
ENDROOT
BRANCH  15  21
ATOM      8  O   UNL     1      15.247   9.439  21.646  0.00  0.00    -0.273 OA
ATOM     13  N   UNL     1      13.805   7.911  20.646  0.00  0.00    -0.301 N 
ATOM     21  C   UNL     1      15.021   8.341  21.147  0.00  0.00    +0.245 C 
ATOM     42  H   UNL     1      13.740   7.010  20.183  0.00  0.00    +0.150 HD
BRANCH  13  22
ATOM     22  C   UNL     1      12.614   8.731  20.650  0.00  0.00    +0.163 C 
BRANCH  22  25
ATOM     11  O   UNL     1      10.521   8.559  19.427  0.00  0.00    -0.274 OA
ATOM     14  N   UNL     1      12.081   6.892  19.174  0.00  0.00    -0.328 N 
ATOM     25  C   UNL     1      11.613   8.072  19.712  0.00  0.00    +0.231 C 
ATOM     43  H   UNL     1      11.518   6.358  18.520  0.00  0.00    +0.145 HD
ATOM     44  H   UNL     1      12.996   6.514  19.400  0.00  0.00    +0.145 HD
ENDBRANCH  22  25
BRANCH  22  24
ATOM     24  C   UNL     1      12.014   8.876  22.053  0.00  0.00    +0.067 C 
BRANCH  24  28
ATOM     28  C   UNL     1      11.598  10.293  22.366  0.00  0.00    -0.045 A 
ATOM     32  C   UNL     1      11.047  10.599  23.611  0.00  0.00    +0.004 A 
ATOM     33  C   UNL     1      11.763  11.295  21.411  0.00  0.00    +0.004 A 
ATOM     35  C   UNL     1      10.662  11.908  23.901  0.00  0.00    +0.000 A 
ATOM     36  C   UNL     1      11.378  12.605  21.700  0.00  0.00    +0.000 A 
ATOM     37  C   UNL     1      10.828  12.911  22.945  0.00  0.00    +0.000 A 
ENDBRANCH  24  28
ENDBRANCH  22  24
ENDBRANCH  13  22
ENDBRANCH  15  21
BRANCH  15   5
ATOM      5  O   UNL     1      15.722   6.303  22.007  0.00  0.00    -0.379 OA
ATOM     39  H   UNL     1      16.173   6.499  22.844  0.00  0.00    +0.211 HD
ENDBRANCH  15   5
BRANCH  18   6
ATOM      6  O   UNL     1      19.491   5.096  19.815  0.00  0.00    -0.388 OA
ATOM     40  H   UNL     1      19.802   4.974  20.728  0.00  0.00    +0.210 HD
ENDBRANCH  18   6
BRANCH  20   7
ATOM      7  O   UNL     1      17.135   5.178  18.113  0.00  0.00    -0.389 OA
ATOM     41  H   UNL     1      16.601   4.367  18.070  0.00  0.00    +0.210 HD
ENDBRANCH  20   7
BRANCH  16  12
ATOM     12  N   UNL     1      19.884   7.508  21.384  0.00  0.00    -0.184 NA
ATOM     38  H   UNL     1      20.265   8.039  20.591  0.00  0.00    +0.148 HD
BRANCH  12   1
ATOM      1  S   UNL     1      20.863   7.084  22.700  0.00  0.00    +0.059 S 
ATOM      9  O   UNL     1      20.162   6.132  23.540  0.00  0.00    -0.153 OA
ATOM     10  O   UNL     1      21.416   8.296  23.274  0.00  0.00    -0.153 OA
BRANCH   1  23
ATOM     23  C   UNL     1      22.196   6.235  21.908  0.00  0.00    +0.106 A 
ATOM     26  C   UNL     1      22.323   4.853  22.045  0.00  0.00    +0.041 A 
ATOM     27  C   UNL     1      23.122   6.948  21.146  0.00  0.00    +0.028 A 
ATOM     29  C   UNL     1      23.375   4.184  21.420  0.00  0.00    +0.057 A 
ATOM     30  C   UNL     1      24.174   6.279  20.520  0.00  0.00    +0.002 A 
ATOM     31  C   UNL     1      24.300   4.897  20.657  0.00  0.00    +0.012 A 
BRANCH  29  34
ATOM      2  F   UNL     1      22.974   2.219  22.725  0.00  0.00    -0.166 F 
ATOM      3  F   UNL     1      22.900   1.999  20.569  0.00  0.00    -0.166 F 
ATOM      4  F   UNL     1      24.811   2.294  21.563  0.00  0.00    -0.166 F 
ATOM     34  C   UNL     1      23.510   2.705  21.566  0.00  0.00    +0.417 C 
ENDBRANCH  29  34
ENDBRANCH   1  23
ENDBRANCH  12   1
ENDBRANCH  16  12
TORSDOF 12
ENDMDL
MODEL 4
REMARK VINA RESULT:      -7.2     27.111     30.743
REMARK  Name = 7134495
REMARK  12 active torsions:
REMARK  status: ('A' for Active; 'I' for Inactive)
REMARK    1  A    between atoms: S_1  and  N_12
REMARK    2  A    between atoms: S_1  and  C_23
REMARK    3  A    between atoms: O_5  and  C_15
REMARK    4  A    between atoms: O_6  and  C_18
REMARK    5  A    between atoms: O_7  and  C_20
REMARK    6  A    between atoms: N_12  and  C_16
REMARK    7  A    between atoms: N_13  and  C_22
REMARK    8  A    between atoms: C_15  and  C_21
REMARK    9  A    between atoms: C_22  and  C_24
REMARK   10  A    between atoms: C_22  and  C_25
REMARK   11  A    between atoms: C_24  and  C_28
REMARK   12  A    between atoms: C_29  and  C_34
REMARK                            x       y       z     vdW  Elec       q    Type
REMARK                         _______ _______ _______ _____ _____    ______ ____
ROOT
ATOM     15  C   UNL     1      -5.442 -11.351  16.435  0.00  0.00    +0.145 C 
ATOM     16  C   UNL     1      -7.281 -11.073  18.160  0.00  0.00    +0.111 C 
ATOM     17  C   UNL     1      -6.643 -10.516  16.884  0.00  0.00    +0.067 C 
ATOM     18  C   UNL     1      -6.261 -11.247  19.292  0.00  0.00    +0.162 C 
ATOM     19  C   UNL     1      -4.421 -11.498  17.561  0.00  0.00    +0.078 C 
ATOM     20  C   UNL     1      -5.044 -12.060  18.839  0.00  0.00    +0.148 C 
ENDROOT
BRANCH  15  21
ATOM      8  O   UNL     1      -5.452 -10.180  14.353  0.00  0.00    -0.273 OA
ATOM     13  N   UNL     1      -3.423 -10.915  15.223  0.00  0.00    -0.301 N 
ATOM     21  C   UNL     1      -4.795 -10.741  15.226  0.00  0.00    +0.245 C 
ATOM     42  H   UNL     1      -2.966 -11.327  16.031  0.00  0.00    +0.150 HD
BRANCH  13  22
ATOM     22  C   UNL     1      -2.567 -10.442  14.159  0.00  0.00    +0.163 C 
BRANCH  22  25
ATOM     11  O   UNL     1      -0.708 -10.635  15.712  0.00  0.00    -0.274 OA
ATOM     14  N   UNL     1      -0.701  -8.906  14.199  0.00  0.00    -0.328 N 
ATOM     25  C   UNL     1      -1.250 -10.022  14.795  0.00  0.00    +0.231 C 
ATOM     43  H   UNL     1       0.185  -8.528  14.519  0.00  0.00    +0.145 HD
ATOM     44  H   UNL     1      -1.148  -8.424  13.426  0.00  0.00    +0.145 HD
ENDBRANCH  22  25
BRANCH  22  24
ATOM     24  C   UNL     1      -2.325 -11.513  13.089  0.00  0.00    +0.067 C 
BRANCH  24  28
ATOM     28  C   UNL     1      -2.926 -11.149  11.753  0.00  0.00    -0.045 A 
ATOM     32  C   UNL     1      -2.779  -9.856  11.252  0.00  0.00    +0.004 A 
ATOM     33  C   UNL     1      -3.630 -12.106  11.021  0.00  0.00    +0.004 A 
ATOM     35  C   UNL     1      -3.335  -9.519  10.017  0.00  0.00    +0.000 A 
ATOM     36  C   UNL     1      -4.186 -11.769   9.786  0.00  0.00    +0.000 A 
ATOM     37  C   UNL     1      -4.038 -10.475   9.285  0.00  0.00    +0.000 A 
ENDBRANCH  24  28
ENDBRANCH  22  24
ENDBRANCH  13  22
ENDBRANCH  15  21
BRANCH  15   5
ATOM      5  O   UNL     1      -5.862 -12.644  16.017  0.00  0.00    -0.379 OA
ATOM     39  H   UNL     1      -6.131 -12.604  15.084  0.00  0.00    +0.211 HD
ENDBRANCH  15   5
BRANCH  18   6
ATOM      6  O   UNL     1      -6.906 -11.942  20.362  0.00  0.00    -0.388 OA
ATOM     40  H   UNL     1      -6.365 -12.718  20.588  0.00  0.00    +0.210 HD
ENDBRANCH  18   6
BRANCH  20   7
ATOM      7  O   UNL     1      -4.044 -12.032  19.856  0.00  0.00    -0.389 OA
ATOM     41  H   UNL     1      -3.632 -11.151  19.841  0.00  0.00    +0.210 HD
ENDBRANCH  20   7
BRANCH  16  12
ATOM     12  N   UNL     1      -8.347 -10.134  18.605  0.00  0.00    -0.184 NA
ATOM     38  H   UNL     1      -8.074  -9.162  18.794  0.00  0.00    +0.148 HD
BRANCH  12   1
ATOM      1  S   UNL     1      -9.830 -10.746  19.148  0.00  0.00    +0.059 S 
ATOM      9  O   UNL     1     -10.008 -10.417  20.550  0.00  0.00    -0.153 OA
ATOM     10  O   UNL     1      -9.956 -12.120  18.699  0.00  0.00    -0.153 OA
BRANCH   1  23
ATOM     23  C   UNL     1     -10.987  -9.791  18.212  0.00  0.00    +0.106 A 
ATOM     26  C   UNL     1     -10.551  -8.683  17.486  0.00  0.00    +0.041 A 
ATOM     27  C   UNL     1     -12.335 -10.147  18.199  0.00  0.00    +0.028 A 
ATOM     29  C   UNL     1     -11.464  -7.931  16.747  0.00  0.00    +0.057 A 
ATOM     30  C   UNL     1     -13.248  -9.395  17.460  0.00  0.00    +0.002 A 
ATOM     31  C   UNL     1     -12.812  -8.287  16.734  0.00  0.00    +0.012 A 
BRANCH  29  34
ATOM      2  F   UNL     1     -11.242  -5.554  16.591  0.00  0.00    -0.166 F 
ATOM      3  F   UNL     1      -9.654  -6.748  15.723  0.00  0.00    -0.166 F 
ATOM      4  F   UNL     1     -11.594  -6.651  14.747  0.00  0.00    -0.166 F 
ATOM     34  C   UNL     1     -10.997  -6.746  15.970  0.00  0.00    +0.417 C 
ENDBRANCH  29  34
ENDBRANCH   1  23
ENDBRANCH  12   1
ENDBRANCH  16  12
TORSDOF 12
ENDMDL
MODEL 5
REMARK VINA RESULT:      -7.1     15.804     18.663
REMARK  Name = 7134495
REMARK  12 active torsions:
REMARK  status: ('A' for Active; 'I' for Inactive)
REMARK    1  A    between atoms: S_1  and  N_12
REMARK    2  A    between atoms: S_1  and  C_23
REMARK    3  A    between atoms: O_5  and  C_15
REMARK    4  A    between atoms: O_6  and  C_18
REMARK    5  A    between atoms: O_7  and  C_20
REMARK    6  A    between atoms: N_12  and  C_16
REMARK    7  A    between atoms: N_13  and  C_22
REMARK    8  A    between atoms: C_15  and  C_21
REMARK    9  A    between atoms: C_22  and  C_24
REMARK   10  A    between atoms: C_22  and  C_25
REMARK   11  A    between atoms: C_24  and  C_28
REMARK   12  A    between atoms: C_29  and  C_34
REMARK                            x       y       z     vdW  Elec       q    Type
REMARK                         _______ _______ _______ _____ _____    ______ ____
ROOT
ATOM     15  C   UNL     1      13.914   7.663   4.751  0.00  0.00    +0.145 C 
ATOM     16  C   UNL     1      11.812   8.810   5.585  0.00  0.00    +0.111 C 
ATOM     17  C   UNL     1      12.516   8.167   4.388  0.00  0.00    +0.067 C 
ATOM     18  C   UNL     1      12.656   9.912   6.234  0.00  0.00    +0.162 C 
ATOM     19  C   UNL     1      14.757   8.774   5.374  0.00  0.00    +0.078 C 
ATOM     20  C   UNL     1      14.066   9.419   6.577  0.00  0.00    +0.148 C 
ENDROOT
BRANCH  15  21
ATOM      8  O   UNL     1      15.748   7.438   3.238  0.00  0.00    -0.273 OA
ATOM     13  N   UNL     1      13.805   6.220   2.842  0.00  0.00    -0.301 N 
ATOM     21  C   UNL     1      14.607   7.104   3.543  0.00  0.00    +0.245 C 
ATOM     42  H   UNL     1      12.903   5.951   3.219  0.00  0.00    +0.150 HD
BRANCH  13  22
ATOM     22  C   UNL     1      14.229   5.561   1.627  0.00  0.00    +0.163 C 
BRANCH  22  25
ATOM     11  O   UNL     1      13.272   3.327   1.679  0.00  0.00    -0.274 OA
ATOM     14  N   UNL     1      15.437   3.612   2.393  0.00  0.00    -0.328 N 
ATOM     25  C   UNL     1      14.229   4.064   1.905  0.00  0.00    +0.231 C 
ATOM     43  H   UNL     1      15.577   2.630   2.608  0.00  0.00    +0.145 HD
ATOM     44  H   UNL     1      16.227   4.229   2.553  0.00  0.00    +0.145 HD
ENDBRANCH  22  25
BRANCH  22  24
ATOM     24  C   UNL     1      13.312   5.883   0.442  0.00  0.00    +0.067 C 
BRANCH  24  28
ATOM     28  C   UNL     1      12.060   6.617   0.856  0.00  0.00    -0.045 A 
ATOM     32  C   UNL     1      10.964   5.905   1.345  0.00  0.00    +0.004 A 
ATOM     33  C   UNL     1      11.998   8.006   0.749  0.00  0.00    +0.004 A 
ATOM     35  C   UNL     1       9.806   6.584   1.728  0.00  0.00    +0.000 A 
ATOM     36  C   UNL     1      10.840   8.685   1.132  0.00  0.00    +0.000 A 
ATOM     37  C   UNL     1       9.745   7.973   1.621  0.00  0.00    +0.000 A 
ENDBRANCH  24  28
ENDBRANCH  22  24
ENDBRANCH  13  22
ENDBRANCH  15  21
BRANCH  15   5
ATOM      5  O   UNL     1      13.830   6.575   5.664  0.00  0.00    -0.379 OA
ATOM     39  H   UNL     1      14.646   6.537   6.188  0.00  0.00    +0.211 HD
ENDBRANCH  15   5
BRANCH  18   6
ATOM      6  O   UNL     1      12.005  10.313   7.442  0.00  0.00    -0.388 OA
ATOM     40  H   UNL     1      12.434   9.855   8.184  0.00  0.00    +0.210 HD
ENDBRANCH  18   6
BRANCH  20   7
ATOM      7  O   UNL     1      14.870  10.520   6.997  0.00  0.00    -0.389 OA
ATOM     41  H   UNL     1      15.360  10.242   7.790  0.00  0.00    +0.210 HD
ENDBRANCH  20   7
BRANCH  16  12
ATOM     12  N   UNL     1      10.524   9.394   5.120  0.00  0.00    -0.184 NA
ATOM     38  H   UNL     1      10.571  10.183   4.463  0.00  0.00    +0.148 HD
BRANCH  12   1
ATOM      1  S   UNL     1       9.090   9.029   5.944  0.00  0.00    +0.059 S 
ATOM      9  O   UNL     1       7.959   9.198   5.051  0.00  0.00    -0.153 OA
ATOM     10  O   UNL     1       9.112   9.700   7.230  0.00  0.00    -0.153 OA
BRANCH   1  23
ATOM     23  C   UNL     1       9.280   7.300   6.263  0.00  0.00    +0.106 A 
ATOM     26  C   UNL     1       9.326   6.835   7.577  0.00  0.00    +0.041 A 
ATOM     27  C   UNL     1       9.382   6.402   5.201  0.00  0.00    +0.028 A 
ATOM     29  C   UNL     1       9.475   5.471   7.829  0.00  0.00    +0.057 A 
ATOM     30  C   UNL     1       9.531   5.038   5.453  0.00  0.00    +0.002 A 
ATOM     31  C   UNL     1       9.577   4.572   6.766  0.00  0.00    +0.012 A 
BRANCH  29  34
ATOM      2  F   UNL     1       8.449   5.353   9.987  0.00  0.00    -0.166 F 
ATOM      3  F   UNL     1       9.561   3.611   9.331  0.00  0.00    -0.166 F 
ATOM      4  F   UNL     1      10.621   5.419   9.911  0.00  0.00    -0.166 F 
ATOM     34  C   UNL     1       9.523   4.973   9.234  0.00  0.00    +0.417 C 
ENDBRANCH  29  34
ENDBRANCH   1  23
ENDBRANCH  12   1
ENDBRANCH  16  12
TORSDOF 12
ENDMDL
MODEL 6
REMARK VINA RESULT:      -7.1      3.952      6.216
REMARK  Name = 7134495
REMARK  12 active torsions:
REMARK  status: ('A' for Active; 'I' for Inactive)
REMARK    1  A    between atoms: S_1  and  N_12
REMARK    2  A    between atoms: S_1  and  C_23
REMARK    3  A    between atoms: O_5  and  C_15
REMARK    4  A    between atoms: O_6  and  C_18
REMARK    5  A    between atoms: O_7  and  C_20
REMARK    6  A    between atoms: N_12  and  C_16
REMARK    7  A    between atoms: N_13  and  C_22
REMARK    8  A    between atoms: C_15  and  C_21
REMARK    9  A    between atoms: C_22  and  C_24
REMARK   10  A    between atoms: C_22  and  C_25
REMARK   11  A    between atoms: C_24  and  C_28
REMARK   12  A    between atoms: C_29  and  C_34
REMARK                            x       y       z     vdW  Elec       q    Type
REMARK                         _______ _______ _______ _____ _____    ______ ____
ROOT
ATOM     15  C   UNL     1      15.727   6.720  20.811  0.00  0.00    +0.145 C 
ATOM     16  C   UNL     1      18.190   7.042  21.324  0.00  0.00    +0.111 C 
ATOM     17  C   UNL     1      16.791   7.661  21.379  0.00  0.00    +0.067 C 
ATOM     18  C   UNL     1      18.558   6.560  19.916  0.00  0.00    +0.162 C 
ATOM     19  C   UNL     1      16.090   6.265  19.399  0.00  0.00    +0.078 C 
ATOM     20  C   UNL     1      17.483   5.637  19.332  0.00  0.00    +0.148 C 
ENDROOT
BRANCH  15  21
ATOM      8  O   UNL     1      14.190   8.465  21.354  0.00  0.00    -0.273 OA
ATOM     13  N   UNL     1      13.423   6.618  20.165  0.00  0.00    -0.301 N 
ATOM     21  C   UNL     1      14.379   7.381  20.811  0.00  0.00    +0.245 C 
ATOM     42  H   UNL     1      13.698   5.769  19.682  0.00  0.00    +0.150 HD
BRANCH  13  22
ATOM     22  C   UNL     1      12.039   7.019  20.047  0.00  0.00    +0.163 C 
BRANCH  22  25
ATOM     11  O   UNL     1      10.794   7.473  22.084  0.00  0.00    -0.274 OA
ATOM     14  N   UNL     1      11.382   5.302  21.617  0.00  0.00    -0.328 N 
ATOM     25  C   UNL     1      11.353   6.656  21.356  0.00  0.00    +0.231 C 
ATOM     43  H   UNL     1      10.948   4.923  22.453  0.00  0.00    +0.145 HD
ATOM     44  H   UNL     1      11.827   4.636  20.994  0.00  0.00    +0.145 HD
ENDBRANCH  22  25
BRANCH  22  24
ATOM     24  C   UNL     1      11.892   8.519  19.765  0.00  0.00    +0.067 C 
BRANCH  24  28
ATOM     28  C   UNL     1      11.941   8.843  18.292  0.00  0.00    -0.045 A 
ATOM     32  C   UNL     1      10.840   8.565  17.480  0.00  0.00    +0.004 A 
ATOM     33  C   UNL     1      13.085   9.419  17.742  0.00  0.00    +0.004 A 
ATOM     35  C   UNL     1      10.885   8.864  16.118  0.00  0.00    +0.000 A 
ATOM     36  C   UNL     1      13.130   9.719  16.380  0.00  0.00    +0.000 A 
ATOM     37  C   UNL     1      12.030   9.441  15.569  0.00  0.00    +0.000 A 
ENDBRANCH  24  28
ENDBRANCH  22  24
ENDBRANCH  13  22
ENDBRANCH  15  21
BRANCH  15   5
ATOM      5  O   UNL     1      15.578   5.577  21.644  0.00  0.00    -0.379 OA
ATOM     39  H   UNL     1      16.151   4.866  21.313  0.00  0.00    +0.211 HD
ENDBRANCH  15   5
BRANCH  18   6
ATOM      6  O   UNL     1      19.787   5.834  20.006  0.00  0.00    -0.388 OA
ATOM     40  H   UNL     1      20.057   5.585  19.106  0.00  0.00    +0.210 HD
ENDBRANCH  18   6
BRANCH  20   7
ATOM      7  O   UNL     1      17.772   5.372  17.961  0.00  0.00    -0.389 OA
ATOM     41  H   UNL     1      18.197   6.165  17.590  0.00  0.00    +0.210 HD
ENDBRANCH  20   7
BRANCH  16  12
ATOM     12  N   UNL     1      19.178   8.065  21.763  0.00  0.00    -0.184 NA
ATOM     38  H   UNL     1      19.232   8.935  21.221  0.00  0.00    +0.148 HD
BRANCH  12   1
ATOM      1  S   UNL     1      20.407   7.633  22.845  0.00  0.00    +0.059 S 
ATOM      9  O   UNL     1      20.230   6.254  23.259  0.00  0.00    -0.153 OA
ATOM     10  O   UNL     1      20.537   8.683  23.839  0.00  0.00    -0.153 OA
BRANCH   1  23
ATOM     23  C   UNL     1      21.846   7.715  21.821  0.00  0.00    +0.106 A 
ATOM     26  C   UNL     1      22.690   6.609  21.714  0.00  0.00    +0.041 A 
ATOM     27  C   UNL     1      22.136   8.884  21.119  0.00  0.00    +0.028 A 
ATOM     29  C   UNL     1      23.824   6.674  20.905  0.00  0.00    +0.057 A 
ATOM     30  C   UNL     1      23.270   8.949  20.309  0.00  0.00    +0.002 A 
ATOM     31  C   UNL     1      24.114   7.843  20.202  0.00  0.00    +0.012 A 
BRANCH  29  34
ATOM      2  F   UNL     1      26.035   5.820  20.578  0.00  0.00    -0.166 F 
ATOM      3  F   UNL     1      24.735   4.700  21.904  0.00  0.00    -0.166 F 
ATOM      4  F   UNL     1      24.383   4.667  19.758  0.00  0.00    -0.166 F 
ATOM     34  C   UNL     1      24.726   5.491  20.790  0.00  0.00    +0.417 C 
ENDBRANCH  29  34
ENDBRANCH   1  23
ENDBRANCH  12   1
ENDBRANCH  16  12
TORSDOF 12
ENDMDL
MODEL 7
REMARK VINA RESULT:      -6.9     15.693     18.771
REMARK  Name = 7134495
REMARK  12 active torsions:
REMARK  status: ('A' for Active; 'I' for Inactive)
REMARK    1  A    between atoms: S_1  and  N_12
REMARK    2  A    between atoms: S_1  and  C_23
REMARK    3  A    between atoms: O_5  and  C_15
REMARK    4  A    between atoms: O_6  and  C_18
REMARK    5  A    between atoms: O_7  and  C_20
REMARK    6  A    between atoms: N_12  and  C_16
REMARK    7  A    between atoms: N_13  and  C_22
REMARK    8  A    between atoms: C_15  and  C_21
REMARK    9  A    between atoms: C_22  and  C_24
REMARK   10  A    between atoms: C_22  and  C_25
REMARK   11  A    between atoms: C_24  and  C_28
REMARK   12  A    between atoms: C_29  and  C_34
REMARK                            x       y       z     vdW  Elec       q    Type
REMARK                         _______ _______ _______ _____ _____    ______ ____
ROOT
ATOM     15  C   UNL     1      14.947   7.684   3.703  0.00  0.00    +0.145 C 
ATOM     16  C   UNL     1      14.502   8.535   6.050  0.00  0.00    +0.111 C 
ATOM     17  C   UNL     1      13.915   7.835   4.821  0.00  0.00    +0.067 C 
ATOM     18  C   UNL     1      15.153   9.878   5.700  0.00  0.00    +0.162 C 
ATOM     19  C   UNL     1      15.572   9.031   3.343  0.00  0.00    +0.078 C 
ATOM     20  C   UNL     1      16.169   9.736   4.562  0.00  0.00    +0.148 C 
ENDROOT
BRANCH  15  21
ATOM      8  O   UNL     1      13.984   7.734   1.518  0.00  0.00    -0.273 OA
ATOM     13  N   UNL     1      14.175   5.693   2.619  0.00  0.00    -0.301 N 
ATOM     21  C   UNL     1      14.325   7.062   2.487  0.00  0.00    +0.245 C 
ATOM     42  H   UNL     1      14.560   5.220   3.430  0.00  0.00    +0.150 HD
BRANCH  13  22
ATOM     22  C   UNL     1      13.581   4.860   1.598  0.00  0.00    +0.163 C 
BRANCH  22  25
ATOM     11  O   UNL     1      14.850   3.583  -0.034  0.00  0.00    -0.274 OA
ATOM     14  N   UNL     1      15.405   3.387   2.187  0.00  0.00    -0.328 N 
ATOM     25  C   UNL     1      14.650   3.877   1.142  0.00  0.00    +0.231 C 
ATOM     43  H   UNL     1      16.162   2.732   2.019  0.00  0.00    +0.145 HD
ATOM     44  H   UNL     1      15.243   3.658   3.152  0.00  0.00    +0.145 HD
ENDBRANCH  22  25
BRANCH  22  24
ATOM     24  C   UNL     1      12.347   4.108   2.108  0.00  0.00    +0.067 C 
BRANCH  24  28
ATOM     28  C   UNL     1      11.266   5.033   2.611  0.00  0.00    -0.045 A 
ATOM     32  C   UNL     1      10.709   5.985   1.755  0.00  0.00    +0.004 A 
ATOM     33  C   UNL     1      10.824   4.938   3.930  0.00  0.00    +0.004 A 
ATOM     35  C   UNL     1       9.710   6.841   2.220  0.00  0.00    +0.000 A 
ATOM     36  C   UNL     1       9.825   5.795   4.395  0.00  0.00    +0.000 A 
ATOM     37  C   UNL     1       9.268   6.745   3.539  0.00  0.00    +0.000 A 
ENDBRANCH  24  28
ENDBRANCH  22  24
ENDBRANCH  13  22
ENDBRANCH  15  21
BRANCH  15   5
ATOM      5  O   UNL     1      15.976   6.783   4.093  0.00  0.00    -0.379 OA
ATOM     39  H   UNL     1      16.839   7.191   3.914  0.00  0.00    +0.211 HD
ENDBRANCH  15   5
BRANCH  18   6
ATOM      6  O   UNL     1      15.831  10.356   6.864  0.00  0.00    -0.388 OA
ATOM     40  H   UNL     1      16.655  10.785   6.579  0.00  0.00    +0.210 HD
ENDBRANCH  18   6
BRANCH  20   7
ATOM      7  O   UNL     1      16.603  11.029   4.143  0.00  0.00    -0.389 OA
ATOM     41  H   UNL     1      16.443  11.098   3.186  0.00  0.00    +0.210 HD
ENDBRANCH  20   7
BRANCH  16  12
ATOM     12  N   UNL     1      13.407   8.766   7.032  0.00  0.00    -0.184 NA
ATOM     38  H   UNL     1      13.276   8.065   7.770  0.00  0.00    +0.148 HD
BRANCH  12   1
ATOM      1  S   UNL     1      12.207   9.914   6.696  0.00  0.00    +0.059 S 
ATOM      9  O   UNL     1      12.300  10.323   5.307  0.00  0.00    -0.153 OA
ATOM     10  O   UNL     1      12.210  10.909   7.752  0.00  0.00    -0.153 OA
BRANCH   1  23
ATOM     23  C   UNL     1      10.727   8.965   6.888  0.00  0.00    +0.106 A 
ATOM     26  C   UNL     1      10.749   7.780   7.623  0.00  0.00    +0.041 A 
ATOM     27  C   UNL     1       9.538   9.403   6.305  0.00  0.00    +0.028 A 
ATOM     29  C   UNL     1       9.580   7.033   7.775  0.00  0.00    +0.057 A 
ATOM     30  C   UNL     1       8.370   8.656   6.457  0.00  0.00    +0.002 A 
ATOM     31  C   UNL     1       8.391   7.471   7.192  0.00  0.00    +0.012 A 
BRANCH  29  34
ATOM      2  F   UNL     1      10.739   5.603   9.303  0.00  0.00    -0.166 F 
ATOM      3  F   UNL     1       8.577   5.659   9.457  0.00  0.00    -0.166 F 
ATOM      4  F   UNL     1       9.519   4.656   7.772  0.00  0.00    -0.166 F 
ATOM     34  C   UNL     1       9.604   5.766   8.562  0.00  0.00    +0.417 C 
ENDBRANCH  29  34
ENDBRANCH   1  23
ENDBRANCH  12   1
ENDBRANCH  16  12
TORSDOF 12
ENDMDL
MODEL 8
REMARK VINA RESULT:      -6.9     28.889     31.221
REMARK  Name = 7134495
REMARK  12 active torsions:
REMARK  status: ('A' for Active; 'I' for Inactive)
REMARK    1  A    between atoms: S_1  and  N_12
REMARK    2  A    between atoms: S_1  and  C_23
REMARK    3  A    between atoms: O_5  and  C_15
REMARK    4  A    between atoms: O_6  and  C_18
REMARK    5  A    between atoms: O_7  and  C_20
REMARK    6  A    between atoms: N_12  and  C_16
REMARK    7  A    between atoms: N_13  and  C_22
REMARK    8  A    between atoms: C_15  and  C_21
REMARK    9  A    between atoms: C_22  and  C_24
REMARK   10  A    between atoms: C_22  and  C_25
REMARK   11  A    between atoms: C_24  and  C_28
REMARK   12  A    between atoms: C_29  and  C_34
REMARK                            x       y       z     vdW  Elec       q    Type
REMARK                         _______ _______ _______ _____ _____    ______ ____
ROOT
ATOM     15  C   UNL     1      -5.547 -10.952  17.137  0.00  0.00    +0.145 C 
ATOM     16  C   UNL     1      -7.824 -10.077  17.830  0.00  0.00    +0.111 C 
ATOM     17  C   UNL     1      -6.593  -9.854  16.947  0.00  0.00    +0.067 C 
ATOM     18  C   UNL     1      -7.456 -10.253  19.307  0.00  0.00    +0.162 C 
ATOM     19  C   UNL     1      -5.168 -11.104  18.609  0.00  0.00    +0.078 C 
ATOM     20  C   UNL     1      -6.388 -11.336  19.501  0.00  0.00    +0.148 C 
ENDROOT
BRANCH  15  21
ATOM      8  O   UNL     1      -3.448  -9.899  16.700  0.00  0.00    -0.273 OA
ATOM     13  N   UNL     1      -4.335 -11.347  15.109  0.00  0.00    -0.301 N 
ATOM     21  C   UNL     1      -4.324 -10.669  16.315  0.00  0.00    +0.245 C 
ATOM     42  H   UNL     1      -5.070 -12.021  14.917  0.00  0.00    +0.150 HD
BRANCH  13  22
ATOM     22  C   UNL     1      -3.284 -11.228  14.124  0.00  0.00    +0.163 C 
BRANCH  22  25
ATOM     11  O   UNL     1      -1.094 -11.586  15.115  0.00  0.00    -0.274 OA
ATOM     14  N   UNL     1      -2.331 -13.419  14.493  0.00  0.00    -0.328 N 
ATOM     25  C   UNL     1      -2.111 -12.063  14.617  0.00  0.00    +0.231 C 
ATOM     43  H   UNL     1      -1.633 -14.090  14.797  0.00  0.00    +0.145 HD
ATOM     44  H   UNL     1      -3.187 -13.800  14.101  0.00  0.00    +0.145 HD
ENDBRANCH  22  25
BRANCH  22  24
ATOM     24  C   UNL     1      -3.731 -11.703  12.737  0.00  0.00    +0.067 C 
BRANCH  24  28
ATOM     28  C   UNL     1      -4.027 -10.560  11.797  0.00  0.00    -0.045 A 
ATOM     32  C   UNL     1      -5.184  -9.800  11.966  0.00  0.00    +0.004 A 
ATOM     33  C   UNL     1      -3.143 -10.265  10.758  0.00  0.00    +0.004 A 
ATOM     35  C   UNL     1      -5.458  -8.744  11.096  0.00  0.00    +0.000 A 
ATOM     36  C   UNL     1      -3.417  -9.208   9.889  0.00  0.00    +0.000 A 
ATOM     37  C   UNL     1      -4.574  -8.448  10.059  0.00  0.00    +0.000 A 
ENDBRANCH  24  28
ENDBRANCH  22  24
ENDBRANCH  13  22
ENDBRANCH  15  21
BRANCH  15   5
ATOM      5  O   UNL     1      -6.036 -12.197  16.653  0.00  0.00    -0.379 OA
ATOM     39  H   UNL     1      -6.009 -12.193  15.682  0.00  0.00    +0.211 HD
ENDBRANCH  15   5
BRANCH  18   6
ATOM      6  O   UNL     1      -8.637 -10.643  20.012  0.00  0.00    -0.388 OA
ATOM     40  H   UNL     1      -9.181 -11.183  19.415  0.00  0.00    +0.210 HD
ENDBRANCH  18   6
BRANCH  20   7
ATOM      7  O   UNL     1      -5.941 -11.331  20.856  0.00  0.00    -0.389 OA
ATOM     41  H   UNL     1      -5.853 -10.403  21.134  0.00  0.00    +0.210 HD
ENDBRANCH  20   7
BRANCH  16  12
ATOM     12  N   UNL     1      -8.727  -8.902  17.690  0.00  0.00    -0.184 NA
ATOM     38  H   UNL     1      -8.892  -8.329  18.526  0.00  0.00    +0.148 HD
BRANCH  12   1
ATOM      1  S   UNL     1      -9.728  -8.770  16.330  0.00  0.00    +0.059 S 
ATOM      9  O   UNL     1      -9.425  -9.839  15.397  0.00  0.00    -0.153 OA
ATOM     10  O   UNL     1      -9.723  -7.390  15.884  0.00  0.00    -0.153 OA
BRANCH   1  23
ATOM     23  C   UNL     1     -11.326  -9.083  17.018  0.00  0.00    +0.106 A 
ATOM     26  C   UNL     1     -11.463  -9.320  18.385  0.00  0.00    +0.041 A 
ATOM     27  C   UNL     1     -12.451  -9.091  16.192  0.00  0.00    +0.028 A 
ATOM     29  C   UNL     1     -12.725  -9.565  18.928  0.00  0.00    +0.057 A 
ATOM     30  C   UNL     1     -13.713  -9.336  16.735  0.00  0.00    +0.002 A 
ATOM     31  C   UNL     1     -13.849  -9.573  18.103  0.00  0.00    +0.012 A 
BRANCH  29  34
ATOM      2  F   UNL     1     -11.769  -9.470  21.119  0.00  0.00    -0.166 F 
ATOM      3  F   UNL     1     -13.906  -9.136  20.963  0.00  0.00    -0.166 F 
ATOM      4  F   UNL     1     -13.097 -11.134  20.676  0.00  0.00    -0.166 F 
ATOM     34  C   UNL     1     -12.871  -9.819  20.391  0.00  0.00    +0.417 C 
ENDBRANCH  29  34
ENDBRANCH   1  23
ENDBRANCH  12   1
ENDBRANCH  16  12
TORSDOF 12
ENDMDL
MODEL 9
REMARK VINA RESULT:      -6.9     16.471     19.436
REMARK  Name = 7134495
REMARK  12 active torsions:
REMARK  status: ('A' for Active; 'I' for Inactive)
REMARK    1  A    between atoms: S_1  and  N_12
REMARK    2  A    between atoms: S_1  and  C_23
REMARK    3  A    between atoms: O_5  and  C_15
REMARK    4  A    between atoms: O_6  and  C_18
REMARK    5  A    between atoms: O_7  and  C_20
REMARK    6  A    between atoms: N_12  and  C_16
REMARK    7  A    between atoms: N_13  and  C_22
REMARK    8  A    between atoms: C_15  and  C_21
REMARK    9  A    between atoms: C_22  and  C_24
REMARK   10  A    between atoms: C_22  and  C_25
REMARK   11  A    between atoms: C_24  and  C_28
REMARK   12  A    between atoms: C_29  and  C_34
REMARK                            x       y       z     vdW  Elec       q    Type
REMARK                         _______ _______ _______ _____ _____    ______ ____
ROOT
ATOM     15  C   UNL     1      13.369   7.718   4.282  0.00  0.00    +0.145 C 
ATOM     16  C   UNL     1      12.117   9.324   5.793  0.00  0.00    +0.111 C 
ATOM     17  C   UNL     1      12.230   8.732   4.385  0.00  0.00    +0.067 C 
ATOM     18  C   UNL     1      13.444   9.916   6.283  0.00  0.00    +0.162 C 
ATOM     19  C   UNL     1      14.692   8.324   4.749  0.00  0.00    +0.078 C 
ATOM     20  C   UNL     1      14.594   8.911   6.157  0.00  0.00    +0.148 C 
ENDROOT
BRANCH  15  21
ATOM      8  O   UNL     1      13.672   7.969   1.926  0.00  0.00    -0.273 OA
ATOM     13  N   UNL     1      13.384   5.833   2.804  0.00  0.00    -0.301 N 
ATOM     21  C   UNL     1      13.501   7.210   2.876  0.00  0.00    +0.245 C 
ATOM     42  H   UNL     1      13.321   5.288   3.658  0.00  0.00    +0.150 HD
BRANCH  13  22
ATOM     22  C   UNL     1      13.451   5.097   1.562  0.00  0.00    +0.163 C 
BRANCH  22  25
ATOM     11  O   UNL     1      14.945   3.234   2.013  0.00  0.00    -0.274 OA
ATOM     14  N   UNL     1      15.781   5.071   0.915  0.00  0.00    -0.328 N 
ATOM     25  C   UNL     1      14.783   4.360   1.548  0.00  0.00    +0.231 C 
ATOM     43  H   UNL     1      16.716   4.687   0.824  0.00  0.00    +0.145 HD
ATOM     44  H   UNL     1      15.626   5.991   0.515  0.00  0.00    +0.145 HD
ENDBRANCH  22  25
BRANCH  22  24
ATOM     24  C   UNL     1      12.292   4.106   1.411  0.00  0.00    +0.067 C 
BRANCH  24  28
ATOM     28  C   UNL     1      11.809   3.987  -0.014  0.00  0.00    -0.045 A 
ATOM     32  C   UNL     1      10.762   4.791  -0.466  0.00  0.00    +0.004 A 
ATOM     33  C   UNL     1      12.409   3.072  -0.880  0.00  0.00    +0.004 A 
ATOM     35  C   UNL     1      10.315   4.680  -1.783  0.00  0.00    +0.000 A 
ATOM     36  C   UNL     1      11.962   2.961  -2.197  0.00  0.00    +0.000 A 
ATOM     37  C   UNL     1      10.916   3.766  -2.648  0.00  0.00    +0.000 A 
ENDBRANCH  24  28
ENDBRANCH  22  24
ENDBRANCH  13  22
ENDBRANCH  15  21
BRANCH  15   5
ATOM      5  O   UNL     1      13.084   6.566   5.065  0.00  0.00    -0.379 OA
ATOM     39  H   UNL     1      13.904   6.063   5.201  0.00  0.00    +0.211 HD
ENDBRANCH  15   5
BRANCH  18   6
ATOM      6  O   UNL     1      13.288  10.265   7.661  0.00  0.00    -0.388 OA
ATOM     40  H   UNL     1      14.077  10.760   7.938  0.00  0.00    +0.210 HD
ENDBRANCH  18   6
BRANCH  20   7
ATOM      7  O   UNL     1      15.832   9.562   6.441  0.00  0.00    -0.389 OA
ATOM     41  H   UNL     1      15.771  10.472   6.102  0.00  0.00    +0.210 HD
ENDBRANCH  20   7
BRANCH  16  12
ATOM     12  N   UNL     1      11.083  10.395   5.776  0.00  0.00    -0.184 NA
ATOM     38  H   UNL     1      11.332  11.288   5.333  0.00  0.00    +0.148 HD
BRANCH  12   1
ATOM      1  S   UNL     1       9.728  10.269   6.784  0.00  0.00    +0.059 S 
ATOM      9  O   UNL     1       8.638  11.052   6.235  0.00  0.00    -0.153 OA
ATOM     10  O   UNL     1      10.153  10.472   8.157  0.00  0.00    -0.153 OA
BRANCH   1  23
ATOM     23  C   UNL     1       9.308   8.560   6.624  0.00  0.00    +0.106 A 
ATOM     26  C   UNL     1       9.581   7.673   7.665  0.00  0.00    +0.041 A 
ATOM     27  C   UNL     1       8.701   8.098   5.456  0.00  0.00    +0.028 A 
ATOM     29  C   UNL     1       9.248   6.325   7.539  0.00  0.00    +0.057 A 
ATOM     30  C   UNL     1       8.368   6.749   5.329  0.00  0.00    +0.002 A 
ATOM     31  C   UNL     1       8.642   5.862   6.371  0.00  0.00    +0.012 A 
BRANCH  29  34
ATOM      2  F   UNL     1       8.657   5.464   9.691  0.00  0.00    -0.166 F 
ATOM      3  F   UNL     1       9.517   4.064   8.276  0.00  0.00    -0.166 F 
ATOM      4  F   UNL     1      10.774   5.577   9.203  0.00  0.00    -0.166 F 
ATOM     34  C   UNL     1       9.541   5.377   8.653  0.00  0.00    +0.417 C 
ENDBRANCH  29  34
ENDBRANCH   1  23
ENDBRANCH  12   1
ENDBRANCH  16  12
TORSDOF 12
ENDMDL
MODEL 10
REMARK VINA RESULT:      -6.8      4.907      6.573
REMARK  Name = 7134495
REMARK  12 active torsions:
REMARK  status: ('A' for Active; 'I' for Inactive)
REMARK    1  A    between atoms: S_1  and  N_12
REMARK    2  A    between atoms: S_1  and  C_23
REMARK    3  A    between atoms: O_5  and  C_15
REMARK    4  A    between atoms: O_6  and  C_18
REMARK    5  A    between atoms: O_7  and  C_20
REMARK    6  A    between atoms: N_12  and  C_16
REMARK    7  A    between atoms: N_13  and  C_22
REMARK    8  A    between atoms: C_15  and  C_21
REMARK    9  A    between atoms: C_22  and  C_24
REMARK   10  A    between atoms: C_22  and  C_25
REMARK   11  A    between atoms: C_24  and  C_28
REMARK   12  A    between atoms: C_29  and  C_34
REMARK                            x       y       z     vdW  Elec       q    Type
REMARK                         _______ _______ _______ _____ _____    ______ ____
ROOT
ATOM     15  C   UNL     1      13.425   9.956  16.427  0.00  0.00    +0.145 C 
ATOM     16  C   UNL     1      13.643   8.415  18.429  0.00  0.00    +0.111 C 
ATOM     17  C   UNL     1      14.352   9.037  17.223  0.00  0.00    +0.067 C 
ATOM     18  C   UNL     1      12.344   7.702  18.036  0.00  0.00    +0.162 C 
ATOM     19  C   UNL     1      12.144   9.230  16.019  0.00  0.00    +0.078 C 
ATOM     20  C   UNL     1      11.423   8.611  17.217  0.00  0.00    +0.148 C 
ENDROOT
BRANCH  15  21
ATOM      8  O   UNL     1      15.048   9.889  14.677  0.00  0.00    -0.273 OA
ATOM     13  N   UNL     1      13.619  11.719  14.817  0.00  0.00    -0.301 N 
ATOM     21  C   UNL     1      14.124  10.493  15.212  0.00  0.00    +0.245 C 
ATOM     42  H   UNL     1      12.801  12.100  15.281  0.00  0.00    +0.150 HD
BRANCH  13  22
ATOM     22  C   UNL     1      14.134  12.460  13.688  0.00  0.00    +0.163 C 
BRANCH  22  25
ATOM     11  O   UNL     1      12.661  13.481  12.047  0.00  0.00    -0.274 OA
ATOM     14  N   UNL     1      12.435  14.085  14.252  0.00  0.00    -0.328 N 
ATOM     25  C   UNL     1      13.025  13.390  13.217  0.00  0.00    +0.231 C 
ATOM     43  H   UNL     1      11.671  14.730  14.078  0.00  0.00    +0.145 HD
ATOM     44  H   UNL     1      12.731  13.981  15.218  0.00  0.00    +0.145 HD
ENDBRANCH  22  25
BRANCH  22  24
ATOM     24  C   UNL     1      15.389  13.265  14.046  0.00  0.00    +0.067 C 
BRANCH  24  28
ATOM     28  C   UNL     1      16.582  12.891  13.202  0.00  0.00    -0.045 A 
ATOM     32  C   UNL     1      17.841  12.767  13.791  0.00  0.00    +0.004 A 
ATOM     33  C   UNL     1      16.428  12.671  11.834  0.00  0.00    +0.004 A 
ATOM     35  C   UNL     1      18.945  12.422  13.011  0.00  0.00    +0.000 A 
ATOM     36  C   UNL     1      17.532  12.325  11.054  0.00  0.00    +0.000 A 
ATOM     37  C   UNL     1      18.790  12.201  11.643  0.00  0.00    +0.000 A 
ENDBRANCH  24  28
ENDBRANCH  22  24
ENDBRANCH  13  22
ENDBRANCH  15  21
BRANCH  15   5
ATOM      5  O   UNL     1      13.083  11.105  17.194  0.00  0.00    -0.379 OA
ATOM     39  H   UNL     1      13.715  11.816  16.998  0.00  0.00    +0.211 HD
ENDBRANCH  15   5
BRANCH  18   6
ATOM      6  O   UNL     1      11.668   7.326  19.239  0.00  0.00    -0.388 OA
ATOM     40  H   UNL     1      10.716   7.276  19.047  0.00  0.00    +0.210 HD
ENDBRANCH  18   6
BRANCH  20   7
ATOM      7  O   UNL     1      10.324   7.852  16.714  0.00  0.00    -0.389 OA
ATOM     41  H   UNL     1       9.921   7.383  17.465  0.00  0.00    +0.210 HD
ENDBRANCH  20   7
BRANCH  16  12
ATOM     12  N   UNL     1      14.564   7.434  19.066  0.00  0.00    -0.184 NA
ATOM     38  H   UNL     1      14.501   6.456  18.759  0.00  0.00    +0.148 HD
BRANCH  12   1
ATOM      1  S   UNL     1      15.378   7.851  20.492  0.00  0.00    +0.059 S 
ATOM      9  O   UNL     1      14.655   7.328  21.636  0.00  0.00    -0.153 OA
ATOM     10  O   UNL     1      15.727   9.258  20.430  0.00  0.00    -0.153 OA
BRANCH   1  23
ATOM     23  C   UNL     1      16.884   6.939  20.335  0.00  0.00    +0.106 A 
ATOM     26  C   UNL     1      17.915   7.131  21.256  0.00  0.00    +0.041 A 
ATOM     27  C   UNL     1      17.043   6.028  19.291  0.00  0.00    +0.028 A 
ATOM     29  C   UNL     1      19.103   6.411  21.133  0.00  0.00    +0.057 A 
ATOM     30  C   UNL     1      18.231   5.308  19.168  0.00  0.00    +0.002 A 
ATOM     31  C   UNL     1      19.261   5.499  20.089  0.00  0.00    +0.012 A 
BRANCH  29  34
ATOM      2  F   UNL     1      21.159   7.496  21.695  0.00  0.00    -0.166 F 
ATOM      3  F   UNL     1      19.779   7.105  23.320  0.00  0.00    -0.166 F 
ATOM      4  F   UNL     1      20.872   5.462  22.407  0.00  0.00    -0.166 F 
ATOM     34  C   UNL     1      20.204   6.616  22.118  0.00  0.00    +0.417 C 
ENDBRANCH  29  34
ENDBRANCH   1  23
ENDBRANCH  12   1
ENDBRANCH  16  12
TORSDOF 12
ENDMDL
