MODEL 1
REMARK VINA RESULT:      -8.2      0.000      0.000
REMARK  Name = 51136906
REMARK  7 active torsions:
REMARK  status: ('A' for Active; 'I' for Inactive)
REMARK    1  A    between atoms: O_2  and  C_26
REMARK    2  A    between atoms: N_4  and  C_14
REMARK    3  A    between atoms: C_10  and  C_15
REMARK    4  A    between atoms: C_14  and  C_16
REMARK    5  A    between atoms: C_19  and  C_22
REMARK    6  A    between atoms: C_23  and  C_26
REMARK    7  A    between atoms: C_28  and  C_29
REMARK                            x       y       z     vdW  Elec       q    Type
REMARK                         _______ _______ _______ _____ _____    ______ ____
ROOT
ATOM      1  O   UNL     1      15.110   8.769  19.763  0.00  0.00    -0.336 OA
ATOM      5  N   UNL     1      15.938   6.809  19.066  0.00  0.00    -0.190 NA
ATOM      6  N   UNL     1      16.293   8.567  20.485  0.00  0.00    -0.056 NA
ATOM     15  C   UNL     1      14.975   7.688  18.951  0.00  0.00    +0.245 A 
ATOM     19  C   UNL     1      16.723   7.392  20.019  0.00  0.00    +0.204 A 
ENDROOT
BRANCH  19  22
ATOM      7  N   UNL     1      19.620   5.068  20.191  0.00  0.00    -0.254 NA
ATOM     22  C   UNL     1      17.930   6.771  20.483  0.00  0.00    +0.041 A 
ATOM     24  C   UNL     1      18.577   7.230  21.624  0.00  0.00    +0.015 A 
ATOM     25  C   UNL     1      18.487   5.697  19.808  0.00  0.00    +0.123 A 
ATOM     27  C   UNL     1      19.746   6.609  22.051  0.00  0.00    +0.029 A 
ATOM     28  C   UNL     1      20.223   5.543  21.305  0.00  0.00    +0.074 A 
BRANCH  28  29
ATOM      8  N   UNL     1      22.852   2.912  21.553  0.00  0.00    -0.243 NA
ATOM      9  N   UNL     1      23.494   4.786  22.925  0.00  0.00    -0.243 NA
ATOM     29  C   UNL     1      21.431   4.850  21.687  0.00  0.00    +0.037 A 
ATOM     30  C   UNL     1      21.734   3.589  21.216  0.00  0.00    +0.124 A 
ATOM     31  C   UNL     1      22.357   5.405  22.547  0.00  0.00    +0.124 A 
ATOM     32  C   UNL     1      23.676   3.560  22.398  0.00  0.00    +0.221 A 
ENDBRANCH  28  29
ENDBRANCH  19  22
BRANCH  15  10
ATOM      4  N   UNL     1      12.667   8.529  18.553  0.00  0.00    -0.287 NA
ATOM     10  C   UNL     1      13.755   7.665  18.054  0.00  0.00    +0.146 C 
ATOM     11  C   UNL     1      14.051   8.188  16.636  0.00  0.00    +0.030 C 
ATOM     12  C   UNL     1      13.040   9.302  16.404  0.00  0.00    +0.017 C 
ATOM     13  C   UNL     1      11.924   8.979  17.376  0.00  0.00    +0.085 C 
BRANCH   4  14
ATOM     14  C   UNL     1      11.807   7.866  19.525  0.00  0.00    +0.120 C 
BRANCH  14  16
ATOM     16  C   UNL     1      11.565   8.726  20.738  0.00  0.00    -0.033 A 
ATOM     17  C   UNL     1      10.909   8.195  21.849  0.00  0.00    +0.006 A 
ATOM     18  C   UNL     1      11.997  10.052  20.751  0.00  0.00    +0.006 A 
ATOM     20  C   UNL     1      10.684   8.991  22.972  0.00  0.00    +0.015 A 
ATOM     21  C   UNL     1      11.772  10.847  21.874  0.00  0.00    +0.015 A 
ATOM     23  C   UNL     1      11.116  10.317  22.984  0.00  0.00    +0.059 A 
BRANCH  23  26
ATOM      3  O   UNL     1      10.203  12.178  24.180  0.00  0.00    -0.245 OA
ATOM     26  C   UNL     1      10.884  11.148  24.156  0.00  0.00    +0.337 C 
BRANCH  26   2
ATOM      2  O   UNL     1      11.509  10.669  25.266  0.00  0.00    -0.477 OA
ATOM     33  H   UNL     1      11.647   9.699  25.218  0.00  0.00    +0.295 HD
ENDBRANCH  26   2
ENDBRANCH  23  26
ENDBRANCH  14  16
ENDBRANCH   4  14
ENDBRANCH  15  10
TORSDOF 7
ENDMDL
MODEL 2
REMARK VINA RESULT:      -7.4      2.601      4.953
REMARK  Name = 51136906
REMARK  7 active torsions:
REMARK  status: ('A' for Active; 'I' for Inactive)
REMARK    1  A    between atoms: O_2  and  C_26
REMARK    2  A    between atoms: N_4  and  C_14
REMARK    3  A    between atoms: C_10  and  C_15
REMARK    4  A    between atoms: C_14  and  C_16
REMARK    5  A    between atoms: C_19  and  C_22
REMARK    6  A    between atoms: C_23  and  C_26
REMARK    7  A    between atoms: C_28  and  C_29
REMARK                            x       y       z     vdW  Elec       q    Type
REMARK                         _______ _______ _______ _____ _____    ______ ____
ROOT
ATOM      1  O   UNL     1      14.256   6.683  19.956  0.00  0.00    -0.336 OA
ATOM      5  N   UNL     1      15.615   7.921  21.235  0.00  0.00    -0.190 NA
ATOM      6  N   UNL     1      15.552   6.201  19.729  0.00  0.00    -0.056 NA
ATOM     15  C   UNL     1      14.383   7.694  20.855  0.00  0.00    +0.245 A 
ATOM     19  C   UNL     1      16.296   6.981  20.517  0.00  0.00    +0.204 A 
ENDROOT
BRANCH  19  22
ATOM      7  N   UNL     1      19.717   5.593  20.079  0.00  0.00    -0.254 NA
ATOM     22  C   UNL     1      17.721   6.848  20.612  0.00  0.00    +0.041 A 
ATOM     24  C   UNL     1      18.484   7.789  21.292  0.00  0.00    +0.015 A 
ATOM     25  C   UNL     1      18.379   5.778  20.027  0.00  0.00    +0.123 A 
ATOM     27  C   UNL     1      19.864   7.634  21.367  0.00  0.00    +0.029 A 
ATOM     28  C   UNL     1      20.427   6.529  20.749  0.00  0.00    +0.074 A 
BRANCH  28  29
ATOM      8  N   UNL     1      24.080   7.116  21.202  0.00  0.00    -0.243 NA
ATOM      9  N   UNL     1      23.742   4.846  20.464  0.00  0.00    -0.243 NA
ATOM     29  C   UNL     1      21.853   6.304  20.785  0.00  0.00    +0.037 A 
ATOM     30  C   UNL     1      22.743   7.290  21.159  0.00  0.00    +0.124 A 
ATOM     31  C   UNL     1      22.415   5.090  20.444  0.00  0.00    +0.124 A 
ATOM     32  C   UNL     1      24.505   5.888  20.847  0.00  0.00    +0.221 A 
ENDBRANCH  28  29
ENDBRANCH  19  22
BRANCH  15  10
ATOM      4  N   UNL     1      12.405   9.023  20.136  0.00  0.00    -0.287 NA
ATOM     10  C   UNL     1      13.105   8.391  21.272  0.00  0.00    +0.146 C 
ATOM     11  C   UNL     1      12.072   7.424  21.879  0.00  0.00    +0.030 C 
ATOM     12  C   UNL     1      10.807   7.627  21.057  0.00  0.00    +0.017 C 
ATOM     13  C   UNL     1      10.982   9.012  20.470  0.00  0.00    +0.085 C 
BRANCH   4  14
ATOM     14  C   UNL     1      12.889  10.365  19.837  0.00  0.00    +0.120 C 
BRANCH  14  16
ATOM     16  C   UNL     1      13.531  10.440  18.477  0.00  0.00    -0.033 A 
ATOM     17  C   UNL     1      14.049  11.651  18.016  0.00  0.00    +0.006 A 
ATOM     18  C   UNL     1      13.609   9.299  17.678  0.00  0.00    +0.006 A 
ATOM     20  C   UNL     1      14.642  11.721  16.756  0.00  0.00    +0.015 A 
ATOM     21  C   UNL     1      14.203   9.370  16.418  0.00  0.00    +0.015 A 
ATOM     23  C   UNL     1      14.720  10.580  15.957  0.00  0.00    +0.059 A 
BRANCH  23  26
ATOM      3  O   UNL     1      15.749  11.683  14.101  0.00  0.00    -0.245 OA
ATOM     26  C   UNL     1      15.340  10.652  14.644  0.00  0.00    +0.337 C 
BRANCH  26   2
ATOM      2  O   UNL     1      15.433   9.433  14.044  0.00  0.00    -0.477 OA
ATOM     33  H   UNL     1      14.713   9.291  13.394  0.00  0.00    +0.295 HD
ENDBRANCH  26   2
ENDBRANCH  23  26
ENDBRANCH  14  16
ENDBRANCH   4  14
ENDBRANCH  15  10
TORSDOF 7
ENDMDL
MODEL 3
REMARK VINA RESULT:      -7.2      2.946      4.629
REMARK  Name = 51136906
REMARK  7 active torsions:
REMARK  status: ('A' for Active; 'I' for Inactive)
REMARK    1  A    between atoms: O_2  and  C_26
REMARK    2  A    between atoms: N_4  and  C_14
REMARK    3  A    between atoms: C_10  and  C_15
REMARK    4  A    between atoms: C_14  and  C_16
REMARK    5  A    between atoms: C_19  and  C_22
REMARK    6  A    between atoms: C_23  and  C_26
REMARK    7  A    between atoms: C_28  and  C_29
REMARK                            x       y       z     vdW  Elec       q    Type
REMARK                         _______ _______ _______ _____ _____    ______ ____
ROOT
ATOM      1  O   UNL     1      18.322   9.247  22.099  0.00  0.00    -0.336 OA
ATOM      5  N   UNL     1      17.930   7.214  21.244  0.00  0.00    -0.190 NA
ATOM      6  N   UNL     1      19.487   8.500  22.320  0.00  0.00    -0.056 NA
ATOM     15  C   UNL     1      17.457   8.415  21.462  0.00  0.00    +0.245 A 
ATOM     19  C   UNL     1      19.178   7.314  21.789  0.00  0.00    +0.204 A 
ENDROOT
BRANCH  19  22
ATOM      7  N   UNL     1      21.794   4.933  22.933  0.00  0.00    -0.254 NA
ATOM     22  C   UNL     1      20.092   6.208  21.785  0.00  0.00    +0.041 A 
ATOM     24  C   UNL     1      20.181   5.358  20.689  0.00  0.00    +0.015 A 
ATOM     25  C   UNL     1      20.912   5.956  22.872  0.00  0.00    +0.123 A 
ATOM     27  C   UNL     1      21.077   4.294  20.713  0.00  0.00    +0.029 A 
ATOM     28  C   UNL     1      21.853   4.126  21.848  0.00  0.00    +0.074 A 
BRANCH  28  29
ATOM      8  N   UNL     1      23.948   1.389  23.267  0.00  0.00    -0.243 NA
ATOM      9  N   UNL     1      24.405   1.575  20.908  0.00  0.00    -0.243 NA
ATOM     29  C   UNL     1      22.803   3.043  21.945  0.00  0.00    +0.037 A 
ATOM     30  C   UNL     1      23.066   2.402  23.139  0.00  0.00    +0.124 A 
ATOM     31  C   UNL     1      23.509   2.583  20.852  0.00  0.00    +0.124 A 
ATOM     32  C   UNL     1      24.572   1.032  22.129  0.00  0.00    +0.221 A 
ENDBRANCH  28  29
ENDBRANCH  19  22
BRANCH  15  10
ATOM      4  N   UNL     1      14.989   8.268  21.751  0.00  0.00    -0.287 NA
ATOM     10  C   UNL     1      16.103   8.993  21.107  0.00  0.00    +0.146 C 
ATOM     11  C   UNL     1      15.940  10.453  21.570  0.00  0.00    +0.030 C 
ATOM     12  C   UNL     1      14.675  10.462  22.417  0.00  0.00    +0.017 C 
ATOM     13  C   UNL     1      13.915   9.243  21.936  0.00  0.00    +0.085 C 
BRANCH   4  14
ATOM     14  C   UNL     1      14.548   7.103  20.995  0.00  0.00    +0.120 C 
BRANCH  14  16
ATOM     16  C   UNL     1      13.760   7.493  19.772  0.00  0.00    -0.033 A 
ATOM     17  C   UNL     1      14.408   7.649  18.546  0.00  0.00    +0.006 A 
ATOM     18  C   UNL     1      12.384   7.697  19.865  0.00  0.00    +0.006 A 
ATOM     20  C   UNL     1      13.679   8.012  17.414  0.00  0.00    +0.015 A 
ATOM     21  C   UNL     1      11.655   8.059  18.732  0.00  0.00    +0.015 A 
ATOM     23  C   UNL     1      12.302   8.216  17.507  0.00  0.00    +0.059 A 
BRANCH  23  26
ATOM      3  O   UNL     1      12.004   9.136  15.318  0.00  0.00    -0.245 OA
ATOM     26  C   UNL     1      11.540   8.592  16.326  0.00  0.00    +0.337 C 
BRANCH  26   2
ATOM      2  O   UNL     1      10.220   8.280  16.436  0.00  0.00    -0.477 OA
ATOM     33  H   UNL     1       9.659   8.871  15.891  0.00  0.00    +0.295 HD
ENDBRANCH  26   2
ENDBRANCH  23  26
ENDBRANCH  14  16
ENDBRANCH   4  14
ENDBRANCH  15  10
TORSDOF 7
ENDMDL
MODEL 4
REMARK VINA RESULT:      -7.1     13.697     15.791
REMARK  Name = 51136906
REMARK  7 active torsions:
REMARK  status: ('A' for Active; 'I' for Inactive)
REMARK    1  A    between atoms: O_2  and  C_26
REMARK    2  A    between atoms: N_4  and  C_14
REMARK    3  A    between atoms: C_10  and  C_15
REMARK    4  A    between atoms: C_14  and  C_16
REMARK    5  A    between atoms: C_19  and  C_22
REMARK    6  A    between atoms: C_23  and  C_26
REMARK    7  A    between atoms: C_28  and  C_29
REMARK                            x       y       z     vdW  Elec       q    Type
REMARK                         _______ _______ _______ _____ _____    ______ ____
ROOT
ATOM      1  O   UNL     1      11.650   8.918   5.563  0.00  0.00    -0.336 OA
ATOM      5  N   UNL     1      12.992   8.221   3.911  0.00  0.00    -0.190 NA
ATOM      6  N   UNL     1      12.960   9.052   6.042  0.00  0.00    -0.056 NA
ATOM     15  C   UNL     1      11.759   8.422   4.303  0.00  0.00    +0.245 A 
ATOM     19  C   UNL     1      13.693   8.621   5.012  0.00  0.00    +0.204 A 
ENDROOT
BRANCH  19  22
ATOM      7  N   UNL     1      17.193   7.776   4.084  0.00  0.00    -0.254 NA
ATOM     22  C   UNL     1      15.127   8.578   5.048  0.00  0.00    +0.041 A 
ATOM     24  C   UNL     1      15.838   9.257   6.030  0.00  0.00    +0.015 A 
ATOM     25  C   UNL     1      15.844   7.859   4.106  0.00  0.00    +0.123 A 
ATOM     27  C   UNL     1      17.227   9.197   6.041  0.00  0.00    +0.029 A 
ATOM     28  C   UNL     1      17.851   8.450   5.055  0.00  0.00    +0.074 A 
BRANCH  28  29
ATOM      8  N   UNL     1      21.404   8.107   6.130  0.00  0.00    -0.243 NA
ATOM      9  N   UNL     1      21.331   8.280   3.727  0.00  0.00    -0.243 NA
ATOM     29  C   UNL     1      19.291   8.344   5.002  0.00  0.00    +0.037 A 
ATOM     30  C   UNL     1      20.059   8.207   6.141  0.00  0.00    +0.124 A 
ATOM     31  C   UNL     1      19.988   8.374   3.812  0.00  0.00    +0.124 A 
ATOM     32  C   UNL     1      21.967   8.149   4.907  0.00  0.00    +0.221 A 
ENDBRANCH  28  29
ENDBRANCH  19  22
BRANCH  15  10
ATOM      4  N   UNL     1       9.382   7.697   4.439  0.00  0.00    -0.287 NA
ATOM     10  C   UNL     1      10.463   8.183   3.557  0.00  0.00    +0.146 C 
ATOM     11  C   UNL     1       9.900   9.466   2.918  0.00  0.00    +0.030 C 
ATOM     12  C   UNL     1       8.479   9.585   3.451  0.00  0.00    +0.017 C 
ATOM     13  C   UNL     1       8.128   8.167   3.851  0.00  0.00    +0.085 C 
BRANCH   4  14
ATOM     14  C   UNL     1       9.396   6.251   4.621  0.00  0.00    +0.120 C 
BRANCH  14  16
ATOM     16  C   UNL     1       9.400   5.870   6.078  0.00  0.00    -0.033 A 
ATOM     17  C   UNL     1       9.752   4.575   6.459  0.00  0.00    +0.006 A 
ATOM     18  C   UNL     1       9.051   6.811   7.047  0.00  0.00    +0.006 A 
ATOM     20  C   UNL     1       9.755   4.222   7.808  0.00  0.00    +0.015 A 
ATOM     21  C   UNL     1       9.054   6.457   8.396  0.00  0.00    +0.015 A 
ATOM     23  C   UNL     1       9.407   5.163   8.776  0.00  0.00    +0.059 A 
BRANCH  23  26
ATOM      3  O   UNL     1      10.416   4.525  10.850  0.00  0.00    -0.245 OA
ATOM     26  C   UNL     1       9.411   4.796  10.184  0.00  0.00    +0.337 C 
BRANCH  26   2
ATOM      2  O   UNL     1       8.161   4.776  10.721  0.00  0.00    -0.477 OA
ATOM     33  H   UNL     1       7.474   4.987  10.054  0.00  0.00    +0.295 HD
ENDBRANCH  26   2
ENDBRANCH  23  26
ENDBRANCH  14  16
ENDBRANCH   4  14
ENDBRANCH  15  10
TORSDOF 7
ENDMDL
MODEL 5
REMARK VINA RESULT:      -7.0      4.484     11.679
REMARK  Name = 51136906
REMARK  7 active torsions:
REMARK  status: ('A' for Active; 'I' for Inactive)
REMARK    1  A    between atoms: O_2  and  C_26
REMARK    2  A    between atoms: N_4  and  C_14
REMARK    3  A    between atoms: C_10  and  C_15
REMARK    4  A    between atoms: C_14  and  C_16
REMARK    5  A    between atoms: C_19  and  C_22
REMARK    6  A    between atoms: C_23  and  C_26
REMARK    7  A    between atoms: C_28  and  C_29
REMARK                            x       y       z     vdW  Elec       q    Type
REMARK                         _______ _______ _______ _____ _____    ______ ____
ROOT
ATOM      1  O   UNL     1      20.956   6.669  22.851  0.00  0.00    -0.336 OA
ATOM      5  N   UNL     1      20.377   5.705  20.914  0.00  0.00    -0.190 NA
ATOM      6  N   UNL     1      19.659   7.116  22.565  0.00  0.00    -0.056 NA
ATOM     15  C   UNL     1      21.303   5.843  21.829  0.00  0.00    +0.245 A 
ATOM     19  C   UNL     1      19.388   6.505  21.409  0.00  0.00    +0.204 A 
ENDROOT
BRANCH  19  22
ATOM      7  N   UNL     1      16.012   7.807  20.551  0.00  0.00    -0.254 NA
ATOM     22  C   UNL     1      18.139   6.672  20.722  0.00  0.00    +0.041 A 
ATOM     24  C   UNL     1      17.830   5.905  19.605  0.00  0.00    +0.015 A 
ATOM     25  C   UNL     1      17.206   7.601  21.152  0.00  0.00    +0.123 A 
ATOM     27  C   UNL     1      16.611   6.088  18.959  0.00  0.00    +0.029 A 
ATOM     28  C   UNL     1      15.746   7.044  19.467  0.00  0.00    +0.074 A 
BRANCH  28  29
ATOM      8  N   UNL     1      12.062   7.332  18.980  0.00  0.00    -0.243 NA
ATOM      9  N   UNL     1      13.168   7.951  16.931  0.00  0.00    -0.243 NA
ATOM     29  C   UNL     1      14.465   7.290  18.848  0.00  0.00    +0.037 A 
ATOM     30  C   UNL     1      13.276   7.114  19.527  0.00  0.00    +0.124 A 
ATOM     31  C   UNL     1      14.348   7.714  17.540  0.00  0.00    +0.124 A 
ATOM     32  C   UNL     1      12.081   7.743  17.698  0.00  0.00    +0.221 A 
ENDBRANCH  28  29
ENDBRANCH  19  22
BRANCH  15  10
ATOM      4  N   UNL     1      22.962   4.327  20.760  0.00  0.00    -0.287 NA
ATOM     10  C   UNL     1      22.681   5.220  21.903  0.00  0.00    +0.146 C 
ATOM     11  C   UNL     1      23.809   6.267  21.869  0.00  0.00    +0.030 C 
ATOM     12  C   UNL     1      24.708   5.845  20.715  0.00  0.00    +0.017 C 
ATOM     13  C   UNL     1      24.409   4.369  20.550  0.00  0.00    +0.085 C 
BRANCH   4  14
ATOM     14  C   UNL     1      22.475   2.968  20.960  0.00  0.00    +0.120 C 
BRANCH  14  16
ATOM     16  C   UNL     1      23.435   2.143  21.777  0.00  0.00    -0.033 A 
ATOM     17  C   UNL     1      23.420   2.231  23.169  0.00  0.00    +0.006 A 
ATOM     18  C   UNL     1      24.338   1.291  21.142  0.00  0.00    +0.006 A 
ATOM     20  C   UNL     1      24.309   1.469  23.925  0.00  0.00    +0.015 A 
ATOM     21  C   UNL     1      25.227   0.528  21.899  0.00  0.00    +0.015 A 
ATOM     23  C   UNL     1      25.212   0.617  23.290  0.00  0.00    +0.059 A 
BRANCH  23  26
ATOM      3  O   UNL     1      27.357  -0.257  23.891  0.00  0.00    -0.245 OA
ATOM     26  C   UNL     1      26.138  -0.181  24.079  0.00  0.00    +0.337 C 
BRANCH  26   2
ATOM      2  O   UNL     1      25.517  -0.861  25.081  0.00  0.00    -0.477 OA
ATOM     33  H   UNL     1      25.985  -0.759  25.937  0.00  0.00    +0.295 HD
ENDBRANCH  26   2
ENDBRANCH  23  26
ENDBRANCH  14  16
ENDBRANCH   4  14
ENDBRANCH  15  10
TORSDOF 7
ENDMDL
MODEL 6
REMARK VINA RESULT:      -7.0     27.646     30.302
REMARK  Name = 51136906
REMARK  7 active torsions:
REMARK  status: ('A' for Active; 'I' for Inactive)
REMARK    1  A    between atoms: O_2  and  C_26
REMARK    2  A    between atoms: N_4  and  C_14
REMARK    3  A    between atoms: C_10  and  C_15
REMARK    4  A    between atoms: C_14  and  C_16
REMARK    5  A    between atoms: C_19  and  C_22
REMARK    6  A    between atoms: C_23  and  C_26
REMARK    7  A    between atoms: C_28  and  C_29
REMARK                            x       y       z     vdW  Elec       q    Type
REMARK                         _______ _______ _______ _____ _____    ______ ____
ROOT
ATOM      1  O   UNL     1      -2.304  -9.950  11.418  0.00  0.00    -0.336 OA
ATOM      5  N   UNL     1      -4.252 -10.973  11.001  0.00  0.00    -0.190 NA
ATOM      6  N   UNL     1      -2.923  -9.210  10.403  0.00  0.00    -0.056 NA
ATOM     15  C   UNL     1      -3.152 -10.970  11.711  0.00  0.00    +0.245 A 
ATOM     19  C   UNL     1      -4.066  -9.875  10.212  0.00  0.00    +0.204 A 
ENDROOT
BRANCH  19  22
ATOM      7  N   UNL     1      -6.932  -8.074   8.675  0.00  0.00    -0.254 NA
ATOM     22  C   UNL     1      -5.042  -9.470   9.242  0.00  0.00    +0.041 A 
ATOM     24  C   UNL     1      -5.071 -10.039   7.975  0.00  0.00    +0.015 A 
ATOM     25  C   UNL     1      -5.986  -8.500   9.541  0.00  0.00    +0.123 A 
ATOM     27  C   UNL     1      -6.030  -9.627   7.055  0.00  0.00    +0.029 A 
ATOM     28  C   UNL     1      -6.929  -8.650   7.451  0.00  0.00    +0.074 A 
BRANCH  28  29
ATOM      8  N   UNL     1      -8.810  -7.933   4.314  0.00  0.00    -0.243 NA
ATOM      9  N   UNL     1     -10.034  -7.024   6.180  0.00  0.00    -0.243 NA
ATOM     29  C   UNL     1      -7.950  -8.171   6.549  0.00  0.00    +0.037 A 
ATOM     30  C   UNL     1      -7.876  -8.367   5.185  0.00  0.00    +0.124 A 
ATOM     31  C   UNL     1      -9.063  -7.487   6.994  0.00  0.00    +0.124 A 
ATOM     32  C   UNL     1      -9.847  -7.279   4.871  0.00  0.00    +0.221 A 
ENDBRANCH  28  29
ENDBRANCH  19  22
BRANCH  15  10
ATOM      4  N   UNL     1      -3.546 -11.849  14.006  0.00  0.00    -0.287 NA
ATOM     10  C   UNL     1      -2.706 -11.929  12.794  0.00  0.00    +0.146 C 
ATOM     11  C   UNL     1      -2.792 -13.403  12.356  0.00  0.00    +0.030 C 
ATOM     12  C   UNL     1      -3.650 -14.083  13.414  0.00  0.00    +0.017 C 
ATOM     13  C   UNL     1      -3.515 -13.176  14.620  0.00  0.00    +0.085 C 
BRANCH   4  14
ATOM     14  C   UNL     1      -3.122 -10.806  14.932  0.00  0.00    +0.120 C 
BRANCH  14  16
ATOM     16  C   UNL     1      -3.935 -10.816  16.199  0.00  0.00    -0.033 A 
ATOM     17  C   UNL     1      -5.220 -10.273  16.207  0.00  0.00    +0.006 A 
ATOM     18  C   UNL     1      -3.405 -11.368  17.365  0.00  0.00    +0.006 A 
ATOM     20  C   UNL     1      -5.973 -10.281  17.380  0.00  0.00    +0.015 A 
ATOM     21  C   UNL     1      -4.158 -11.377  18.538  0.00  0.00    +0.015 A 
ATOM     23  C   UNL     1      -5.442 -10.834  18.546  0.00  0.00    +0.059 A 
BRANCH  23  26
ATOM      3  O   UNL     1      -5.865 -11.321  20.850  0.00  0.00    -0.245 OA
ATOM     26  C   UNL     1      -6.228 -10.845  19.770  0.00  0.00    +0.337 C 
BRANCH  26   2
ATOM      2  O   UNL     1      -7.447 -10.260  19.611  0.00  0.00    -0.477 OA
ATOM     33  H   UNL     1      -7.903 -10.579  18.804  0.00  0.00    +0.295 HD
ENDBRANCH  26   2
ENDBRANCH  23  26
ENDBRANCH  14  16
ENDBRANCH   4  14
ENDBRANCH  15  10
TORSDOF 7
ENDMDL
MODEL 7
REMARK VINA RESULT:      -6.9     27.931     29.974
REMARK  Name = 51136906
REMARK  7 active torsions:
REMARK  status: ('A' for Active; 'I' for Inactive)
REMARK    1  A    between atoms: O_2  and  C_26
REMARK    2  A    between atoms: N_4  and  C_14
REMARK    3  A    between atoms: C_10  and  C_15
REMARK    4  A    between atoms: C_14  and  C_16
REMARK    5  A    between atoms: C_19  and  C_22
REMARK    6  A    between atoms: C_23  and  C_26
REMARK    7  A    between atoms: C_28  and  C_29
REMARK                            x       y       z     vdW  Elec       q    Type
REMARK                         _______ _______ _______ _____ _____    ______ ____
ROOT
ATOM      1  O   UNL     1      -8.564  -9.259  10.390  0.00  0.00    -0.336 OA
ATOM      5  N   UNL     1      -6.489  -9.358  11.226  0.00  0.00    -0.190 NA
ATOM      6  N   UNL     1      -8.706  -9.562  11.751  0.00  0.00    -0.056 NA
ATOM     15  C   UNL     1      -7.228  -9.157  10.165  0.00  0.00    +0.245 A 
ATOM     19  C   UNL     1      -7.440  -9.604  12.174  0.00  0.00    +0.204 A 
ENDROOT
BRANCH  19  22
ATOM      7  N   UNL     1      -7.796 -10.206  15.825  0.00  0.00    -0.254 NA
ATOM     22  C   UNL     1      -7.090  -9.888  13.536  0.00  0.00    +0.041 A 
ATOM     24  C   UNL     1      -5.768 -10.116  13.903  0.00  0.00    +0.015 A 
ATOM     25  C   UNL     1      -8.058  -9.944  14.525  0.00  0.00    +0.123 A 
ATOM     27  C   UNL     1      -5.459 -10.389  15.231  0.00  0.00    +0.029 A 
ATOM     28  C   UNL     1      -6.499 -10.423  16.145  0.00  0.00    +0.074 A 
BRANCH  28  29
ATOM      8  N   UNL     1      -4.796 -11.508  19.278  0.00  0.00    -0.243 NA
ATOM      9  N   UNL     1      -7.001 -10.708  19.828  0.00  0.00    -0.243 NA
ATOM     29  C   UNL     1      -6.253 -10.702  17.540  0.00  0.00    +0.037 A 
ATOM     30  C   UNL     1      -5.059 -11.233  17.983  0.00  0.00    +0.124 A 
ATOM     31  C   UNL     1      -7.197 -10.457  18.517  0.00  0.00    +0.124 A 
ATOM     32  C   UNL     1      -5.796 -11.225  20.134  0.00  0.00    +0.221 A 
ENDBRANCH  28  29
ENDBRANCH  19  22
BRANCH  15  10
ATOM      4  N   UNL     1      -5.734  -9.718   8.255  0.00  0.00    -0.287 NA
ATOM     10  C   UNL     1      -6.806  -8.830   8.748  0.00  0.00    +0.146 C 
ATOM     11  C   UNL     1      -7.951  -8.998   7.733  0.00  0.00    +0.030 C 
ATOM     12  C   UNL     1      -7.409  -9.950   6.675  0.00  0.00    +0.017 C 
ATOM     13  C   UNL     1      -5.906  -9.809   6.806  0.00  0.00    +0.085 C 
BRANCH   4  14
ATOM     14  C   UNL     1      -4.398  -9.265   8.623  0.00  0.00    +0.120 C 
BRANCH  14  16
ATOM     16  C   UNL     1      -3.808 -10.099   9.730  0.00  0.00    -0.033 A 
ATOM     17  C   UNL     1      -4.121 -11.455   9.824  0.00  0.00    +0.006 A 
ATOM     18  C   UNL     1      -2.949  -9.515  10.661  0.00  0.00    +0.006 A 
ATOM     20  C   UNL     1      -3.576 -12.226  10.849  0.00  0.00    +0.015 A 
ATOM     21  C   UNL     1      -2.404 -10.288  11.686  0.00  0.00    +0.015 A 
ATOM     23  C   UNL     1      -2.716 -11.643  11.780  0.00  0.00    +0.059 A 
BRANCH  23  26
ATOM      3  O   UNL     1      -1.931 -12.059  14.001  0.00  0.00    -0.245 OA
ATOM     26  C   UNL     1      -2.146 -12.448  12.849  0.00  0.00    +0.337 C 
BRANCH  26   2
ATOM      2  O   UNL     1      -1.858 -13.717  12.449  0.00  0.00    -0.477 OA
ATOM     33  H   UNL     1      -2.124 -13.875  11.518  0.00  0.00    +0.295 HD
ENDBRANCH  26   2
ENDBRANCH  23  26
ENDBRANCH  14  16
ENDBRANCH   4  14
ENDBRANCH  15  10
TORSDOF 7
ENDMDL
MODEL 8
REMARK VINA RESULT:      -6.9     26.762     30.505
REMARK  Name = 51136906
REMARK  7 active torsions:
REMARK  status: ('A' for Active; 'I' for Inactive)
REMARK    1  A    between atoms: O_2  and  C_26
REMARK    2  A    between atoms: N_4  and  C_14
REMARK    3  A    between atoms: C_10  and  C_15
REMARK    4  A    between atoms: C_14  and  C_16
REMARK    5  A    between atoms: C_19  and  C_22
REMARK    6  A    between atoms: C_23  and  C_26
REMARK    7  A    between atoms: C_28  and  C_29
REMARK                            x       y       z     vdW  Elec       q    Type
REMARK                         _______ _______ _______ _____ _____    ______ ____
ROOT
ATOM      1  O   UNL     1      -4.796 -11.684  17.141  0.00  0.00    -0.336 OA
ATOM      5  N   UNL     1      -5.344 -10.213  15.544  0.00  0.00    -0.190 NA
ATOM      6  N   UNL     1      -6.097 -11.255  17.436  0.00  0.00    -0.056 NA
ATOM     15  C   UNL     1      -4.428 -11.022  16.013  0.00  0.00    +0.245 A 
ATOM     19  C   UNL     1      -6.350 -10.389  16.450  0.00  0.00    +0.204 A 
ENDROOT
BRANCH  19  22
ATOM      7  N   UNL     1      -9.434  -8.946  14.958  0.00  0.00    -0.254 NA
ATOM     22  C   UNL     1      -7.595  -9.685  16.341  0.00  0.00    +0.041 A 
ATOM     24  C   UNL     1      -8.170  -9.073  17.448  0.00  0.00    +0.015 A 
ATOM     25  C   UNL     1      -8.260  -9.594  15.129  0.00  0.00    +0.123 A 
ATOM     27  C   UNL     1      -9.378  -8.397  17.312  0.00  0.00    +0.029 A 
ATOM     28  C   UNL     1      -9.964  -8.363  16.057  0.00  0.00    +0.074 A 
BRANCH  28  29
ATOM      8  N   UNL     1     -12.434  -5.749  15.077  0.00  0.00    -0.243 NA
ATOM      9  N   UNL     1     -13.620  -7.639  15.986  0.00  0.00    -0.243 NA
ATOM     29  C   UNL     1     -11.218  -7.681  15.841  0.00  0.00    +0.037 A 
ATOM     30  C   UNL     1     -11.281  -6.416  15.292  0.00  0.00    +0.124 A 
ATOM     31  C   UNL     1     -12.432  -8.249  16.172  0.00  0.00    +0.124 A 
ATOM     32  C   UNL     1     -13.549  -6.409  15.442  0.00  0.00    +0.221 A 
ENDBRANCH  28  29
ENDBRANCH  19  22
BRANCH  15  10
ATOM      4  N   UNL     1      -2.824 -10.763  14.128  0.00  0.00    -0.287 NA
ATOM     10  C   UNL     1      -3.042 -11.316  15.480  0.00  0.00    +0.146 C 
ATOM     11  C   UNL     1      -1.929 -10.691  16.342  0.00  0.00    +0.030 C 
ATOM     12  C   UNL     1      -1.102  -9.853  15.377  0.00  0.00    +0.017 C 
ATOM     13  C   UNL     1      -1.395 -10.473  14.026  0.00  0.00    +0.085 C 
BRANCH   4  14
ATOM     14  C   UNL     1      -3.282 -11.648  13.065  0.00  0.00    +0.120 C 
BRANCH  14  16
ATOM     16  C   UNL     1      -3.989 -10.892  11.970  0.00  0.00    -0.033 A 
ATOM     17  C   UNL     1      -5.326 -10.527  12.126  0.00  0.00    +0.006 A 
ATOM     18  C   UNL     1      -3.305 -10.555  10.802  0.00  0.00    +0.006 A 
ATOM     20  C   UNL     1      -5.980  -9.827  11.113  0.00  0.00    +0.015 A 
ATOM     21  C   UNL     1      -3.960  -9.855   9.789  0.00  0.00    +0.015 A 
ATOM     23  C   UNL     1      -5.297  -9.491   9.944  0.00  0.00    +0.059 A 
BRANCH  23  26
ATOM      3  O   UNL     1      -6.964  -8.031   9.042  0.00  0.00    -0.245 OA
ATOM     26  C   UNL     1      -5.978  -8.759   8.888  0.00  0.00    +0.337 C 
BRANCH  26   2
ATOM      2  O   UNL     1      -5.410  -8.957   7.667  0.00  0.00    -0.477 OA
ATOM     33  H   UNL     1      -4.863  -9.771   7.647  0.00  0.00    +0.295 HD
ENDBRANCH  26   2
ENDBRANCH  23  26
ENDBRANCH  14  16
ENDBRANCH   4  14
ENDBRANCH  15  10
TORSDOF 7
ENDMDL
MODEL 9
REMARK VINA RESULT:      -6.7      4.171     10.761
REMARK  Name = 51136906
REMARK  7 active torsions:
REMARK  status: ('A' for Active; 'I' for Inactive)
REMARK    1  A    between atoms: O_2  and  C_26
REMARK    2  A    between atoms: N_4  and  C_14
REMARK    3  A    between atoms: C_10  and  C_15
REMARK    4  A    between atoms: C_14  and  C_16
REMARK    5  A    between atoms: C_19  and  C_22
REMARK    6  A    between atoms: C_23  and  C_26
REMARK    7  A    between atoms: C_28  and  C_29
REMARK                            x       y       z     vdW  Elec       q    Type
REMARK                         _______ _______ _______ _____ _____    ______ ____
ROOT
ATOM      1  O   UNL     1      21.537   5.199  20.386  0.00  0.00    -0.336 OA
ATOM      5  N   UNL     1      20.455   6.997  21.166  0.00  0.00    -0.190 NA
ATOM      6  N   UNL     1      20.183   4.999  20.086  0.00  0.00    -0.056 NA
ATOM     15  C   UNL     1      21.609   6.397  21.021  0.00  0.00    +0.245 A 
ATOM     19  C   UNL     1      19.610   6.101  20.578  0.00  0.00    +0.204 A 
ENDROOT
BRANCH  19  22
ATOM      7  N   UNL     1      16.170   7.110  21.563  0.00  0.00    -0.254 NA
ATOM     22  C   UNL     1      18.197   6.339  20.497  0.00  0.00    +0.041 A 
ATOM     24  C   UNL     1      17.488   6.049  19.338  0.00  0.00    +0.015 A 
ATOM     25  C   UNL     1      17.499   6.863  21.573  0.00  0.00    +0.123 A 
ATOM     27  C   UNL     1      16.119   6.289  19.289  0.00  0.00    +0.029 A 
ATOM     28  C   UNL     1      15.513   6.816  20.418  0.00  0.00    +0.074 A 
BRANCH  28  29
ATOM      8  N   UNL     1      12.135   7.824  21.629  0.00  0.00    -0.243 NA
ATOM      9  N   UNL     1      11.966   7.156  19.319  0.00  0.00    -0.243 NA
ATOM     29  C   UNL     1      14.096   7.093  20.440  0.00  0.00    +0.037 A 
ATOM     30  C   UNL     1      13.456   7.557  21.572  0.00  0.00    +0.124 A 
ATOM     31  C   UNL     1      13.293   6.910  19.333  0.00  0.00    +0.124 A 
ATOM     32  C   UNL     1      11.460   7.605  20.484  0.00  0.00    +0.221 A 
ENDBRANCH  28  29
ENDBRANCH  19  22
BRANCH  15  10
ATOM      4  N   UNL     1      23.712   5.810  22.216  0.00  0.00    -0.287 NA
ATOM     10  C   UNL     1      22.988   6.849  21.456  0.00  0.00    +0.146 C 
ATOM     11  C   UNL     1      23.908   7.176  20.266  0.00  0.00    +0.030 C 
ATOM     12  C   UNL     1      25.150   6.320  20.476  0.00  0.00    +0.017 C 
ATOM     13  C   UNL     1      25.136   6.031  21.963  0.00  0.00    +0.085 C 
BRANCH   4  14
ATOM     14  C   UNL     1      23.400   5.818  23.640  0.00  0.00    +0.120 C 
BRANCH  14  16
ATOM     16  C   UNL     1      23.108   4.434  24.158  0.00  0.00    -0.033 A 
ATOM     17  C   UNL     1      22.707   3.430  23.276  0.00  0.00    +0.006 A 
ATOM     18  C   UNL     1      23.239   4.156  25.518  0.00  0.00    +0.006 A 
ATOM     20  C   UNL     1      22.436   2.150  23.755  0.00  0.00    +0.015 A 
ATOM     21  C   UNL     1      22.968   2.874  25.997  0.00  0.00    +0.015 A 
ATOM     23  C   UNL     1      22.567   1.871  25.115  0.00  0.00    +0.059 A 
BRANCH  23  26
ATOM      3  O   UNL     1      23.135  -0.295  25.958  0.00  0.00    -0.245 OA
ATOM     26  C   UNL     1      22.286   0.534  25.615  0.00  0.00    +0.337 C 
BRANCH  26   2
ATOM      2  O   UNL     1      20.953   0.269  25.673  0.00  0.00    -0.477 OA
ATOM     33  H   UNL     1      20.510   0.778  26.385  0.00  0.00    +0.295 HD
ENDBRANCH  26   2
ENDBRANCH  23  26
ENDBRANCH  14  16
ENDBRANCH   4  14
ENDBRANCH  15  10
TORSDOF 7
ENDMDL
MODEL 10
REMARK VINA RESULT:      -6.7     28.029     31.606
REMARK  Name = 51136906
REMARK  7 active torsions:
REMARK  status: ('A' for Active; 'I' for Inactive)
REMARK    1  A    between atoms: O_2  and  C_26
REMARK    2  A    between atoms: N_4  and  C_14
REMARK    3  A    between atoms: C_10  and  C_15
REMARK    4  A    between atoms: C_14  and  C_16
REMARK    5  A    between atoms: C_19  and  C_22
REMARK    6  A    between atoms: C_23  and  C_26
REMARK    7  A    between atoms: C_28  and  C_29
REMARK                            x       y       z     vdW  Elec       q    Type
REMARK                         _______ _______ _______ _____ _____    ______ ____
ROOT
ATOM      1  O   UNL     1      -8.259 -10.371  17.871  0.00  0.00    -0.336 OA
ATOM      5  N   UNL     1      -8.124  -9.427  15.845  0.00  0.00    -0.190 NA
ATOM      6  N   UNL     1      -9.395  -9.561  17.742  0.00  0.00    -0.056 NA
ATOM     15  C   UNL     1      -7.565 -10.233  16.711  0.00  0.00    +0.245 A 
ATOM     19  C   UNL     1      -9.243  -9.038  16.522  0.00  0.00    +0.204 A 
ENDROOT
BRANCH  19  22
ATOM      7  N   UNL     1     -11.690  -7.574  14.136  0.00  0.00    -0.254 NA
ATOM     22  C   UNL     1     -10.191  -8.125  15.950  0.00  0.00    +0.041 A 
ATOM     24  C   UNL     1     -10.534  -6.948  16.603  0.00  0.00    +0.015 A 
ATOM     25  C   UNL     1     -10.791  -8.391  14.729  0.00  0.00    +0.123 A 
ATOM     27  C   UNL     1     -11.456  -6.082  16.024  0.00  0.00    +0.029 A 
ATOM     28  C   UNL     1     -12.000  -6.438  14.801  0.00  0.00    +0.074 A 
BRANCH  28  29
ATOM      8  N   UNL     1     -15.236  -5.128  13.495  0.00  0.00    -0.243 NA
ATOM      9  N   UNL     1     -13.474  -3.605  12.877  0.00  0.00    -0.243 NA
ATOM     29  C   UNL     1     -12.964  -5.589  14.141  0.00  0.00    +0.037 A 
ATOM     30  C   UNL     1     -14.309  -5.896  14.103  0.00  0.00    +0.124 A 
ATOM     31  C   UNL     1     -12.601  -4.419  13.504  0.00  0.00    +0.124 A 
ATOM     32  C   UNL     1     -14.757  -4.014  12.910  0.00  0.00    +0.221 A 
ENDBRANCH  28  29
ENDBRANCH  19  22
BRANCH  15  10
ATOM      4  N   UNL     1      -5.556 -10.754  15.337  0.00  0.00    -0.287 NA
ATOM     10  C   UNL     1      -6.276 -11.021  16.599  0.00  0.00    +0.146 C 
ATOM     11  C   UNL     1      -5.267 -10.669  17.707  0.00  0.00    +0.030 C 
ATOM     12  C   UNL     1      -3.992 -10.276  16.974  0.00  0.00    +0.017 C 
ATOM     13  C   UNL     1      -4.135 -10.948  15.624  0.00  0.00    +0.085 C 
BRANCH   4  14
ATOM     14  C   UNL     1      -6.011 -11.584  14.229  0.00  0.00    +0.120 C 
BRANCH  14  16
ATOM     16  C   UNL     1      -5.814 -10.903  12.900  0.00  0.00    -0.033 A 
ATOM     17  C   UNL     1      -6.195  -9.571  12.736  0.00  0.00    +0.006 A 
ATOM     18  C   UNL     1      -5.249 -11.603  11.834  0.00  0.00    +0.006 A 
ATOM     20  C   UNL     1      -6.013  -8.941  11.506  0.00  0.00    +0.015 A 
ATOM     21  C   UNL     1      -5.067 -10.972  10.604  0.00  0.00    +0.015 A 
ATOM     23  C   UNL     1      -5.449  -9.641  10.440  0.00  0.00    +0.059 A 
BRANCH  23  26
ATOM      3  O   UNL     1      -4.856  -9.530   8.124  0.00  0.00    -0.245 OA
ATOM     26  C   UNL     1      -5.257  -8.983   9.157  0.00  0.00    +0.337 C 
BRANCH  26   2
ATOM      2  O   UNL     1      -5.570  -7.659   9.198  0.00  0.00    -0.477 OA
ATOM     33  H   UNL     1      -6.004  -7.413  10.043  0.00  0.00    +0.295 HD
ENDBRANCH  26   2
ENDBRANCH  23  26
ENDBRANCH  14  16
ENDBRANCH   4  14
ENDBRANCH  15  10
TORSDOF 7
ENDMDL
