REMARK  Name = 26763048
REMARK  9 active torsions:
REMARK  status: ('A' for Active; 'I' for Inactive)
REMARK    1  A    between atoms: N_7  and  C_12
REMARK    2  A    between atoms: N_8  and  C_21
REMARK    3  A    between atoms: N_8  and  C_22
REMARK    4  A    between atoms: N_9  and  C_23
REMARK    5  A    between atoms: C_11  and  C_16
REMARK    6  A    between atoms: C_16  and  C_18
REMARK    7  A    between atoms: C_18  and  C_20
REMARK    8  A    between atoms: C_21  and  C_24
REMARK    9  A    between atoms: C_22  and  C_25
REMARK                            x       y       z     vdW  Elec       q    Type
REMARK                         _______ _______ _______ _____ _____    ______ ____
ROOT
ATOM      2  O   UNL     1       0.504  -4.457   0.744  0.00  0.00    -0.274 OA
ATOM      5  N   UNL     1      -0.378  -1.179  -0.248  0.00  0.00    -0.285 NA
ATOM      6  N   UNL     1      -1.488  -3.345   0.998  0.00  0.00    -0.313 N 
ATOM     10  C   UNL     1       0.143  -2.502  -0.606  0.00  0.00    +0.145 C 
ATOM     11  C   UNL     1      -1.842  -1.197  -0.258  0.00  0.00    +0.075 C 
ATOM     12  C   UNL     1       1.706  -0.778  -1.231  0.00  0.00    +0.090 C 
ATOM     13  C   UNL     1       1.633  -2.236  -0.764  0.00  0.00    +0.052 C 
ATOM     14  C   UNL     1       0.263  -0.267  -1.195  0.00  0.00    +0.107 C 
ATOM     15  C   UNL     1      -2.282  -2.132   0.877  0.00  0.00    +0.123 C 
ATOM     17  C   UNL     1      -0.225  -3.507   0.461  0.00  0.00    +0.230 C 
ATOM     29  H   UNL     1      -1.805  -4.043   1.664  0.00  0.00    +0.149 HD
ENDROOT
BRANCH  12   7
ATOM      3  O   UNL     1       4.512  -0.330  -1.592  0.00  0.00    -0.253 OA
ATOM      7  N   UNL     1       2.572  -0.001  -0.378  0.00  0.00    -0.295 N 
ATOM      9  N   UNL     1       4.518   0.967   0.365  0.00  0.00    -0.269 N 
ATOM     19  C   UNL     1       3.939   0.169  -0.626  0.00  0.00    +0.304 C 
ATOM     30  H   UNL     1       2.188   0.380   0.481  0.00  0.00    +0.151 HD
ATOM     31  H   UNL     1       3.910   1.309   1.105  0.00  0.00    +0.156 HD
BRANCH   9  23
ATOM      1  S   UNL     1       8.012   2.478   1.358  0.00  0.00    -0.103 S 
ATOM     23  C   UNL     1       5.869   1.371   0.475  0.00  0.00    +0.042 A 
ATOM     26  C   UNL     1       6.902   1.019  -0.441  0.00  0.00    +0.031 A 
ATOM     27  C   UNL     1       6.335   2.163   1.502  0.00  0.00    +0.068 A 
ATOM     28  C   UNL     1       8.118   1.555  -0.080  0.00  0.00    +0.047 A 
ENDBRANCH   9  23
ENDBRANCH  12   7
BRANCH  11  16
ATOM     16  C   UNL     1      -2.460   0.188  -0.050  0.00  0.00    +0.029 C 
BRANCH  16  18
ATOM     18  C   UNL     1      -3.983   0.122  -0.086  0.00  0.00    +0.097 C 
BRANCH  18  20
ATOM      4  O   UNL     1      -3.921   2.494   0.259  0.00  0.00    -0.276 OA
ATOM      8  N   UNL     1      -6.022   1.526   0.083  0.00  0.00    -0.302 N 
ATOM     20  C   UNL     1      -4.623   1.492   0.102  0.00  0.00    +0.216 C 
BRANCH   8  21
ATOM     21  C   UNL     1      -6.894   0.368  -0.100  0.00  0.00    +0.104 C 
ATOM     24  C   UNL     1      -7.248  -0.273   1.225  0.00  0.00    +0.024 C 
ENDBRANCH   8  21
BRANCH   8  22
ATOM     22  C   UNL     1      -6.711   2.798   0.265  0.00  0.00    +0.104 C 
ATOM     25  C   UNL     1      -6.949   3.495  -1.058  0.00  0.00    +0.024 C 
ENDBRANCH   8  22
ENDBRANCH  18  20
ENDBRANCH  16  18
ENDBRANCH  11  16
TORSDOF 7
